MODEL 1
REMARK VINA RESULT:      -4.1      0.000      0.000
REMARK  12 active torsions:
REMARK  status: ('A' for Active; 'I' for Inactive)
REMARK    1  A    between atoms: N_1  and  C_2 
REMARK    2  A    between atoms: N_1  and  C_4 
REMARK    3  A    between atoms: N_1  and  C_6 
REMARK    4  A    between atoms: N_1  and  C_8 
REMARK    5  A    between atoms: C_2  and  C_3 
REMARK    6  A    between atoms: C_3  and  C_10 
REMARK    7  A    between atoms: C_4  and  C_5 
REMARK    8  A    between atoms: C_5  and  C_12 
REMARK    9  A    between atoms: C_6  and  C_7 
REMARK   10  A    between atoms: C_7  and  C_14 
REMARK   11  A    between atoms: C_8  and  C_9 
REMARK   12  A    between atoms: C_9  and  C_16 
ROOT
HETATM    1  N   UNK N   1      27.610  17.976   5.766  0.00  0.00    -0.067 N 
ENDROOT
BRANCH   1   2
HETATM    2  C   UNK N   1      28.671  18.171   4.766  0.00  0.00     0.237 C 
BRANCH   2   3
HETATM    3  C   UNK N   1      29.673  17.019   4.665  0.00  0.00     0.027 C 
BRANCH   3   4
HETATM    4  C   UNK N   1      31.089  17.546   4.819  0.00  0.00    -0.003 C 
HETATM    5  C   UNK N   1      31.922  17.206   3.595  0.00  0.00     0.005 C 
ENDBRANCH   3   4
ENDBRANCH   2   3
ENDBRANCH   1   2
BRANCH   1   6
HETATM    6  C   UNK N   1      26.330  17.616   5.106  0.00  0.00     0.237 C 
BRANCH   6   7
HETATM    7  C   UNK N   1      26.137  18.189   3.693  0.00  0.00     0.027 C 
BRANCH   7   8
HETATM    8  C   UNK N   1      25.082  19.276   3.643  0.00  0.00    -0.003 C 
HETATM    9  C   UNK N   1      25.612  20.439   2.832  0.00  0.00     0.005 C 
ENDBRANCH   7   8
ENDBRANCH   6   7
ENDBRANCH   1   6
BRANCH   1  10
HETATM   10  C   UNK N   1      28.039  16.963   6.750  0.00  0.00     0.237 C 
BRANCH  10  11
HETATM   11  C   UNK N   1      28.278  17.518   8.159  0.00  0.00     0.027 C 
BRANCH  11  12
HETATM   12  C   UNK N   1      29.740  17.401   8.539  0.00  0.00    -0.003 C 
HETATM   13  C   UNK N   1      30.220  18.712   9.129  0.00  0.00     0.005 C 
ENDBRANCH  11  12
ENDBRANCH  10  11
ENDBRANCH   1  10
BRANCH   1  14
HETATM   14  C   UNK N   1      27.503  19.242   6.516  0.00  0.00     0.237 C 
BRANCH  14  15
HETATM   15  C   UNK N   1      27.973  20.464   5.721  0.00  0.00     0.027 C 
BRANCH  15  16
HETATM   16  C   UNK N   1      27.149  21.683   6.091  0.00  0.00    -0.003 C 
HETATM   17  C   UNK N   1      26.225  21.360   7.252  0.00  0.00     0.005 C 
ENDBRANCH  15  16
ENDBRANCH  14  15
ENDBRANCH   1  14
TORSDOF 12
ENDMDL
MODEL 2
REMARK VINA RESULT:      -4.1     10.149     13.321
REMARK  12 active torsions:
REMARK  status: ('A' for Active; 'I' for Inactive)
REMARK    1  A    between atoms: N_1  and  C_2 
REMARK    2  A    between atoms: N_1  and  C_4 
REMARK    3  A    between atoms: N_1  and  C_6 
REMARK    4  A    between atoms: N_1  and  C_8 
REMARK    5  A    between atoms: C_2  and  C_3 
REMARK    6  A    between atoms: C_3  and  C_10 
REMARK    7  A    between atoms: C_4  and  C_5 
REMARK    8  A    between atoms: C_5  and  C_12 
REMARK    9  A    between atoms: C_6  and  C_7 
REMARK   10  A    between atoms: C_7  and  C_14 
REMARK   11  A    between atoms: C_8  and  C_9 
REMARK   12  A    between atoms: C_9  and  C_16 
ROOT
HETATM    1  N   UNK N   1      27.674  25.150  -4.396  0.00  0.00    -0.067 N 
ENDROOT
BRANCH   1   2
HETATM    2  C   UNK N   1      26.322  25.619  -4.054  0.00  0.00     0.237 C 
BRANCH   2   3
HETATM    3  C   UNK N   1      26.266  27.030  -3.465  0.00  0.00     0.027 C 
BRANCH   3   4
HETATM    4  C   UNK N   1      25.427  27.932  -4.353  0.00  0.00    -0.003 C 
HETATM    5  C   UNK N   1      24.792  27.133  -5.478  0.00  0.00     0.005 C 
ENDBRANCH   3   4
ENDBRANCH   2   3
ENDBRANCH   1   2
BRANCH   1   6
HETATM    6  C   UNK N   1      28.624  26.291  -4.449  0.00  0.00     0.237 C 
BRANCH   6   7
HETATM    7  C   UNK N   1      29.116  26.670  -5.855  0.00  0.00     0.027 C 
BRANCH   7   8
HETATM    8  C   UNK N   1      28.876  28.130  -6.184  0.00  0.00    -0.003 C 
HETATM    9  C   UNK N   1      27.829  28.222  -7.274  0.00  0.00     0.005 C 
ENDBRANCH   7   8
ENDBRANCH   6   7
ENDBRANCH   1   6
BRANCH   1  10
HETATM   10  C   UNK N   1      28.095  24.114  -3.435  0.00  0.00     0.237 C 
BRANCH  10  11
HETATM   11  C   UNK N   1      29.612  24.020  -3.238  0.00  0.00     0.027 C 
BRANCH  11  12
HETATM   12  C   UNK N   1      29.958  22.913  -2.264  0.00  0.00    -0.003 C 
HETATM   13  C   UNK N   1      31.156  22.137  -2.775  0.00  0.00     0.005 C 
ENDBRANCH  11  12
ENDBRANCH  10  11
ENDBRANCH   1  10
BRANCH   1  14
HETATM   14  C   UNK N   1      27.563  24.468  -5.699  0.00  0.00     0.237 C 
BRANCH  14  15
HETATM   15  C   UNK N   1      26.238  23.725  -5.889  0.00  0.00     0.027 C 
BRANCH  15  16
HETATM   16  C   UNK N   1      25.895  23.625  -7.363  0.00  0.00    -0.003 C 
HETATM   17  C   UNK N   1      26.157  24.950  -8.055  0.00  0.00     0.005 C 
ENDBRANCH  15  16
ENDBRANCH  14  15
ENDBRANCH   1  14
TORSDOF 12
ENDMDL
MODEL 3
REMARK VINA RESULT:      -4.1      1.245      1.851
REMARK  12 active torsions:
REMARK  status: ('A' for Active; 'I' for Inactive)
REMARK    1  A    between atoms: N_1  and  C_2 
REMARK    2  A    between atoms: N_1  and  C_4 
REMARK    3  A    between atoms: N_1  and  C_6 
REMARK    4  A    between atoms: N_1  and  C_8 
REMARK    5  A    between atoms: C_2  and  C_3 
REMARK    6  A    between atoms: C_3  and  C_10 
REMARK    7  A    between atoms: C_4  and  C_5 
REMARK    8  A    between atoms: C_5  and  C_12 
REMARK    9  A    between atoms: C_6  and  C_7 
REMARK   10  A    between atoms: C_7  and  C_14 
REMARK   11  A    between atoms: C_8  and  C_9 
REMARK   12  A    between atoms: C_9  and  C_16 
ROOT
HETATM    1  N   UNK N   1      28.196  17.831   6.014  0.00  0.00    -0.067 N 
ENDROOT
BRANCH   1   2
HETATM    2  C   UNK N   1      29.284  17.862   5.024  0.00  0.00     0.237 C 
BRANCH   2   3
HETATM    3  C   UNK N   1      30.595  17.231   5.498  0.00  0.00     0.027 C 
BRANCH   3   4
HETATM    4  C   UNK N   1      31.700  17.514   4.496  0.00  0.00    -0.003 C 
HETATM    5  C   UNK N   1      33.059  17.469   5.172  0.00  0.00     0.005 C 
ENDBRANCH   3   4
ENDBRANCH   2   3
ENDBRANCH   1   2
BRANCH   1   6
HETATM    6  C   UNK N   1      27.064  17.005   5.520  0.00  0.00     0.237 C 
BRANCH   6   7
HETATM    7  C   UNK N   1      27.204  16.497   4.077  0.00  0.00     0.027 C 
BRANCH   7   8
HETATM    8  C   UNK N   1      26.000  16.834   3.220  0.00  0.00    -0.003 C 
HETATM    9  C   UNK N   1      24.837  17.184   4.123  0.00  0.00     0.005 C 
ENDBRANCH   7   8
ENDBRANCH   6   7
ENDBRANCH   1   6
BRANCH   1  10
HETATM   10  C   UNK N   1      28.718  17.352   7.308  0.00  0.00     0.237 C 
BRANCH  10  11
HETATM   11  C   UNK N   1      28.242  18.165   8.517  0.00  0.00     0.027 C 
BRANCH  11  12
HETATM   12  C   UNK N   1      29.310  18.203   9.591  0.00  0.00    -0.003 C 
HETATM   13  C   UNK N   1      30.643  18.574   8.972  0.00  0.00     0.005 C 
ENDBRANCH  11  12
ENDBRANCH  10  11
ENDBRANCH   1  10
BRANCH   1  14
HETATM   14  C   UNK N   1      27.794  19.232   6.239  0.00  0.00     0.237 C 
BRANCH  14  15
HETATM   15  C   UNK N   1      27.827  20.089   4.969  0.00  0.00     0.027 C 
BRANCH  15  16
HETATM   16  C   UNK N   1      26.431  20.563   4.615  0.00  0.00    -0.003 C 
HETATM   17  C   UNK N   1      26.235  20.544   3.110  0.00  0.00     0.005 C 
ENDBRANCH  15  16
ENDBRANCH  14  15
ENDBRANCH   1  14
TORSDOF 12
ENDMDL
MODEL 4
REMARK VINA RESULT:      -4.0     10.360     13.386
REMARK  12 active torsions:
REMARK  status: ('A' for Active; 'I' for Inactive)
REMARK    1  A    between atoms: N_1  and  C_2 
REMARK    2  A    between atoms: N_1  and  C_4 
REMARK    3  A    between atoms: N_1  and  C_6 
REMARK    4  A    between atoms: N_1  and  C_8 
REMARK    5  A    between atoms: C_2  and  C_3 
REMARK    6  A    between atoms: C_3  and  C_10 
REMARK    7  A    between atoms: C_4  and  C_5 
REMARK    8  A    between atoms: C_5  and  C_12 
REMARK    9  A    between atoms: C_6  and  C_7 
REMARK   10  A    between atoms: C_7  and  C_14 
REMARK   11  A    between atoms: C_8  and  C_9 
REMARK   12  A    between atoms: C_9  and  C_16 
ROOT
HETATM    1  N   UNK N   1      27.503  24.845  -4.592  0.00  0.00    -0.067 N 
ENDROOT
BRANCH   1   2
HETATM    2  C   UNK N   1      28.434  25.852  -5.124  0.00  0.00     0.237 C 
BRANCH   2   3
HETATM    3  C   UNK N   1      28.651  25.782  -6.637  0.00  0.00     0.027 C 
BRANCH   3   4
HETATM    4  C   UNK N   1      27.959  26.951  -7.316  0.00  0.00    -0.003 C 
HETATM    5  C   UNK N   1      26.967  26.455  -8.354  0.00  0.00     0.005 C 
ENDBRANCH   3   4
ENDBRANCH   2   3
ENDBRANCH   1   2
BRANCH   1   6
HETATM    6  C   UNK N   1      26.213  25.476  -4.212  0.00  0.00     0.237 C 
BRANCH   6   7
HETATM    7  C   UNK N   1      26.311  26.934  -3.737  0.00  0.00     0.027 C 
BRANCH   7   8
HETATM    8  C   UNK N   1      25.426  27.870  -4.536  0.00  0.00    -0.003 C 
HETATM    9  C   UNK N   1      24.684  27.069  -5.585  0.00  0.00     0.005 C 
ENDBRANCH   7   8
ENDBRANCH   6   7
ENDBRANCH   1   6
BRANCH   1  10
HETATM   10  C   UNK N   1      27.329  23.762  -5.578  0.00  0.00     0.237 C 
BRANCH  10  11
HETATM   11  C   UNK N   1      25.867  23.452  -5.919  0.00  0.00     0.027 C 
BRANCH  11  12
HETATM   12  C   UNK N   1      25.743  22.953  -7.344  0.00  0.00    -0.003 C 
HETATM   13  C   UNK N   1      24.963  21.653  -7.364  0.00  0.00     0.005 C 
ENDBRANCH  11  12
ENDBRANCH  10  11
ENDBRANCH   1  10
BRANCH   1  14
HETATM   14  C   UNK N   1      28.172  24.226  -3.432  0.00  0.00     0.237 C 
BRANCH  14  15
HETATM   15  C   UNK N   1      29.311  23.277  -3.818  0.00  0.00     0.027 C 
BRANCH  15  16
HETATM   16  C   UNK N   1      30.484  23.447  -2.873  0.00  0.00    -0.003 C 
HETATM   17  C   UNK N   1      31.338  22.192  -2.863  0.00  0.00     0.005 C 
ENDBRANCH  15  16
ENDBRANCH  14  15
ENDBRANCH   1  14
TORSDOF 12
ENDMDL
MODEL 5
REMARK VINA RESULT:      -4.0      1.320      4.060
REMARK  12 active torsions:
REMARK  status: ('A' for Active; 'I' for Inactive)
REMARK    1  A    between atoms: N_1  and  C_2 
REMARK    2  A    between atoms: N_1  and  C_4 
REMARK    3  A    between atoms: N_1  and  C_6 
REMARK    4  A    between atoms: N_1  and  C_8 
REMARK    5  A    between atoms: C_2  and  C_3 
REMARK    6  A    between atoms: C_3  and  C_10 
REMARK    7  A    between atoms: C_4  and  C_5 
REMARK    8  A    between atoms: C_5  and  C_12 
REMARK    9  A    between atoms: C_6  and  C_7 
REMARK   10  A    between atoms: C_7  and  C_14 
REMARK   11  A    between atoms: C_8  and  C_9 
REMARK   12  A    between atoms: C_9  and  C_16 
ROOT
HETATM    1  N   UNK N   1      28.692  17.628   5.770  0.00  0.00    -0.067 N 
ENDROOT
BRANCH   1   2
HETATM    2  C   UNK N   1      27.913  18.862   5.957  0.00  0.00     0.237 C 
BRANCH   2   3
HETATM    3  C   UNK N   1      27.985  19.845   4.788  0.00  0.00     0.027 C 
BRANCH   3   4
HETATM    4  C   UNK N   1      26.649  20.546   4.615  0.00  0.00    -0.003 C 
HETATM    5  C   UNK N   1      26.122  20.353   3.204  0.00  0.00     0.005 C 
ENDBRANCH   3   4
ENDBRANCH   2   3
ENDBRANCH   1   2
BRANCH   1   6
HETATM    6  C   UNK N   1      27.811  16.516   5.329  0.00  0.00     0.237 C 
BRANCH   6   7
HETATM    7  C   UNK N   1      26.312  16.725   5.592  0.00  0.00     0.027 C 
BRANCH   7   8
HETATM    8  C   UNK N   1      25.486  16.696   4.321  0.00  0.00    -0.003 C 
HETATM    9  C   UNK N   1      26.412  16.519   3.137  0.00  0.00     0.005 C 
ENDBRANCH   7   8
ENDBRANCH   6   7
ENDBRANCH   1   6
BRANCH   1  10
HETATM   10  C   UNK N   1      29.795  17.879   4.823  0.00  0.00     0.237 C 
BRANCH  10  11
HETATM   11  C   UNK N   1      30.994  16.939   4.993  0.00  0.00     0.027 C 
BRANCH  11  12
HETATM   12  C   UNK N   1      32.242  17.548   4.388  0.00  0.00    -0.003 C 
HETATM   13  C   UNK N   1      33.383  17.471   5.383  0.00  0.00     0.005 C 
ENDBRANCH  11  12
ENDBRANCH  10  11
ENDBRANCH   1  10
BRANCH   1  14
HETATM   14  C   UNK N   1      29.335  17.337   7.065  0.00  0.00     0.237 C 
BRANCH  14  15
HETATM   15  C   UNK N   1      28.950  18.322   8.173  0.00  0.00     0.027 C 
BRANCH  15  16
HETATM   16  C   UNK N   1      30.158  18.651   9.030  0.00  0.00    -0.003 C 
HETATM   17  C   UNK N   1      31.369  17.870   8.554  0.00  0.00     0.005 C 
ENDBRANCH  15  16
ENDBRANCH  14  15
ENDBRANCH   1  14
TORSDOF 12
ENDMDL
MODEL 6
REMARK VINA RESULT:      -4.0      1.272      4.570
REMARK  12 active torsions:
REMARK  status: ('A' for Active; 'I' for Inactive)
REMARK    1  A    between atoms: N_1  and  C_2 
REMARK    2  A    between atoms: N_1  and  C_4 
REMARK    3  A    between atoms: N_1  and  C_6 
REMARK    4  A    between atoms: N_1  and  C_8 
REMARK    5  A    between atoms: C_2  and  C_3 
REMARK    6  A    between atoms: C_3  and  C_10 
REMARK    7  A    between atoms: C_4  and  C_5 
REMARK    8  A    between atoms: C_5  and  C_12 
REMARK    9  A    between atoms: C_6  and  C_7 
REMARK   10  A    between atoms: C_7  and  C_14 
REMARK   11  A    between atoms: C_8  and  C_9 
REMARK   12  A    between atoms: C_9  and  C_16 
ROOT
HETATM    1  N   UNK N   1      28.491  17.820   5.887  0.00  0.00    -0.067 N 
ENDROOT
BRANCH   1   2
HETATM    2  C   UNK N   1      29.030  17.390   7.187  0.00  0.00     0.237 C 
BRANCH   2   3
HETATM    3  C   UNK N   1      28.424  18.104   8.397  0.00  0.00     0.027 C 
BRANCH   3   4
HETATM    4  C   UNK N   1      29.512  18.440   9.401  0.00  0.00    -0.003 C 
HETATM    5  C   UNK N   1      30.887  18.277   8.775  0.00  0.00     0.005 C 
ENDBRANCH   3   4
ENDBRANCH   2   3
ENDBRANCH   1   2
BRANCH   1   6
HETATM    6  C   UNK N   1      29.582  17.952   4.888  0.00  0.00     0.237 C 
BRANCH   6   7
HETATM    7  C   UNK N   1      30.866  17.175   5.214  0.00  0.00     0.027 C 
BRANCH   7   8
HETATM    8  C   UNK N   1      32.058  17.651   4.407  0.00  0.00    -0.003 C 
HETATM    9  C   UNK N   1      32.089  16.908   3.089  0.00  0.00     0.005 C 
ENDBRANCH   7   8
ENDBRANCH   6   7
ENDBRANCH   1   6
BRANCH   1  10
HETATM   10  C   UNK N   1      27.442  16.878   5.452  0.00  0.00     0.237 C 
BRANCH  10  11
HETATM   11  C   UNK N   1      27.436  16.600   3.944  0.00  0.00     0.027 C 
BRANCH  11  12
HETATM   12  C   UNK N   1      26.052  16.813   3.366  0.00  0.00    -0.003 C 
HETATM   13  C   UNK N   1      25.087  17.186   4.474  0.00  0.00     0.005 C 
ENDBRANCH  11  12
ENDBRANCH  10  11
ENDBRANCH   1  10
BRANCH   1  14
HETATM   14  C   UNK N   1      27.804  19.104   6.123  0.00  0.00     0.237 C 
BRANCH  14  15
HETATM   15  C   UNK N   1      27.908  20.077   4.945  0.00  0.00     0.027 C 
BRANCH  15  16
HETATM   16  C   UNK N   1      26.544  20.650   4.611  0.00  0.00    -0.003 C 
HETATM   17  C   UNK N   1      26.265  20.514   3.126  0.00  0.00     0.005 C 
ENDBRANCH  15  16
ENDBRANCH  14  15
ENDBRANCH   1  14
TORSDOF 12
ENDMDL
MODEL 7
REMARK VINA RESULT:      -4.0      1.457      4.548
REMARK  12 active torsions:
REMARK  status: ('A' for Active; 'I' for Inactive)
REMARK    1  A    between atoms: N_1  and  C_2 
REMARK    2  A    between atoms: N_1  and  C_4 
REMARK    3  A    between atoms: N_1  and  C_6 
REMARK    4  A    between atoms: N_1  and  C_8 
REMARK    5  A    between atoms: C_2  and  C_3 
REMARK    6  A    between atoms: C_3  and  C_10 
REMARK    7  A    between atoms: C_4  and  C_5 
REMARK    8  A    between atoms: C_5  and  C_12 
REMARK    9  A    between atoms: C_6  and  C_7 
REMARK   10  A    between atoms: C_7  and  C_14 
REMARK   11  A    between atoms: C_8  and  C_9 
REMARK   12  A    between atoms: C_9  and  C_16 
ROOT
HETATM    1  N   UNK N   1      28.356  17.765   5.971  0.00  0.00    -0.067 N 
ENDROOT
BRANCH   1   2
HETATM    2  C   UNK N   1      27.499  16.672   5.487  0.00  0.00     0.237 C 
BRANCH   2   3
HETATM    3  C   UNK N   1      27.296  16.644   3.971  0.00  0.00     0.027 C 
BRANCH   3   4
HETATM    4  C   UNK N   1      27.638  15.269   3.425  0.00  0.00    -0.003 C 
HETATM    5  C   UNK N   1      28.806  15.352   2.458  0.00  0.00     0.005 C 
ENDBRANCH   3   4
ENDBRANCH   2   3
ENDBRANCH   1   2
BRANCH   1   6
HETATM    6  C   UNK N   1      29.462  18.025   5.014  0.00  0.00     0.237 C 
BRANCH   6   7
HETATM    7  C   UNK N   1      30.739  17.204   5.250  0.00  0.00     0.027 C 
BRANCH   7   8
HETATM    8  C   UNK N   1      31.864  17.592   4.312  0.00  0.00    -0.003 C 
HETATM    9  C   UNK N   1      33.179  17.498   5.056  0.00  0.00     0.005 C 
ENDBRANCH   7   8
ENDBRANCH   6   7
ENDBRANCH   1   6
BRANCH   1  10
HETATM   10  C   UNK N   1      27.533  18.965   6.217  0.00  0.00     0.237 C 
BRANCH  10  11
HETATM   11  C   UNK N   1      27.800  20.119   5.244  0.00  0.00     0.027 C 
BRANCH  11  12
HETATM   12  C   UNK N   1      27.229  21.415   5.781  0.00  0.00    -0.003 C 
HETATM   13  C   UNK N   1      26.437  21.140   7.044  0.00  0.00     0.005 C 
ENDBRANCH  11  12
ENDBRANCH  10  11
ENDBRANCH   1  10
BRANCH   1  14
HETATM   14  C   UNK N   1      28.861  17.349   7.292  0.00  0.00     0.237 C 
BRANCH  14  15
HETATM   15  C   UNK N   1      28.288  18.168   8.452  0.00  0.00     0.027 C 
BRANCH  15  16
HETATM   16  C   UNK N   1      29.378  18.501   9.453  0.00  0.00    -0.003 C 
HETATM   17  C   UNK N   1      30.746  18.263   8.840  0.00  0.00     0.005 C 
ENDBRANCH  15  16
ENDBRANCH  14  15
ENDBRANCH   1  14
TORSDOF 12
ENDMDL
MODEL 8
REMARK VINA RESULT:      -4.0      1.401      5.379
REMARK  12 active torsions:
REMARK  status: ('A' for Active; 'I' for Inactive)
REMARK    1  A    between atoms: N_1  and  C_2 
REMARK    2  A    between atoms: N_1  and  C_4 
REMARK    3  A    between atoms: N_1  and  C_6 
REMARK    4  A    between atoms: N_1  and  C_8 
REMARK    5  A    between atoms: C_2  and  C_3 
REMARK    6  A    between atoms: C_3  and  C_10 
REMARK    7  A    between atoms: C_4  and  C_5 
REMARK    8  A    between atoms: C_5  and  C_12 
REMARK    9  A    between atoms: C_6  and  C_7 
REMARK   10  A    between atoms: C_7  and  C_14 
REMARK   11  A    between atoms: C_8  and  C_9 
REMARK   12  A    between atoms: C_9  and  C_16 
ROOT
HETATM    1  N   UNK N   1      28.197  17.618   5.981  0.00  0.00    -0.067 N 
ENDROOT
BRANCH   1   2
HETATM    2  C   UNK N   1      27.460  18.885   5.855  0.00  0.00     0.237 C 
BRANCH   2   3
HETATM    3  C   UNK N   1      28.009  19.840   4.793  0.00  0.00     0.027 C 
BRANCH   3   4
HETATM    4  C   UNK N   1      26.970  20.066   3.709  0.00  0.00    -0.003 C 
HETATM    5  C   UNK N   1      25.587  20.223   4.319  0.00  0.00     0.005 C 
ENDBRANCH   3   4
ENDBRANCH   2   3
ENDBRANCH   1   2
BRANCH   1   6
HETATM    6  C   UNK N   1      28.477  17.317   7.409  0.00  0.00     0.237 C 
BRANCH   6   7
HETATM    7  C   UNK N   1      28.257  18.487   8.380  0.00  0.00     0.027 C 
BRANCH   7   8
HETATM    8  C   UNK N   1      29.316  18.554   9.463  0.00  0.00    -0.003 C 
HETATM    9  C   UNK N   1      30.656  18.186   8.864  0.00  0.00     0.005 C 
ENDBRANCH   7   8
ENDBRANCH   6   7
ENDBRANCH   1   6
BRANCH   1  10
HETATM   10  C   UNK N   1      27.440  16.539   5.318  0.00  0.00     0.237 C 
BRANCH  10  11
HETATM   11  C   UNK N   1      25.918  16.678   5.433  0.00  0.00     0.027 C 
BRANCH  11  12
HETATM   12  C   UNK N   1      25.258  16.467   4.086  0.00  0.00    -0.003 C 
HETATM   13  C   UNK N   1      26.312  16.454   2.997  0.00  0.00     0.005 C 
ENDBRANCH  11  12
ENDBRANCH  10  11
ENDBRANCH   1  10
BRANCH   1  14
HETATM   14  C   UNK N   1      29.438  17.776   5.201  0.00  0.00     0.237 C 
BRANCH  14  15
HETATM   15  C   UNK N   1      30.457  16.658   5.440  0.00  0.00     0.027 C 
BRANCH  15  16
HETATM   16  C   UNK N   1      31.862  17.227   5.497  0.00  0.00    -0.003 C 
HETATM   17  C   UNK N   1      32.342  17.584   4.102  0.00  0.00     0.005 C 
ENDBRANCH  15  16
ENDBRANCH  14  15
ENDBRANCH   1  14
TORSDOF 12
ENDMDL
MODEL 9
REMARK VINA RESULT:      -3.9      1.545      4.802
REMARK  12 active torsions:
REMARK  status: ('A' for Active; 'I' for Inactive)
REMARK    1  A    between atoms: N_1  and  C_2 
REMARK    2  A    between atoms: N_1  and  C_4 
REMARK    3  A    between atoms: N_1  and  C_6 
REMARK    4  A    between atoms: N_1  and  C_8 
REMARK    5  A    between atoms: C_2  and  C_3 
REMARK    6  A    between atoms: C_3  and  C_10 
REMARK    7  A    between atoms: C_4  and  C_5 
REMARK    8  A    between atoms: C_5  and  C_12 
REMARK    9  A    between atoms: C_6  and  C_7 
REMARK   10  A    between atoms: C_7  and  C_14 
REMARK   11  A    between atoms: C_8  and  C_9 
REMARK   12  A    between atoms: C_9  and  C_16 
ROOT
HETATM    1  N   UNK N   1      29.139  17.220   5.618  0.00  0.00    -0.067 N 
ENDROOT
BRANCH   1   2
HETATM    2  C   UNK N   1      29.416  17.182   7.063  0.00  0.00     0.237 C 
BRANCH   2   3
HETATM    3  C   UNK N   1      28.195  17.422   7.953  0.00  0.00     0.027 C 
BRANCH   3   4
HETATM    4  C   UNK N   1      28.568  18.330   9.112  0.00  0.00    -0.003 C 
HETATM    5  C   UNK N   1      30.049  18.664   9.075  0.00  0.00     0.005 C 
ENDBRANCH   3   4
ENDBRANCH   2   3
ENDBRANCH   1   2
BRANCH   1   6
HETATM    6  C   UNK N   1      27.935  18.044   5.340  0.00  0.00     0.237 C 
BRANCH   6   7
HETATM    7  C   UNK N   1      28.203  19.374   4.618  0.00  0.00     0.027 C 
BRANCH   7   8
HETATM    8  C   UNK N   1      27.227  20.463   5.016  0.00  0.00    -0.003 C 
HETATM    9  C   UNK N   1      27.490  20.856   6.454  0.00  0.00     0.005 C 
ENDBRANCH   7   8
ENDBRANCH   6   7
ENDBRANCH   1   6
BRANCH   1  10
HETATM   10  C   UNK N   1      30.331  17.707   4.899  0.00  0.00     0.237 C 
BRANCH  10  11
HETATM   11  C   UNK N   1      31.659  17.187   5.462  0.00  0.00     0.027 C 
BRANCH  11  12
HETATM   12  C   UNK N   1      32.779  17.387   4.463  0.00  0.00    -0.003 C 
HETATM   13  C   UNK N   1      32.279  17.079   3.065  0.00  0.00     0.005 C 
ENDBRANCH  11  12
ENDBRANCH  10  11
ENDBRANCH   1  10
BRANCH   1  14
HETATM   14  C   UNK N   1      28.956  15.821   5.190  0.00  0.00     0.237 C 
BRANCH  14  15
HETATM   15  C   UNK N   1      27.974  15.661   4.025  0.00  0.00     0.027 C 
BRANCH  15  16
HETATM   16  C   UNK N   1      28.714  15.276   2.759  0.00  0.00    -0.003 C 
HETATM   17  C   UNK N   1      29.831  14.300   3.078  0.00  0.00     0.005 C 
ENDBRANCH  15  16
ENDBRANCH  14  15
ENDBRANCH   1  14
TORSDOF 12
ENDMDL
