MODEL 1
REMARK VINA RESULT:      -4.6      0.000      0.000
REMARK  0 active torsions:
REMARK  status: ('A' for Active; 'I' for Inactive)
ROOT
HETATM    1  C   UNK N   1      27.398  26.715  -4.800  0.00  0.00    -0.003 C 
HETATM    2  C   UNK N   1      26.484  25.557  -5.108  0.00  0.00    -0.004 C 
HETATM    3  C   UNK N   1      25.175  26.085  -5.588  0.00  0.00     0.052 C 
HETATM    4  C   UNK N   1      25.473  27.602  -5.487  0.00  0.00    -0.001 C 
HETATM    5  C   UNK N   1      25.504  27.952  -3.986  0.00  0.00     0.007 C 
HETATM    6  C   UNK N   1      26.841  27.343  -3.516  0.00  0.00     0.015 C 
HETATM    7  C   UNK N   1      26.955  27.708  -5.878  0.00  0.00    -0.032 C 
HETATM    8  C   UNK N   1      27.240  27.253  -7.315  0.00  0.00     0.016 C 
HETATM    9  C   UNK N   1      27.535  29.118  -5.719  0.00  0.00     0.016 C 
HETATM   10  C   UNK N   1      28.897  26.432  -4.727  0.00  0.00     0.021 C 
HETATM   11  S   UNK N   1      26.916  24.210  -5.379  0.00  0.00    -0.089 SA
ENDROOT
TORSDOF 0
ENDMDL
MODEL 2
REMARK VINA RESULT:      -4.5      1.411      2.508
REMARK  0 active torsions:
REMARK  status: ('A' for Active; 'I' for Inactive)
ROOT
HETATM    1  C   UNK N   1      27.047  27.017  -5.689  0.00  0.00    -0.003 C 
HETATM    2  C   UNK N   1      26.829  25.927  -6.706  0.00  0.00    -0.004 C 
HETATM    3  C   UNK N   1      26.081  24.806  -6.065  0.00  0.00     0.052 C 
HETATM    4  C   UNK N   1      25.946  25.390  -4.637  0.00  0.00    -0.001 C 
HETATM    5  C   UNK N   1      27.347  25.335  -3.997  0.00  0.00     0.007 C 
HETATM    6  C   UNK N   1      28.104  26.468  -4.722  0.00  0.00     0.015 C 
HETATM    7  C   UNK N   1      25.755  26.896  -4.876  0.00  0.00    -0.032 C 
HETATM    8  C   UNK N   1      24.479  27.232  -5.659  0.00  0.00     0.016 C 
HETATM    9  C   UNK N   1      25.735  27.728  -3.588  0.00  0.00     0.016 C 
HETATM   10  C   UNK N   1      27.380  28.414  -6.210  0.00  0.00     0.021 C 
HETATM   11  S   UNK N   1      26.871  26.105  -8.134  0.00  0.00    -0.089 SA
ENDROOT
TORSDOF 0
ENDMDL
MODEL 3
REMARK VINA RESULT:      -4.5     24.948     26.354
REMARK  0 active torsions:
REMARK  status: ('A' for Active; 'I' for Inactive)
ROOT
HETATM    1  C   UNK N   1      35.085  12.143  14.539  0.00  0.00    -0.003 C 
HETATM    2  C   UNK N   1      35.410  13.312  13.646  0.00  0.00    -0.004 C 
HETATM    3  C   UNK N   1      36.549  14.074  14.237  0.00  0.00     0.052 C 
HETATM    4  C   UNK N   1      36.776  13.222  15.511  0.00  0.00    -0.001 C 
HETATM    5  C   UNK N   1      35.591  13.506  16.455  0.00  0.00     0.007 C 
HETATM    6  C   UNK N   1      34.425  12.751  15.783  0.00  0.00     0.015 C 
HETATM    7  C   UNK N   1      36.486  11.787  15.045  0.00  0.00    -0.032 C 
HETATM    8  C   UNK N   1      37.447  11.294  13.956  0.00  0.00     0.016 C 
HETATM    9  C   UNK N   1      36.508  10.754  16.179  0.00  0.00     0.016 C 
HETATM   10  C   UNK N   1      34.280  10.994  13.935  0.00  0.00     0.021 C 
HETATM   11  S   UNK N   1      35.056  13.415  12.255  0.00  0.00    -0.089 SA
ENDROOT
TORSDOF 0
ENDMDL
MODEL 4
REMARK VINA RESULT:      -4.5     25.451     26.855
REMARK  0 active torsions:
REMARK  status: ('A' for Active; 'I' for Inactive)
ROOT
HETATM    1  C   UNK N   1      35.076  11.576  14.527  0.00  0.00    -0.003 C 
HETATM    2  C   UNK N   1      36.266  10.813  14.005  0.00  0.00    -0.004 C 
HETATM    3  C   UNK N   1      37.515  11.516  14.419  0.00  0.00     0.052 C 
HETATM    4  C   UNK N   1      36.882  12.709  15.177  0.00  0.00    -0.001 C 
HETATM    5  C   UNK N   1      36.254  13.631  14.114  0.00  0.00     0.007 C 
HETATM    6  C   UNK N   1      35.001  12.847  13.672  0.00  0.00     0.015 C 
HETATM    7  C   UNK N   1      35.644  12.097  15.851  0.00  0.00    -0.032 C 
HETATM    8  C   UNK N   1      35.984  11.001  16.869  0.00  0.00     0.016 C 
HETATM    9  C   UNK N   1      34.756  13.126  16.561  0.00  0.00     0.016 C 
HETATM   10  C   UNK N   1      33.744  10.835  14.617  0.00  0.00     0.021 C 
HETATM   11  S   UNK N   1      36.256   9.425  13.621  0.00  0.00    -0.089 SA
ENDROOT
TORSDOF 0
ENDMDL
MODEL 5
REMARK VINA RESULT:      -4.4     16.668     17.983
REMARK  0 active torsions:
REMARK  status: ('A' for Active; 'I' for Inactive)
ROOT
HETATM    1  C   UNK N   1      33.534  17.366   8.151  0.00  0.00    -0.003 C 
HETATM    2  C   UNK N   1      33.713  16.232   9.128  0.00  0.00    -0.004 C 
HETATM    3  C   UNK N   1      32.904  15.065   8.672  0.00  0.00     0.052 C 
HETATM    4  C   UNK N   1      32.278  15.685   7.399  0.00  0.00    -0.001 C 
HETATM    5  C   UNK N   1      31.235  16.717   7.871  0.00  0.00     0.007 C 
HETATM    6  C   UNK N   1      32.108  17.882   8.383  0.00  0.00     0.015 C 
HETATM    7  C   UNK N   1      33.396  16.581   6.843  0.00  0.00    -0.032 C 
HETATM    8  C   UNK N   1      34.654  15.804   6.435  0.00  0.00     0.016 C 
HETATM    9  C   UNK N   1      32.967  17.427   5.638  0.00  0.00     0.016 C 
HETATM   10  C   UNK N   1      34.581  18.477   8.157  0.00  0.00     0.021 C 
HETATM   11  S   UNK N   1      34.818  16.093  10.041  0.00  0.00    -0.089 SA
ENDROOT
TORSDOF 0
ENDMDL
MODEL 6
REMARK VINA RESULT:      -4.3     25.820     27.161
REMARK  0 active torsions:
REMARK  status: ('A' for Active; 'I' for Inactive)
ROOT
HETATM    1  C   UNK N   1      36.095  11.411  14.837  0.00  0.00    -0.003 C 
HETATM    2  C   UNK N   1      35.088  11.466  13.717  0.00  0.00    -0.004 C 
HETATM    3  C   UNK N   1      33.827  10.807  14.163  0.00  0.00     0.052 C 
HETATM    4  C   UNK N   1      34.262  10.390  15.589  0.00  0.00    -0.001 C 
HETATM    5  C   UNK N   1      35.267   9.232  15.430  0.00  0.00     0.007 C 
HETATM    6  C   UNK N   1      36.536   9.944  14.916  0.00  0.00     0.015 C 
HETATM    7  C   UNK N   1      35.165  11.546  16.047  0.00  0.00    -0.032 C 
HETATM    8  C   UNK N   1      34.434  12.892  16.137  0.00  0.00     0.016 C 
HETATM    9  C   UNK N   1      35.844  11.300  17.399  0.00  0.00     0.016 C 
HETATM   10  C   UNK N   1      37.268  12.387  14.783  0.00  0.00     0.021 C 
HETATM   11  S   UNK N   1      35.124  12.395  12.617  0.00  0.00    -0.089 SA
ENDROOT
TORSDOF 0
ENDMDL
MODEL 7
REMARK VINA RESULT:      -4.3     25.461     26.739
REMARK  0 active torsions:
REMARK  status: ('A' for Active; 'I' for Inactive)
ROOT
HETATM    1  C   UNK N   1      36.351  11.360  14.844  0.00  0.00    -0.003 C 
HETATM    2  C   UNK N   1      35.160  10.581  14.345  0.00  0.00    -0.004 C 
HETATM    3  C   UNK N   1      33.911  11.254  14.805  0.00  0.00     0.052 C 
HETATM    4  C   UNK N   1      34.544  12.426  15.596  0.00  0.00    -0.001 C 
HETATM    5  C   UNK N   1      35.153  11.824  16.877  0.00  0.00     0.007 C 
HETATM    6  C   UNK N   1      36.407  11.093  16.354  0.00  0.00     0.015 C 
HETATM    7  C   UNK N   1      35.794  12.785  14.777  0.00  0.00    -0.032 C 
HETATM    8  C   UNK N   1      35.474  13.274  13.358  0.00  0.00     0.016 C 
HETATM    9  C   UNK N   1      36.682  13.845  15.439  0.00  0.00     0.016 C 
HETATM   10  C   UNK N   1      37.689  11.131  14.145  0.00  0.00     0.021 C 
HETATM   11  S   UNK N   1      35.176   9.667  13.233  0.00  0.00    -0.089 SA
ENDROOT
TORSDOF 0
ENDMDL
MODEL 8
REMARK VINA RESULT:      -4.3     25.910     27.137
REMARK  0 active torsions:
REMARK  status: ('A' for Active; 'I' for Inactive)
ROOT
HETATM    1  C   UNK N   1      35.769  10.909  15.690  0.00  0.00    -0.003 C 
HETATM    2  C   UNK N   1      36.517  10.525  14.439  0.00  0.00    -0.004 C 
HETATM    3  C   UNK N   1      35.952  11.280  13.283  0.00  0.00     0.052 C 
HETATM    4  C   UNK N   1      34.845  12.068  14.026  0.00  0.00    -0.001 C 
HETATM    5  C   UNK N   1      33.746  11.054  14.399  0.00  0.00     0.007 C 
HETATM    6  C   UNK N   1      34.387  10.259  15.555  0.00  0.00     0.015 C 
HETATM    7  C   UNK N   1      35.476  12.383  15.392  0.00  0.00    -0.032 C 
HETATM    8  C   UNK N   1      36.724  13.270  15.297  0.00  0.00     0.016 C 
HETATM    9  C   UNK N   1      34.511  13.050  16.379  0.00  0.00     0.016 C 
HETATM   10  C   UNK N   1      36.439  10.619  17.031  0.00  0.00     0.021 C 
HETATM   11  S   UNK N   1      37.832   9.940  14.407  0.00  0.00    -0.089 SA
ENDROOT
TORSDOF 0
ENDMDL
MODEL 9
REMARK VINA RESULT:      -4.3     15.905     17.387
REMARK  0 active torsions:
REMARK  status: ('A' for Active; 'I' for Inactive)
ROOT
HETATM    1  C   UNK N   1      32.124  17.058   7.418  0.00  0.00    -0.003 C 
HETATM    2  C   UNK N   1      32.363  17.257   5.943  0.00  0.00    -0.004 C 
HETATM    3  C   UNK N   1      33.789  16.949   5.635  0.00  0.00     0.052 C 
HETATM    4  C   UNK N   1      34.275  16.595   7.062  0.00  0.00    -0.001 C 
HETATM    5  C   UNK N   1      34.328  17.914   7.857  0.00  0.00     0.007 C 
HETATM    6  C   UNK N   1      32.838  18.228   8.107  0.00  0.00     0.015 C 
HETATM    7  C   UNK N   1      33.067  15.883   7.691  0.00  0.00    -0.032 C 
HETATM    8  C   UNK N   1      32.683  14.582   6.973  0.00  0.00     0.016 C 
HETATM    9  C   UNK N   1      33.252  15.550   9.176  0.00  0.00     0.016 C 
HETATM   10  C   UNK N   1      30.681  16.880   7.883  0.00  0.00     0.021 C 
HETATM   11  S   UNK N   1      31.339  17.253   4.931  0.00  0.00    -0.089 SA
ENDROOT
TORSDOF 0
ENDMDL
