MODEL 1
REMARK VINA RESULT:      -4.5      0.000      0.000
REMARK  12 active torsions:
REMARK  status: ('A' for Active; 'I' for Inactive)
REMARK    1  A    between atoms: O_1  and  C_3 
REMARK    2  A    between atoms: C_3  and  C_4 
REMARK    3  A    between atoms: C_4  and  C_5 
REMARK    4  A    between atoms: C_5  and  C_6 
REMARK    5  A    between atoms: C_6  and  C_7 
REMARK    6  A    between atoms: C_7  and  C_8 
REMARK    7  A    between atoms: C_8  and  C_9 
REMARK    8  A    between atoms: C_9  and  C_10 
REMARK    9  A    between atoms: C_10  and  C_11 
REMARK   10  A    between atoms: C_11  and  C_12 
REMARK   11  A    between atoms: C_12  and  C_13 
REMARK   12  A    between atoms: C_13  and  C_14 
ROOT
HETATM    1  C   UNK N   1      28.537  24.650  -4.460  0.00  0.00     0.000 C 
ENDROOT
BRANCH   1   2
HETATM    2  C   UNK N   1      29.422  25.747  -3.925  0.00  0.00     0.001 C 
BRANCH   2   3
HETATM    3  C   UNK N   1      30.697  25.072  -3.491  0.00  0.00     0.010 C 
BRANCH   3   4
HETATM    4  C   UNK N   1      30.650  23.577  -3.731  0.00  0.00     0.110 C 
BRANCH   4   5
HETATM    5  C   UNK N   1      30.909  22.818  -2.462  0.00  0.00     0.139 C 
HETATM    6  O   UNK N   1      31.761  21.940  -2.418  0.00  0.00    -0.650 OA
BRANCH   5   7
HETATM    7  O   UNK N   1      30.198  23.107  -1.360  0.00  0.00    -0.776 OA
HETATM    8  H   UNK N   1      30.229  23.969  -0.995  0.00  0.00     0.167 HD
ENDBRANCH   5   7
ENDBRANCH   4   5
ENDBRANCH   3   4
ENDBRANCH   2   3
ENDBRANCH   1   2
BRANCH   1   9
HETATM    9  C   UNK N   1      27.261  24.543  -3.669  0.00  0.00     0.000 C 
BRANCH   9  10
HETATM   10  C   UNK N   1      26.200  24.030  -4.611  0.00  0.00     0.000 C 
BRANCH  10  11
HETATM   11  C   UNK N   1      26.077  24.962  -5.786  0.00  0.00     0.000 C 
BRANCH  11  12
HETATM   12  C   UNK N   1      25.096  26.055  -5.439  0.00  0.00     0.000 C 
BRANCH  12  13
HETATM   13  C   UNK N   1      25.533  27.323  -6.129  0.00  0.00     0.000 C 
BRANCH  13  14
HETATM   14  C   UNK N   1      26.897  27.121  -6.743  0.00  0.00    -0.000 C 
BRANCH  14  15
HETATM   15  C   UNK N   1      27.678  28.410  -6.616  0.00  0.00    -0.005 C 
HETATM   16  C   UNK N   1      27.415  29.025  -5.261  0.00  0.00     0.005 C 
ENDBRANCH  14  15
ENDBRANCH  13  14
ENDBRANCH  12  13
ENDBRANCH  11  12
ENDBRANCH  10  11
ENDBRANCH   9  10
ENDBRANCH   1   9
TORSDOF 12
ENDMDL
MODEL 2
REMARK VINA RESULT:      -4.4     10.535     13.166
REMARK  12 active torsions:
REMARK  status: ('A' for Active; 'I' for Inactive)
REMARK    1  A    between atoms: O_1  and  C_3 
REMARK    2  A    between atoms: C_3  and  C_4 
REMARK    3  A    between atoms: C_4  and  C_5 
REMARK    4  A    between atoms: C_5  and  C_6 
REMARK    5  A    between atoms: C_6  and  C_7 
REMARK    6  A    between atoms: C_7  and  C_8 
REMARK    7  A    between atoms: C_8  and  C_9 
REMARK    8  A    between atoms: C_9  and  C_10 
REMARK    9  A    between atoms: C_10  and  C_11 
REMARK   10  A    between atoms: C_11  and  C_12 
REMARK   11  A    between atoms: C_12  and  C_13 
REMARK   12  A    between atoms: C_13  and  C_14 
ROOT
HETATM    1  C   UNK N   1      29.994  17.561   8.235  0.00  0.00     0.000 C 
ENDROOT
BRANCH   1   2
HETATM    2  C   UNK N   1      30.657  17.214   6.926  0.00  0.00     0.001 C 
BRANCH   2   3
HETATM    3  C   UNK N   1      32.086  16.879   7.265  0.00  0.00     0.010 C 
BRANCH   3   4
HETATM    4  C   UNK N   1      32.728  17.956   8.114  0.00  0.00     0.110 C 
BRANCH   4   5
HETATM    5  C   UNK N   1      34.133  18.233   7.663  0.00  0.00     0.139 C 
HETATM    6  O   UNK N   1      34.580  17.720   6.646  0.00  0.00    -0.650 OA
BRANCH   5   7
HETATM    7  O   UNK N   1      34.911  19.056   8.386  0.00  0.00    -0.776 OA
HETATM    8  H   UNK N   1      35.687  19.419   8.007  0.00  0.00     0.167 HD
ENDBRANCH   5   7
ENDBRANCH   4   5
ENDBRANCH   3   4
ENDBRANCH   2   3
ENDBRANCH   1   2
BRANCH   1   9
HETATM    9  C   UNK N   1      28.499  17.648   8.084  0.00  0.00     0.000 C 
BRANCH   9  10
HETATM   10  C   UNK N   1      28.229  18.461   6.842  0.00  0.00     0.000 C 
BRANCH  10  11
HETATM   11  C   UNK N   1      27.775  19.842   7.232  0.00  0.00     0.000 C 
BRANCH  11  12
HETATM   12  C   UNK N   1      27.172  20.515   6.024  0.00  0.00     0.000 C 
BRANCH  12  13
HETATM   13  C   UNK N   1      27.940  20.078   4.803  0.00  0.00     0.000 C 
BRANCH  13  14
HETATM   14  C   UNK N   1      27.020  20.054   3.606  0.00  0.00    -0.000 C 
BRANCH  14  15
HETATM   15  C   UNK N   1      25.745  19.339   3.994  0.00  0.00    -0.005 C 
HETATM   16  C   UNK N   1      25.866  17.873   3.649  0.00  0.00     0.005 C 
ENDBRANCH  14  15
ENDBRANCH  13  14
ENDBRANCH  12  13
ENDBRANCH  11  12
ENDBRANCH  10  11
ENDBRANCH   9  10
ENDBRANCH   1   9
TORSDOF 12
ENDMDL
MODEL 3
REMARK VINA RESULT:      -4.3      1.300      2.238
REMARK  12 active torsions:
REMARK  status: ('A' for Active; 'I' for Inactive)
REMARK    1  A    between atoms: O_1  and  C_3 
REMARK    2  A    between atoms: C_3  and  C_4 
REMARK    3  A    between atoms: C_4  and  C_5 
REMARK    4  A    between atoms: C_5  and  C_6 
REMARK    5  A    between atoms: C_6  and  C_7 
REMARK    6  A    between atoms: C_7  and  C_8 
REMARK    7  A    between atoms: C_8  and  C_9 
REMARK    8  A    between atoms: C_9  and  C_10 
REMARK    9  A    between atoms: C_10  and  C_11 
REMARK   10  A    between atoms: C_11  and  C_12 
REMARK   11  A    between atoms: C_12  and  C_13 
REMARK   12  A    between atoms: C_13  and  C_14 
ROOT
HETATM    1  C   UNK N   1      29.825  23.689  -5.655  0.00  0.00     0.000 C 
ENDROOT
BRANCH   1   2
HETATM    2  C   UNK N   1      29.486  22.225  -5.779  0.00  0.00     0.001 C 
BRANCH   2   3
HETATM    3  C   UNK N   1      30.214  21.538  -4.654  0.00  0.00     0.010 C 
BRANCH   3   4
HETATM    4  C   UNK N   1      31.360  22.379  -4.131  0.00  0.00     0.110 C 
BRANCH   4   5
HETATM    5  C   UNK N   1      31.534  22.195  -2.651  0.00  0.00     0.139 C 
HETATM    6  O   UNK N   1      30.845  22.818  -1.855  0.00  0.00    -0.650 OA
BRANCH   5   7
HETATM    7  O   UNK N   1      32.458  21.333  -2.195  0.00  0.00    -0.776 OA
HETATM    8  H   UNK N   1      32.522  20.476  -2.565  0.00  0.00     0.167 HD
ENDBRANCH   5   7
ENDBRANCH   4   5
ENDBRANCH   3   4
ENDBRANCH   2   3
ENDBRANCH   1   2
BRANCH   1   9
HETATM    9  C   UNK N   1      28.581  24.536  -5.624  0.00  0.00     0.000 C 
BRANCH   9  10
HETATM   10  C   UNK N   1      28.149  24.633  -4.182  0.00  0.00     0.000 C 
BRANCH  10  11
HETATM   11  C   UNK N   1      26.660  24.432  -4.088  0.00  0.00     0.000 C 
BRANCH  11  12
HETATM   12  C   UNK N   1      26.066  24.545  -5.470  0.00  0.00     0.000 C 
BRANCH  12  13
HETATM   13  C   UNK N   1      25.110  25.711  -5.484  0.00  0.00     0.000 C 
BRANCH  13  14
HETATM   14  C   UNK N   1      25.561  26.724  -6.509  0.00  0.00    -0.000 C 
BRANCH  14  15
HETATM   15  C   UNK N   1      26.394  27.776  -5.813  0.00  0.00    -0.005 C 
HETATM   16  C   UNK N   1      27.596  28.111  -6.667  0.00  0.00     0.005 C 
ENDBRANCH  14  15
ENDBRANCH  13  14
ENDBRANCH  12  13
ENDBRANCH  11  12
ENDBRANCH  10  11
ENDBRANCH   9  10
ENDBRANCH   1   9
TORSDOF 12
ENDMDL
MODEL 4
REMARK VINA RESULT:      -4.3     19.950     23.282
REMARK  12 active torsions:
REMARK  status: ('A' for Active; 'I' for Inactive)
REMARK    1  A    between atoms: O_1  and  C_3 
REMARK    2  A    between atoms: C_3  and  C_4 
REMARK    3  A    between atoms: C_4  and  C_5 
REMARK    4  A    between atoms: C_5  and  C_6 
REMARK    5  A    between atoms: C_6  and  C_7 
REMARK    6  A    between atoms: C_7  and  C_8 
REMARK    7  A    between atoms: C_8  and  C_9 
REMARK    8  A    between atoms: C_9  and  C_10 
REMARK    9  A    between atoms: C_10  and  C_11 
REMARK   10  A    between atoms: C_11  and  C_12 
REMARK   11  A    between atoms: C_12  and  C_13 
REMARK   12  A    between atoms: C_13  and  C_14 
ROOT
HETATM    1  C   UNK N   1      36.913  13.781  15.263  0.00  0.00     0.000 C 
ENDROOT
BRANCH   1   2
HETATM    2  C   UNK N   1      36.551  14.852  14.266  0.00  0.00     0.001 C 
BRANCH   2   3
HETATM    3  C   UNK N   1      36.485  14.162  12.928  0.00  0.00     0.010 C 
BRANCH   3   4
HETATM    4  C   UNK N   1      35.395  14.743  12.051  0.00  0.00     0.110 C 
BRANCH   4   5
HETATM    5  C   UNK N   1      35.900  15.924  11.275  0.00  0.00     0.139 C 
HETATM    6  O   UNK N   1      35.185  16.897  11.072  0.00  0.00    -0.650 OA
BRANCH   5   7
HETATM    7  O   UNK N   1      37.155  15.914  10.795  0.00  0.00    -0.776 OA
HETATM    8  H   UNK N   1      37.773  16.555  11.087  0.00  0.00     0.167 HD
ENDBRANCH   5   7
ENDBRANCH   4   5
ENDBRANCH   3   4
ENDBRANCH   2   3
ENDBRANCH   1   2
BRANCH   1   9
HETATM    9  C   UNK N   1      35.752  13.463  16.167  0.00  0.00     0.000 C 
BRANCH   9  10
HETATM   10  C   UNK N   1      35.333  12.045  15.864  0.00  0.00     0.000 C 
BRANCH  10  11
HETATM   11  C   UNK N   1      34.187  12.057  14.888  0.00  0.00     0.000 C 
BRANCH  11  12
HETATM   12  C   UNK N   1      33.675  10.648  14.723  0.00  0.00     0.000 C 
BRANCH  12  13
HETATM   13  C   UNK N   1      34.445   9.990  13.606  0.00  0.00     0.000 C 
BRANCH  13  14
HETATM   14  C   UNK N   1      34.637  10.972  12.475  0.00  0.00    -0.000 C 
BRANCH  14  15
HETATM   15  C   UNK N   1      35.942  10.656  11.779  0.00  0.00    -0.005 C 
HETATM   16  C   UNK N   1      37.049  10.562  12.803  0.00  0.00     0.005 C 
ENDBRANCH  14  15
ENDBRANCH  13  14
ENDBRANCH  12  13
ENDBRANCH  11  12
ENDBRANCH  10  11
ENDBRANCH   9  10
ENDBRANCH   1   9
TORSDOF 12
ENDMDL
MODEL 5
REMARK VINA RESULT:      -4.2      1.467      2.664
REMARK  12 active torsions:
REMARK  status: ('A' for Active; 'I' for Inactive)
REMARK    1  A    between atoms: O_1  and  C_3 
REMARK    2  A    between atoms: C_3  and  C_4 
REMARK    3  A    between atoms: C_4  and  C_5 
REMARK    4  A    between atoms: C_5  and  C_6 
REMARK    5  A    between atoms: C_6  and  C_7 
REMARK    6  A    between atoms: C_7  and  C_8 
REMARK    7  A    between atoms: C_8  and  C_9 
REMARK    8  A    between atoms: C_9  and  C_10 
REMARK    9  A    between atoms: C_10  and  C_11 
REMARK   10  A    between atoms: C_11  and  C_12 
REMARK   11  A    between atoms: C_12  and  C_13 
REMARK   12  A    between atoms: C_13  and  C_14 
ROOT
HETATM    1  C   UNK N   1      29.184  26.127  -4.760  0.00  0.00     0.000 C 
ENDROOT
BRANCH   1   2
HETATM    2  C   UNK N   1      30.520  26.070  -4.063  0.00  0.00     0.001 C 
BRANCH   2   3
HETATM    3  C   UNK N   1      30.647  24.666  -3.531  0.00  0.00     0.010 C 
BRANCH   3   4
HETATM    4  C   UNK N   1      29.295  24.001  -3.377  0.00  0.00     0.110 C 
BRANCH   4   5
HETATM    5  C   UNK N   1      29.210  23.247  -2.081  0.00  0.00     0.139 C 
HETATM    6  O   UNK N   1      28.129  22.896  -1.627  0.00  0.00    -0.650 OA
BRANCH   5   7
HETATM    7  O   UNK N   1      30.337  22.952  -1.411  0.00  0.00    -0.776 OA
HETATM    8  H   UNK N   1      30.992  22.415  -1.810  0.00  0.00     0.167 HD
ENDBRANCH   5   7
ENDBRANCH   4   5
ENDBRANCH   3   4
ENDBRANCH   2   3
ENDBRANCH   1   2
BRANCH   1   9
HETATM    9  C   UNK N   1      28.879  27.520  -5.241  0.00  0.00     0.000 C 
BRANCH   9  10
HETATM   10  C   UNK N   1      28.006  28.166  -4.194  0.00  0.00     0.000 C 
BRANCH  10  11
HETATM   11  C   UNK N   1      26.943  27.195  -3.755  0.00  0.00     0.000 C 
BRANCH  11  12
HETATM   12  C   UNK N   1      25.590  27.767  -4.098  0.00  0.00     0.000 C 
BRANCH  12  13
HETATM   13  C   UNK N   1      25.174  27.228  -5.444  0.00  0.00     0.000 C 
BRANCH  13  14
HETATM   14  C   UNK N   1      25.327  25.726  -5.458  0.00  0.00    -0.000 C 
BRANCH  14  15
HETATM   15  C   UNK N   1      25.877  25.310  -6.804  0.00  0.00    -0.005 C 
HETATM   16  C   UNK N   1      26.185  26.543  -7.623  0.00  0.00     0.005 C 
ENDBRANCH  14  15
ENDBRANCH  13  14
ENDBRANCH  12  13
ENDBRANCH  11  12
ENDBRANCH  10  11
ENDBRANCH   9  10
ENDBRANCH   1   9
TORSDOF 12
ENDMDL
MODEL 6
REMARK VINA RESULT:      -4.2     12.849     14.976
REMARK  12 active torsions:
REMARK  status: ('A' for Active; 'I' for Inactive)
REMARK    1  A    between atoms: O_1  and  C_3 
REMARK    2  A    between atoms: C_3  and  C_4 
REMARK    3  A    between atoms: C_4  and  C_5 
REMARK    4  A    between atoms: C_5  and  C_6 
REMARK    5  A    between atoms: C_6  and  C_7 
REMARK    6  A    between atoms: C_7  and  C_8 
REMARK    7  A    between atoms: C_8  and  C_9 
REMARK    8  A    between atoms: C_9  and  C_10 
REMARK    9  A    between atoms: C_10  and  C_11 
REMARK   10  A    between atoms: C_11  and  C_12 
REMARK   11  A    between atoms: C_12  and  C_13 
REMARK   12  A    between atoms: C_13  and  C_14 
ROOT
HETATM    1  C   UNK N   1      32.026  16.245   7.185  0.00  0.00     0.000 C 
ENDROOT
BRANCH   1   2
HETATM    2  C   UNK N   1      32.490  17.378   6.306  0.00  0.00     0.001 C 
BRANCH   2   3
HETATM    3  C   UNK N   1      33.995  17.363   6.374  0.00  0.00     0.010 C 
BRANCH   3   4
HETATM    4  C   UNK N   1      34.490  16.805   7.692  0.00  0.00     0.110 C 
BRANCH   4   5
HETATM    5  C   UNK N   1      34.912  17.907   8.620  0.00  0.00     0.139 C 
HETATM    6  O   UNK N   1      34.914  19.074   8.251  0.00  0.00    -0.650 OA
BRANCH   5   7
HETATM    7  O   UNK N   1      35.294  17.608   9.873  0.00  0.00    -0.776 OA
HETATM    8  H   UNK N   1      36.100  17.945  10.210  0.00  0.00     0.167 HD
ENDBRANCH   5   7
ENDBRANCH   4   5
ENDBRANCH   3   4
ENDBRANCH   2   3
ENDBRANCH   1   2
BRANCH   1   9
HETATM    9  C   UNK N   1      30.903  16.678   8.088  0.00  0.00     0.000 C 
BRANCH   9  10
HETATM   10  C   UNK N   1      31.333  17.970   8.737  0.00  0.00     0.000 C 
BRANCH  10  11
HETATM   11  C   UNK N   1      30.117  18.749   9.162  0.00  0.00     0.000 C 
BRANCH  11  12
HETATM   12  C   UNK N   1      29.009  17.779   9.491  0.00  0.00     0.000 C 
BRANCH  12  13
HETATM   13  C   UNK N   1      27.751  18.240   8.798  0.00  0.00     0.000 C 
BRANCH  13  14
HETATM   14  C   UNK N   1      28.114  19.087   7.601  0.00  0.00    -0.000 C 
BRANCH  14  15
HETATM   15  C   UNK N   1      27.693  18.353   6.348  0.00  0.00    -0.005 C 
HETATM   16  C   UNK N   1      28.893  18.172   5.446  0.00  0.00     0.005 C 
ENDBRANCH  14  15
ENDBRANCH  13  14
ENDBRANCH  12  13
ENDBRANCH  11  12
ENDBRANCH  10  11
ENDBRANCH   9  10
ENDBRANCH   1   9
TORSDOF 12
ENDMDL
MODEL 7
REMARK VINA RESULT:      -4.2     21.210     25.200
REMARK  12 active torsions:
REMARK  status: ('A' for Active; 'I' for Inactive)
REMARK    1  A    between atoms: O_1  and  C_3 
REMARK    2  A    between atoms: C_3  and  C_4 
REMARK    3  A    between atoms: C_4  and  C_5 
REMARK    4  A    between atoms: C_5  and  C_6 
REMARK    5  A    between atoms: C_6  and  C_7 
REMARK    6  A    between atoms: C_7  and  C_8 
REMARK    7  A    between atoms: C_8  and  C_9 
REMARK    8  A    between atoms: C_9  and  C_10 
REMARK    9  A    between atoms: C_10  and  C_11 
REMARK   10  A    between atoms: C_11  and  C_12 
REMARK   11  A    between atoms: C_12  and  C_13 
REMARK   12  A    between atoms: C_13  and  C_14 
ROOT
HETATM    1  C   UNK N   1      36.914  14.541  15.703  0.00  0.00     0.000 C 
ENDROOT
BRANCH   1   2
HETATM    2  C   UNK N   1      36.879  13.109  15.231  0.00  0.00     0.001 C 
BRANCH   2   3
HETATM    3  C   UNK N   1      36.510  13.166  13.772  0.00  0.00     0.010 C 
BRANCH   3   4
HETATM    4  C   UNK N   1      36.251  14.586  13.314  0.00  0.00     0.110 C 
BRANCH   4   5
HETATM    5  C   UNK N   1      35.257  14.618  12.190  0.00  0.00     0.139 C 
HETATM    6  O   UNK N   1      35.292  15.502  11.344  0.00  0.00    -0.650 OA
BRANCH   5   7
HETATM    7  O   UNK N   1      34.316  13.662  12.110  0.00  0.00    -0.776 OA
HETATM    8  H   UNK N   1      34.529  12.825  11.748  0.00  0.00     0.167 HD
ENDBRANCH   5   7
ENDBRANCH   4   5
ENDBRANCH   3   4
ENDBRANCH   2   3
ENDBRANCH   1   2
BRANCH   1   9
HETATM    9  C   UNK N   1      36.294  14.681  17.067  0.00  0.00     0.000 C 
BRANCH   9  10
HETATM   10  C   UNK N   1      35.338  13.527  17.237  0.00  0.00     0.000 C 
BRANCH  10  11
HETATM   11  C   UNK N   1      35.178  13.217  18.702  0.00  0.00     0.000 C 
BRANCH  11  12
HETATM   12  C   UNK N   1      35.365  11.735  18.909  0.00  0.00     0.000 C 
BRANCH  12  13
HETATM   13  C   UNK N   1      35.121  11.037  17.595  0.00  0.00     0.000 C 
BRANCH  13  14
HETATM   14  C   UNK N   1      36.243  10.063  17.322  0.00  0.00    -0.000 C 
BRANCH  14  15
HETATM   15  C   UNK N   1      36.072   9.511  15.925  0.00  0.00    -0.005 C 
HETATM   16  C   UNK N   1      34.776  10.021  15.337  0.00  0.00     0.005 C 
ENDBRANCH  14  15
ENDBRANCH  13  14
ENDBRANCH  12  13
ENDBRANCH  11  12
ENDBRANCH  10  11
ENDBRANCH   9  10
ENDBRANCH   1   9
TORSDOF 12
ENDMDL
MODEL 8
REMARK VINA RESULT:      -4.2     12.595     14.613
REMARK  12 active torsions:
REMARK  status: ('A' for Active; 'I' for Inactive)
REMARK    1  A    between atoms: O_1  and  C_3 
REMARK    2  A    between atoms: C_3  and  C_4 
REMARK    3  A    between atoms: C_4  and  C_5 
REMARK    4  A    between atoms: C_5  and  C_6 
REMARK    5  A    between atoms: C_6  and  C_7 
REMARK    6  A    between atoms: C_7  and  C_8 
REMARK    7  A    between atoms: C_8  and  C_9 
REMARK    8  A    between atoms: C_9  and  C_10 
REMARK    9  A    between atoms: C_10  and  C_11 
REMARK   10  A    between atoms: C_11  and  C_12 
REMARK   11  A    between atoms: C_12  and  C_13 
REMARK   12  A    between atoms: C_13  and  C_14 
ROOT
HETATM    1  C   UNK N   1      32.398  16.345   7.419  0.00  0.00     0.000 C 
ENDROOT
BRANCH   1   2
HETATM    2  C   UNK N   1      31.338  16.511   8.479  0.00  0.00     0.001 C 
BRANCH   2   3
HETATM    3  C   UNK N   1      30.901  17.951   8.400  0.00  0.00     0.010 C 
BRANCH   3   4
HETATM    4  C   UNK N   1      29.862  18.279   9.452  0.00  0.00     0.110 C 
BRANCH   4   5
HETATM    5  C   UNK N   1      28.522  18.538   8.824  0.00  0.00     0.139 C 
HETATM    6  O   UNK N   1      28.428  19.161   7.775  0.00  0.00    -0.650 OA
BRANCH   5   7
HETATM    7  O   UNK N   1      27.410  18.078   9.423  0.00  0.00    -0.776 OA
HETATM    8  H   UNK N   1      27.180  18.382  10.278  0.00  0.00     0.167 HD
ENDBRANCH   5   7
ENDBRANCH   4   5
ENDBRANCH   3   4
ENDBRANCH   2   3
ENDBRANCH   1   2
BRANCH   1   9
HETATM    9  C   UNK N   1      33.166  17.622   7.210  0.00  0.00     0.000 C 
BRANCH   9  10
HETATM   10  C   UNK N   1      33.660  17.610   5.785  0.00  0.00     0.000 C 
BRANCH  10  11
HETATM   11  C   UNK N   1      33.352  16.278   5.156  0.00  0.00     0.000 C 
BRANCH  11  12
HETATM   12  C   UNK N   1      33.083  16.485   3.686  0.00  0.00     0.000 C 
BRANCH  12  13
HETATM   13  C   UNK N   1      31.611  16.763   3.507  0.00  0.00     0.000 C 
BRANCH  13  14
HETATM   14  C   UNK N   1      30.805  15.645   4.123  0.00  0.00    -0.000 C 
BRANCH  14  15
HETATM   15  C   UNK N   1      29.623  16.246   4.849  0.00  0.00    -0.005 C 
HETATM   16  C   UNK N   1      29.752  17.752   4.859  0.00  0.00     0.005 C 
ENDBRANCH  14  15
ENDBRANCH  13  14
ENDBRANCH  12  13
ENDBRANCH  11  12
ENDBRANCH  10  11
ENDBRANCH   9  10
ENDBRANCH   1   9
TORSDOF 12
ENDMDL
MODEL 9
REMARK VINA RESULT:      -4.2     23.756     27.596
REMARK  12 active torsions:
REMARK  status: ('A' for Active; 'I' for Inactive)
REMARK    1  A    between atoms: O_1  and  C_3 
REMARK    2  A    between atoms: C_3  and  C_4 
REMARK    3  A    between atoms: C_4  and  C_5 
REMARK    4  A    between atoms: C_5  and  C_6 
REMARK    5  A    between atoms: C_6  and  C_7 
REMARK    6  A    between atoms: C_7  and  C_8 
REMARK    7  A    between atoms: C_8  and  C_9 
REMARK    8  A    between atoms: C_9  and  C_10 
REMARK    9  A    between atoms: C_10  and  C_11 
REMARK   10  A    between atoms: C_11  and  C_12 
REMARK   11  A    between atoms: C_12  and  C_13 
REMARK   12  A    between atoms: C_13  and  C_14 
ROOT
HETATM    1  C   UNK N   1      35.260  12.231  18.313  0.00  0.00     0.000 C 
ENDROOT
BRANCH   1   2
HETATM    2  C   UNK N   1      35.103  13.372  17.340  0.00  0.00     0.001 C 
BRANCH   2   3
HETATM    3  C   UNK N   1      35.569  12.843  16.008  0.00  0.00     0.010 C 
BRANCH   3   4
HETATM    4  C   UNK N   1      36.315  13.897  15.217  0.00  0.00     0.110 C 
BRANCH   4   5
HETATM    5  C   UNK N   1      36.008  13.790  13.751  0.00  0.00     0.139 C 
HETATM    6  O   UNK N   1      34.872  13.552  13.362  0.00  0.00    -0.650 OA
BRANCH   5   7
HETATM    7  O   UNK N   1      36.993  13.957  12.853  0.00  0.00    -0.776 OA
HETATM    8  H   UNK N   1      37.851  13.629  13.035  0.00  0.00     0.167 HD
ENDBRANCH   5   7
ENDBRANCH   4   5
ENDBRANCH   3   4
ENDBRANCH   2   3
ENDBRANCH   1   2
BRANCH   1   9
HETATM    9  C   UNK N   1      35.665  10.964  17.608  0.00  0.00     0.000 C 
BRANCH   9  10
HETATM   10  C   UNK N   1      36.296  10.066  18.643  0.00  0.00     0.000 C 
BRANCH  10  11
HETATM   11  C   UNK N   1      35.853  10.492  20.017  0.00  0.00     0.000 C 
BRANCH  11  12
HETATM   12  C   UNK N   1      35.150   9.335  20.682  0.00  0.00     0.000 C 
BRANCH  12  13
HETATM   13  C   UNK N   1      33.686   9.675  20.806  0.00  0.00     0.000 C 
BRANCH  13  14
HETATM   14  C   UNK N   1      32.875   8.755  19.925  0.00  0.00    -0.000 C 
BRANCH  14  15
HETATM   15  C   UNK N   1      31.421   8.863  20.324  0.00  0.00    -0.005 C 
HETATM   16  C   UNK N   1      30.712   7.569  19.996  0.00  0.00     0.005 C 
ENDBRANCH  14  15
ENDBRANCH  13  14
ENDBRANCH  12  13
ENDBRANCH  11  12
ENDBRANCH  10  11
ENDBRANCH   9  10
ENDBRANCH   1   9
TORSDOF 12
ENDMDL
