MODEL 1
REMARK VINA RESULT:      -7.1      0.000      0.000
REMARK  10 active torsions:
REMARK  status: ('A' for Active; 'I' for Inactive)
REMARK    1  A    between atoms: C_1  and  C_2 
REMARK    2  A    between atoms: C_2  and  C_3 
REMARK    3  A    between atoms: C_3  and  C_4 
REMARK    4  A    between atoms: C_3  and  N_20 
REMARK    5  A    between atoms: C_7  and  C_8 
REMARK       I    between atoms: C_7  and  N_20 
REMARK    6  A    between atoms: C_8  and  N_21 
REMARK    7  A    between atoms: C_10  and  N_24 
REMARK    8  A    between atoms: C_12  and  C_13 
REMARK    9  A    between atoms: C_16  and  N_25 
REMARK   10  A    between atoms: N_24  and  S_34 
ROOT
HETATM    1  C   UNK N   1      35.225  16.167   9.960  0.00  0.00     0.278 A 
HETATM    2  C   UNK N   1      36.136  15.159  10.319  0.00  0.00     0.126 A 
HETATM    3  C   UNK N   1      36.400  14.157   9.405  0.00  0.00     0.125 A 
HETATM    4  C   UNK N   1      34.849  15.082   7.857  0.00  0.00     0.121 A 
HETATM    5  N   UNK N   1      34.576  16.121   8.731  0.00  0.00    -0.289 N 
HETATM    6  N   UNK N   1      35.760  14.135   8.216  0.00  0.00    -0.349 N 
ATOM      7  HN  UNK N   1      35.968  13.381   7.561  1.00  0.00     0.167 HD
HETATM    8  O   UNK N   1      35.006  17.085  10.733  0.00  0.00    -0.265 OA
ENDROOT
BRANCH   5   9
HETATM    9  C   UNK N   1      33.606  17.179   8.398  0.00  0.00     0.236 C 
BRANCH   9  10
HETATM   10  C   UNK N   1      32.205  16.643   8.309  0.00  0.00     0.236 C 
HETATM   11  N   UNK N   1      31.381  17.129   7.345  0.00  0.00    -0.348 N 
HETATM   12  H   UNK N   1      31.777  17.717   6.662  0.00  0.00     0.163 HD
HETATM   13  O   UNK N   1      31.805  15.832   9.131  0.00  0.00    -0.272 OA
BRANCH  11  14
HETATM   14  C   UNK N   1      29.956  16.848   7.245  0.00  0.00     0.167 C 
BRANCH  14  15
HETATM   15  C   UNK N   1      29.176  17.989   7.876  0.00  0.00     0.255 C 
HETATM   16  O   UNK N   1      28.751  18.896   7.174  0.00  0.00    -0.286 OA
BRANCH  15  17
HETATM   17  C   UNK N   1      28.901  18.034   9.355  0.00  0.00     0.453 C 
HETATM   18  F   UNK N   1      27.584  18.409   9.557  0.00  0.00    -0.163 F 
HETATM   19  F   UNK N   1      29.731  18.967   9.949  0.00  0.00    -0.163 F 
HETATM   20  F   UNK N   1      29.113  16.805   9.950  0.00  0.00    -0.163 F 
ENDBRANCH  15  17
ENDBRANCH  14  15
BRANCH  14  21
HETATM   21  C   UNK N   1      29.544  16.675   5.772  0.00  0.00     0.008 C 
HETATM   22  C   UNK N   1      29.298  15.220   5.420  0.00  0.00     0.012 C 
HETATM   23  C   UNK N   1      30.555  17.274   4.805  0.00  0.00     0.012 C 
ENDBRANCH  14  21
ENDBRANCH  11  14
ENDBRANCH   9  10
ENDBRANCH   5   9
BRANCH   4  24
HETATM   24  C   UNK N   1      34.193  14.913   6.520  0.00  0.00     0.008 A 
HETATM   25  C   UNK N   1      33.267  13.866   6.357  0.00  0.00     0.017 A 
HETATM   26  C   UNK N   1      32.604  13.674   5.144  0.00  0.00     0.030 A 
HETATM   27  C   UNK N   1      32.863  14.521   4.067  0.00  0.00     0.025 A 
HETATM   28  C   UNK N   1      33.788  15.559   4.205  0.00  0.00     0.030 A 
HETATM   29  C   UNK N   1      34.445  15.755   5.424  0.00  0.00     0.017 A 
BRANCH  27  30
HETATM   30  N   UNK N   1      32.191  14.332   2.845  0.00  0.00    -0.399 N 
HETATM   31  H   UNK N   1      32.385  14.916   2.076  0.00  0.00     0.156 HD
HETATM   32  H   UNK N   1      31.524  13.613   2.758  0.00  0.00     0.156 HD
ENDBRANCH  27  30
ENDBRANCH   4  24
BRANCH   2  33
HETATM   33  N   UNK N   1      36.776  15.097  11.587  0.00  0.00    -0.278 N 
HETATM   34  H   UNK N   1      37.499  15.739  11.773  0.00  0.00     0.179 HD
BRANCH  33  35
HETATM   35  S   UNK N   1      36.352  13.942  12.844  0.00  0.00     0.227 S 
HETATM   36  C   UNK N   1      37.072  12.278  12.797  0.00  0.00     0.186 C 
HETATM   37  O   UNK N   1      36.605  14.685  14.165  0.00  0.00    -0.206 OA
HETATM   38  O   UNK N   1      34.817  13.912  12.809  0.00  0.00    -0.206 OA
ENDBRANCH  33  35
ENDBRANCH   2  33
TORSDOF 10
ENDMDL
MODEL 2
REMARK VINA RESULT:      -6.8      4.559      7.744
REMARK  10 active torsions:
REMARK  status: ('A' for Active; 'I' for Inactive)
REMARK    1  A    between atoms: C_1  and  C_2 
REMARK    2  A    between atoms: C_2  and  C_3 
REMARK    3  A    between atoms: C_3  and  C_4 
REMARK    4  A    between atoms: C_3  and  N_20 
REMARK    5  A    between atoms: C_7  and  C_8 
REMARK       I    between atoms: C_7  and  N_20 
REMARK    6  A    between atoms: C_8  and  N_21 
REMARK    7  A    between atoms: C_10  and  N_24 
REMARK    8  A    between atoms: C_12  and  C_13 
REMARK    9  A    between atoms: C_16  and  N_25 
REMARK   10  A    between atoms: N_24  and  S_34 
ROOT
HETATM    1  C   UNK N   1      35.076  14.512   9.573  0.00  0.00     0.278 A 
HETATM    2  C   UNK N   1      33.974  15.380   9.498  0.00  0.00     0.126 A 
HETATM    3  C   UNK N   1      32.716  14.830   9.343  0.00  0.00     0.125 A 
HETATM    4  C   UNK N   1      33.622  12.633   9.263  0.00  0.00     0.121 A 
HETATM    5  N   UNK N   1      34.898  13.138   9.446  0.00  0.00    -0.289 N 
HETATM    6  N   UNK N   1      32.566  13.493   9.227  0.00  0.00    -0.349 N 
ATOM      7  HN  UNK N   1      31.627  13.113   9.106  1.00  0.00     0.167 HD
HETATM    8  O   UNK N   1      36.193  14.969   9.751  0.00  0.00    -0.265 OA
ENDROOT
BRANCH   5   9
HETATM    9  C   UNK N   1      36.079  12.258   9.502  0.00  0.00     0.236 C 
BRANCH   9  10
HETATM   10  C   UNK N   1      36.550  12.046  10.913  0.00  0.00     0.236 C 
HETATM   11  N   UNK N   1      35.647  11.652  11.848  0.00  0.00    -0.348 N 
HETATM   12  H   UNK N   1      34.750  11.396  11.536  0.00  0.00     0.163 HD
HETATM   13  O   UNK N   1      37.709  12.285  11.215  0.00  0.00    -0.272 OA
BRANCH  11  14
HETATM   14  C   UNK N   1      35.905  11.582  13.280  0.00  0.00     0.167 C 
BRANCH  14  15
HETATM   15  C   UNK N   1      35.487  12.890  13.928  0.00  0.00     0.255 C 
HETATM   16  O   UNK N   1      34.818  13.696  13.295  0.00  0.00    -0.286 OA
BRANCH  15  17
HETATM   17  C   UNK N   1      35.868  13.227  15.345  0.00  0.00     0.453 C 
HETATM   18  F   UNK N   1      34.718  13.356  16.103  0.00  0.00    -0.163 F 
HETATM   19  F   UNK N   1      36.556  14.427  15.362  0.00  0.00    -0.163 F 
HETATM   20  F   UNK N   1      36.666  12.247  15.904  0.00  0.00    -0.163 F 
ENDBRANCH  15  17
ENDBRANCH  14  15
BRANCH  14  21
HETATM   21  C   UNK N   1      35.133  10.408  13.908  0.00  0.00     0.008 C 
HETATM   22  C   UNK N   1      35.343   9.116  13.140  0.00  0.00     0.012 C 
HETATM   23  C   UNK N   1      33.644  10.689  14.044  0.00  0.00     0.012 C 
ENDBRANCH  14  21
ENDBRANCH  11  14
ENDBRANCH   9  10
ENDBRANCH   5   9
BRANCH   4  24
HETATM   24  C   UNK N   1      33.310  11.177   9.088  0.00  0.00     0.008 A 
HETATM   25  C   UNK N   1      33.393  10.627   7.796  0.00  0.00     0.017 A 
HETATM   26  C   UNK N   1      33.140   9.272   7.573  0.00  0.00     0.030 A 
HETATM   27  C   UNK N   1      32.790   8.445   8.639  0.00  0.00     0.025 A 
HETATM   28  C   UNK N   1      32.691   8.974   9.928  0.00  0.00     0.030 A 
HETATM   29  C   UNK N   1      32.952  10.330  10.150  0.00  0.00     0.017 A 
BRANCH  27  30
HETATM   30  N   UNK N   1      32.541   7.078   8.417  0.00  0.00    -0.399 N 
HETATM   31  H   UNK N   1      32.564   6.440   9.166  0.00  0.00     0.156 HD
HETATM   32  H   UNK N   1      32.343   6.756   7.507  0.00  0.00     0.156 HD
ENDBRANCH  27  30
ENDBRANCH   4  24
BRANCH   2  33
HETATM   33  N   UNK N   1      34.089  16.796   9.540  0.00  0.00    -0.278 N 
HETATM   34  H   UNK N   1      34.265  17.221  10.410  0.00  0.00     0.179 HD
BRANCH  33  35
HETATM   35  S   UNK N   1      33.935  17.834   8.128  0.00  0.00     0.227 S 
HETATM   36  C   UNK N   1      34.118  17.112   6.474  0.00  0.00     0.186 C 
HETATM   37  O   UNK N   1      32.607  18.580   8.329  0.00  0.00    -0.206 OA
HETATM   38  O   UNK N   1      34.950  18.956   8.387  0.00  0.00    -0.206 OA
ENDBRANCH  33  35
ENDBRANCH   2  33
TORSDOF 10
ENDMDL
MODEL 3
REMARK VINA RESULT:      -6.7      2.628      3.709
REMARK  10 active torsions:
REMARK  status: ('A' for Active; 'I' for Inactive)
REMARK    1  A    between atoms: C_1  and  C_2 
REMARK    2  A    between atoms: C_2  and  C_3 
REMARK    3  A    between atoms: C_3  and  C_4 
REMARK    4  A    between atoms: C_3  and  N_20 
REMARK    5  A    between atoms: C_7  and  C_8 
REMARK       I    between atoms: C_7  and  N_20 
REMARK    6  A    between atoms: C_8  and  N_21 
REMARK    7  A    between atoms: C_10  and  N_24 
REMARK    8  A    between atoms: C_12  and  C_13 
REMARK    9  A    between atoms: C_16  and  N_25 
REMARK   10  A    between atoms: N_24  and  S_34 
ROOT
HETATM    1  C   UNK N   1      32.442  16.374   8.284  0.00  0.00     0.278 A 
HETATM    2  C   UNK N   1      32.935  15.317   9.067  0.00  0.00     0.126 A 
HETATM    3  C   UNK N   1      32.836  14.032   8.570  0.00  0.00     0.125 A 
HETATM    4  C   UNK N   1      31.724  14.810   6.618  0.00  0.00     0.121 A 
HETATM    5  N   UNK N   1      31.828  16.117   7.063  0.00  0.00    -0.289 N 
HETATM    6  N   UNK N   1      32.240  13.806   7.380  0.00  0.00    -0.349 N 
ATOM      7  HN  UNK N   1      32.172  12.846   7.040  1.00  0.00     0.167 HD
HETATM    8  O   UNK N   1      32.555  17.522   8.681  0.00  0.00    -0.265 OA
ENDROOT
BRANCH   5   9
HETATM    9  C   UNK N   1      31.297  17.247   6.281  0.00  0.00     0.236 C 
BRANCH   9  10
HETATM   10  C   UNK N   1      29.831  17.461   6.535  0.00  0.00     0.236 C 
HETATM   11  N   UNK N   1      29.041  17.848   5.501  0.00  0.00    -0.348 N 
HETATM   12  H   UNK N   1      29.436  17.845   4.600  0.00  0.00     0.163 HD
HETATM   13  O   UNK N   1      29.382  17.346   7.665  0.00  0.00    -0.272 OA
BRANCH  11  14
HETATM   14  C   UNK N   1      27.652  18.269   5.624  0.00  0.00     0.167 C 
BRANCH  14  15
HETATM   15  C   UNK N   1      27.550  19.752   5.312  0.00  0.00     0.255 C 
HETATM   16  O   UNK N   1      27.739  20.148   4.170  0.00  0.00    -0.286 OA
BRANCH  15  17
HETATM   17  C   UNK N   1      27.211  20.761   6.376  0.00  0.00     0.453 C 
HETATM   18  F   UNK N   1      27.200  20.132   7.608  0.00  0.00    -0.163 F 
HETATM   19  F   UNK N   1      25.958  21.288   6.128  0.00  0.00    -0.163 F 
HETATM   20  F   UNK N   1      28.131  21.794   6.409  0.00  0.00    -0.163 F 
ENDBRANCH  15  17
ENDBRANCH  14  15
BRANCH  14  21
HETATM   21  C   UNK N   1      26.759  17.463   4.665  0.00  0.00     0.008 C 
HETATM   22  C   UNK N   1      25.993  16.370   5.388  0.00  0.00     0.012 C 
HETATM   23  C   UNK N   1      27.536  16.862   3.502  0.00  0.00     0.012 C 
ENDBRANCH  14  21
ENDBRANCH  11  14
ENDBRANCH   9  10
ENDBRANCH   5   9
BRANCH   4  24
HETATM   24  C   UNK N   1      31.062  14.408   5.334  0.00  0.00     0.008 A 
HETATM   25  C   UNK N   1      31.856  14.298   4.178  0.00  0.00     0.017 A 
HETATM   26  C   UNK N   1      31.302  13.904   2.959  0.00  0.00     0.030 A 
HETATM   27  C   UNK N   1      29.940  13.620   2.873  0.00  0.00     0.025 A 
HETATM   28  C   UNK N   1      29.132  13.734   4.007  0.00  0.00     0.030 A 
HETATM   29  C   UNK N   1      29.690  14.122   5.229  0.00  0.00     0.017 A 
BRANCH  27  30
HETATM   30  N   UNK N   1      29.380  13.216   1.646  0.00  0.00    -0.399 N 
HETATM   31  H   UNK N   1      29.005  13.883   1.028  0.00  0.00     0.156 HD
HETATM   32  H   UNK N   1      29.364  12.261   1.405  0.00  0.00     0.156 HD
ENDBRANCH  27  30
ENDBRANCH   4  24
BRANCH   2  33
HETATM   33  N   UNK N   1      33.502  15.497  10.358  0.00  0.00    -0.278 N 
HETATM   34  H   UNK N   1      32.898  15.496  11.134  0.00  0.00     0.179 HD
BRANCH  33  35
HETATM   35  S   UNK N   1      35.223  15.720  10.650  0.00  0.00     0.227 S 
HETATM   36  C   UNK N   1      35.941  15.127  12.206  0.00  0.00     0.186 C 
HETATM   37  O   UNK N   1      35.913  15.155   9.399  0.00  0.00    -0.206 OA
HETATM   38  O   UNK N   1      35.434  17.228  10.451  0.00  0.00    -0.206 OA
ENDBRANCH  33  35
ENDBRANCH   2  33
TORSDOF 10
ENDMDL
MODEL 4
REMARK VINA RESULT:      -6.7      7.209     11.123
REMARK  10 active torsions:
REMARK  status: ('A' for Active; 'I' for Inactive)
REMARK    1  A    between atoms: C_1  and  C_2 
REMARK    2  A    between atoms: C_2  and  C_3 
REMARK    3  A    between atoms: C_3  and  C_4 
REMARK    4  A    between atoms: C_3  and  N_20 
REMARK    5  A    between atoms: C_7  and  C_8 
REMARK       I    between atoms: C_7  and  N_20 
REMARK    6  A    between atoms: C_8  and  N_21 
REMARK    7  A    between atoms: C_10  and  N_24 
REMARK    8  A    between atoms: C_12  and  C_13 
REMARK    9  A    between atoms: C_16  and  N_25 
REMARK   10  A    between atoms: N_24  and  S_34 
ROOT
HETATM    1  C   UNK N   1      24.461  17.911   4.079  0.00  0.00     0.278 A 
HETATM    2  C   UNK N   1      23.257  18.617   4.234  0.00  0.00     0.126 A 
HETATM    3  C   UNK N   1      22.366  18.190   5.200  0.00  0.00     0.125 A 
HETATM    4  C   UNK N   1      23.784  16.374   5.788  0.00  0.00     0.121 A 
HETATM    5  N   UNK N   1      24.719  16.783   4.852  0.00  0.00    -0.289 N 
HETATM    6  N   UNK N   1      22.639  17.095   5.941  0.00  0.00    -0.349 N 
ATOM      7  HN  UNK N   1      21.961  16.796   6.642  1.00  0.00     0.167 HD
HETATM    8  O   UNK N   1      25.283  18.292   3.262  0.00  0.00    -0.265 OA
ENDROOT
BRANCH   5   9
HETATM    9  C   UNK N   1      25.980  16.050   4.644  0.00  0.00     0.236 C 
BRANCH   9  10
HETATM   10  C   UNK N   1      27.173  16.864   5.061  0.00  0.00     0.236 C 
HETATM   11  N   UNK N   1      27.110  17.564   6.223  0.00  0.00    -0.348 N 
HETATM   12  H   UNK N   1      26.336  17.404   6.808  0.00  0.00     0.163 HD
HETATM   13  O   UNK N   1      28.150  16.936   4.331  0.00  0.00    -0.272 OA
BRANCH  11  14
HETATM   14  C   UNK N   1      28.101  18.533   6.668  0.00  0.00     0.167 C 
BRANCH  14  15
HETATM   15  C   UNK N   1      27.457  19.906   6.745  0.00  0.00     0.255 C 
HETATM   16  O   UNK N   1      27.066  20.335   7.822  0.00  0.00    -0.286 OA
BRANCH  15  17
HETATM   17  C   UNK N   1      27.290  20.770   5.524  0.00  0.00     0.453 C 
HETATM   18  F   UNK N   1      27.566  22.084   5.858  0.00  0.00    -0.163 F 
HETATM   19  F   UNK N   1      25.984  20.685   5.076  0.00  0.00    -0.163 F 
HETATM   20  F   UNK N   1      28.137  20.379   4.504  0.00  0.00    -0.163 F 
ENDBRANCH  15  17
ENDBRANCH  14  15
BRANCH  14  21
HETATM   21  C   UNK N   1      28.664  18.133   8.043  0.00  0.00     0.008 C 
HETATM   22  C   UNK N   1      30.068  17.566   7.937  0.00  0.00     0.012 C 
HETATM   23  C   UNK N   1      27.767  17.152   8.783  0.00  0.00     0.012 C 
ENDBRANCH  14  21
ENDBRANCH  11  14
ENDBRANCH   9  10
ENDBRANCH   5   9
BRANCH   4  24
HETATM   24  C   UNK N   1      23.938  15.162   6.657  0.00  0.00     0.008 A 
HETATM   25  C   UNK N   1      22.830  14.310   6.819  0.00  0.00     0.017 A 
HETATM   26  C   UNK N   1      22.919  13.153   7.594  0.00  0.00     0.030 A 
HETATM   27  C   UNK N   1      24.118  12.832   8.229  0.00  0.00     0.025 A 
HETATM   28  C   UNK N   1      25.227  13.671   8.091  0.00  0.00     0.030 A 
HETATM   29  C   UNK N   1      25.137  14.825   7.307  0.00  0.00     0.017 A 
BRANCH  27  30
HETATM   30  N   UNK N   1      24.211  11.662   9.007  0.00  0.00    -0.399 N 
HETATM   31  H   UNK N   1      23.398  11.235   9.361  0.00  0.00     0.156 HD
HETATM   32  H   UNK N   1      25.094  11.269   9.199  0.00  0.00     0.156 HD
ENDBRANCH  27  30
ENDBRANCH   4  24
BRANCH   2  33
HETATM   33  N   UNK N   1      22.891  19.729   3.427  0.00  0.00    -0.278 N 
HETATM   34  H   UNK N   1      23.549  20.451   3.308  0.00  0.00     0.179 HD
BRANCH  33  35
HETATM   35  S   UNK N   1      21.332  19.890   2.628  0.00  0.00     0.227 S 
HETATM   36  C   UNK N   1      20.409  18.395   2.179  0.00  0.00     0.186 C 
HETATM   37  O   UNK N   1      20.535  20.863   3.510  0.00  0.00    -0.206 OA
HETATM   38  O   UNK N   1      21.636  20.773   1.409  0.00  0.00    -0.206 OA
ENDBRANCH  33  35
ENDBRANCH   2  33
TORSDOF 10
ENDMDL
MODEL 5
REMARK VINA RESULT:      -6.7      8.175     11.757
REMARK  10 active torsions:
REMARK  status: ('A' for Active; 'I' for Inactive)
REMARK    1  A    between atoms: C_1  and  C_2 
REMARK    2  A    between atoms: C_2  and  C_3 
REMARK    3  A    between atoms: C_3  and  C_4 
REMARK    4  A    between atoms: C_3  and  N_20 
REMARK    5  A    between atoms: C_7  and  C_8 
REMARK       I    between atoms: C_7  and  N_20 
REMARK    6  A    between atoms: C_8  and  N_21 
REMARK    7  A    between atoms: C_10  and  N_24 
REMARK    8  A    between atoms: C_12  and  C_13 
REMARK    9  A    between atoms: C_16  and  N_25 
REMARK   10  A    between atoms: N_24  and  S_34 
ROOT
HETATM    1  C   UNK N   1      22.604  15.272   5.962  0.00  0.00     0.278 A 
HETATM    2  C   UNK N   1      21.959  15.578   7.173  0.00  0.00     0.126 A 
HETATM    3  C   UNK N   1      21.126  16.679   7.211  0.00  0.00     0.125 A 
HETATM    4  C   UNK N   1      21.614  17.202   4.944  0.00  0.00     0.121 A 
HETATM    5  N   UNK N   1      22.437  16.092   4.851  0.00  0.00    -0.289 N 
HETATM    6  N   UNK N   1      20.975  17.458   6.119  0.00  0.00    -0.349 N 
ATOM      7  HN  UNK N   1      20.359  18.269   6.176  1.00  0.00     0.167 HD
HETATM    8  O   UNK N   1      23.313  14.282   5.890  0.00  0.00    -0.265 OA
ENDROOT
BRANCH   5   9
HETATM    9  C   UNK N   1      23.150  15.757   3.606  0.00  0.00     0.236 C 
BRANCH   9  10
HETATM   10  C   UNK N   1      24.587  16.192   3.652  0.00  0.00     0.236 C 
HETATM   11  N   UNK N   1      25.012  16.924   4.714  0.00  0.00    -0.348 N 
HETATM   12  H   UNK N   1      24.394  17.027   5.472  0.00  0.00     0.163 HD
HETATM   13  O   UNK N   1      25.335  15.940   2.719  0.00  0.00    -0.272 OA
BRANCH  11  14
HETATM   14  C   UNK N   1      26.313  17.570   4.816  0.00  0.00     0.167 C 
BRANCH  14  15
HETATM   15  C   UNK N   1      26.122  19.076   4.857  0.00  0.00     0.255 C 
HETATM   16  O   UNK N   1      26.145  19.663   5.930  0.00  0.00    -0.286 OA
BRANCH  15  17
HETATM   17  C   UNK N   1      25.910  19.880   3.602  0.00  0.00     0.453 C 
HETATM   18  F   UNK N   1      27.123  20.399   3.188  0.00  0.00    -0.163 F 
HETATM   19  F   UNK N   1      25.040  20.922   3.866  0.00  0.00    -0.163 F 
HETATM   20  F   UNK N   1      25.383  19.105   2.585  0.00  0.00    -0.163 F 
ENDBRANCH  15  17
ENDBRANCH  14  15
BRANCH  14  21
HETATM   21  C   UNK N   1      27.052  17.094   6.080  0.00  0.00     0.008 C 
HETATM   22  C   UNK N   1      28.552  17.023   5.865  0.00  0.00     0.012 C 
HETATM   23  C   UNK N   1      26.541  15.755   6.591  0.00  0.00     0.012 C 
ENDBRANCH  14  21
ENDBRANCH  11  14
ENDBRANCH   9  10
ENDBRANCH   5   9
BRANCH   4  24
HETATM   24  C   UNK N   1      21.378  18.170   3.824  0.00  0.00     0.008 A 
HETATM   25  C   UNK N   1      20.315  17.920   2.937  0.00  0.00     0.017 A 
HETATM   26  C   UNK N   1      20.030  18.799   1.890  0.00  0.00     0.030 A 
HETATM   27  C   UNK N   1      20.809  19.940   1.707  0.00  0.00     0.025 A 
HETATM   28  C   UNK N   1      21.877  20.200   2.570  0.00  0.00     0.030 A 
HETATM   29  C   UNK N   1      22.156  19.323   3.623  0.00  0.00     0.017 A 
BRANCH  27  30
HETATM   30  N   UNK N   1      20.519  20.830   0.656  0.00  0.00    -0.399 N 
HETATM   31  H   UNK N   1      20.489  20.507  -0.274  0.00  0.00     0.156 HD
HETATM   32  H   UNK N   1      20.345  21.780   0.851  0.00  0.00     0.156 HD
ENDBRANCH  27  30
ENDBRANCH   4  24
BRANCH   2  33
HETATM   33  N   UNK N   1      22.145  14.833   8.369  0.00  0.00    -0.278 N 
HETATM   34  H   UNK N   1      22.924  15.045   8.931  0.00  0.00     0.179 HD
BRANCH  33  35
HETATM   35  S   UNK N   1      21.063  13.554   8.905  0.00  0.00     0.227 S 
HETATM   36  C   UNK N   1      21.596  12.441  10.233  0.00  0.00     0.186 C 
HETATM   37  O   UNK N   1      19.729  14.260   9.193  0.00  0.00    -0.206 OA
HETATM   38  O   UNK N   1      20.726  12.795   7.613  0.00  0.00    -0.206 OA
ENDBRANCH  33  35
ENDBRANCH   2  33
TORSDOF 10
ENDMDL
MODEL 6
REMARK VINA RESULT:      -6.6      4.341      7.308
REMARK  10 active torsions:
REMARK  status: ('A' for Active; 'I' for Inactive)
REMARK    1  A    between atoms: C_1  and  C_2 
REMARK    2  A    between atoms: C_2  and  C_3 
REMARK    3  A    between atoms: C_3  and  C_4 
REMARK    4  A    between atoms: C_3  and  N_20 
REMARK    5  A    between atoms: C_7  and  C_8 
REMARK       I    between atoms: C_7  and  N_20 
REMARK    6  A    between atoms: C_8  and  N_21 
REMARK    7  A    between atoms: C_10  and  N_24 
REMARK    8  A    between atoms: C_12  and  C_13 
REMARK    9  A    between atoms: C_16  and  N_25 
REMARK   10  A    between atoms: N_24  and  S_34 
ROOT
HETATM    1  C   UNK N   1      37.353  13.751   9.587  0.00  0.00     0.278 A 
HETATM    2  C   UNK N   1      37.598  13.040   8.400  0.00  0.00     0.126 A 
HETATM    3  C   UNK N   1      36.796  13.298   7.305  0.00  0.00     0.125 A 
HETATM    4  C   UNK N   1      35.502  14.859   8.545  0.00  0.00     0.121 A 
HETATM    5  N   UNK N   1      36.298  14.655   9.660  0.00  0.00    -0.289 N 
HETATM    6  N   UNK N   1      35.780  14.182   7.397  0.00  0.00    -0.349 N 
ATOM      7  HN  UNK N   1      35.199  14.349   6.575  1.00  0.00     0.167 HD
HETATM    8  O   UNK N   1      38.072  13.572  10.556  0.00  0.00    -0.265 OA
ENDROOT
BRANCH   5   9
HETATM    9  C   UNK N   1      36.052  15.362  10.928  0.00  0.00     0.236 C 
BRANCH   9  10
HETATM   10  C   UNK N   1      35.200  14.551  11.863  0.00  0.00     0.236 C 
HETATM   11  N   UNK N   1      35.812  13.800  12.816  0.00  0.00    -0.348 N 
HETATM   12  H   UNK N   1      36.780  13.921  12.938  0.00  0.00     0.163 HD
HETATM   13  O   UNK N   1      33.987  14.527  11.722  0.00  0.00    -0.272 OA
BRANCH  11  14
HETATM   14  C   UNK N   1      35.142  12.828  13.669  0.00  0.00     0.167 C 
BRANCH  14  15
HETATM   15  C   UNK N   1      35.267  11.448  13.049  0.00  0.00     0.255 C 
HETATM   16  O   UNK N   1      36.273  11.154  12.417  0.00  0.00    -0.286 OA
BRANCH  15  17
HETATM   17  C   UNK N   1      34.181  10.416  13.193  0.00  0.00     0.453 C 
HETATM   18  F   UNK N   1      33.467  10.343  12.011  0.00  0.00    -0.163 F 
HETATM   19  F   UNK N   1      33.326  10.789  14.214  0.00  0.00    -0.163 F 
HETATM   20  F   UNK N   1      34.702   9.168  13.482  0.00  0.00    -0.163 F 
ENDBRANCH  15  17
ENDBRANCH  14  15
BRANCH  14  21
HETATM   21  C   UNK N   1      35.761  12.834  15.078  0.00  0.00     0.008 C 
HETATM   22  C   UNK N   1      34.711  13.018  16.158  0.00  0.00     0.012 C 
HETATM   23  C   UNK N   1      36.851  13.884  15.237  0.00  0.00     0.012 C 
ENDBRANCH  14  21
ENDBRANCH  11  14
ENDBRANCH   9  10
ENDBRANCH   5   9
BRANCH   4  24
HETATM   24  C   UNK N   1      34.324  15.786   8.512  0.00  0.00     0.008 A 
HETATM   25  C   UNK N   1      33.038  15.238   8.675  0.00  0.00     0.017 A 
HETATM   26  C   UNK N   1      31.904  16.051   8.679  0.00  0.00     0.030 A 
HETATM   27  C   UNK N   1      32.035  17.429   8.511  0.00  0.00     0.025 A 
HETATM   28  C   UNK N   1      33.302  17.992   8.336  0.00  0.00     0.030 A 
HETATM   29  C   UNK N   1      34.437  17.175   8.340  0.00  0.00     0.017 A 
BRANCH  27  30
HETATM   30  N   UNK N   1      30.893  18.252   8.521  0.00  0.00    -0.399 N 
HETATM   31  H   UNK N   1      30.981  19.223   8.658  0.00  0.00     0.156 HD
HETATM   32  H   UNK N   1      30.001  17.854   8.392  0.00  0.00     0.156 HD
ENDBRANCH  27  30
ENDBRANCH   4  24
BRANCH   2  33
HETATM   33  N   UNK N   1      38.606  12.045   8.277  0.00  0.00    -0.278 N 
HETATM   34  H   UNK N   1      38.421  11.150   8.641  0.00  0.00     0.179 HD
BRANCH  33  35
HETATM   35  S   UNK N   1      40.165  12.320   7.509  0.00  0.00     0.227 S 
HETATM   36  C   UNK N   1      40.525  13.948   6.794  0.00  0.00     0.186 C 
HETATM   37  O   UNK N   1      41.202  11.861   8.546  0.00  0.00    -0.206 OA
HETATM   38  O   UNK N   1      40.264  11.195   6.469  0.00  0.00    -0.206 OA
ENDBRANCH  33  35
ENDBRANCH   2  33
TORSDOF 10
ENDMDL
MODEL 7
REMARK VINA RESULT:      -6.6      8.320     11.983
REMARK  10 active torsions:
REMARK  status: ('A' for Active; 'I' for Inactive)
REMARK    1  A    between atoms: C_1  and  C_2 
REMARK    2  A    between atoms: C_2  and  C_3 
REMARK    3  A    between atoms: C_3  and  C_4 
REMARK    4  A    between atoms: C_3  and  N_20 
REMARK    5  A    between atoms: C_7  and  C_8 
REMARK       I    between atoms: C_7  and  N_20 
REMARK    6  A    between atoms: C_8  and  N_21 
REMARK    7  A    between atoms: C_10  and  N_24 
REMARK    8  A    between atoms: C_12  and  C_13 
REMARK    9  A    between atoms: C_16  and  N_25 
REMARK   10  A    between atoms: N_24  and  S_34 
ROOT
HETATM    1  C   UNK N   1      21.921  15.059   5.562  0.00  0.00     0.278 A 
HETATM    2  C   UNK N   1      20.730  14.833   6.272  0.00  0.00     0.126 A 
HETATM    3  C   UNK N   1      19.618  15.584   5.943  0.00  0.00     0.125 A 
HETATM    4  C   UNK N   1      20.848  16.797   4.310  0.00  0.00     0.121 A 
HETATM    5  N   UNK N   1      21.980  16.049   4.587  0.00  0.00    -0.289 N 
HETATM    6  N   UNK N   1      19.697  16.537   4.990  0.00  0.00    -0.349 N 
ATOM      7  HN  UNK N   1      18.864  17.082   4.771  1.00  0.00     0.167 HD
HETATM    8  O   UNK N   1      22.906  14.381   5.805  0.00  0.00    -0.265 OA
ENDROOT
BRANCH   5   9
HETATM    9  C   UNK N   1      23.253  16.278   3.881  0.00  0.00     0.236 C 
BRANCH   9  10
HETATM   10  C   UNK N   1      24.105  17.296   4.585  0.00  0.00     0.236 C 
HETATM   11  N   UNK N   1      25.350  17.549   4.102  0.00  0.00    -0.348 N 
HETATM   12  H   UNK N   1      25.591  17.152   3.236  0.00  0.00     0.163 HD
HETATM   13  O   UNK N   1      23.701  17.834   5.605  0.00  0.00    -0.272 OA
BRANCH  11  14
HETATM   14  C   UNK N   1      26.354  18.364   4.772  0.00  0.00     0.167 C 
BRANCH  14  15
HETATM   15  C   UNK N   1      27.617  17.543   4.962  0.00  0.00     0.255 C 
HETATM   16  O   UNK N   1      28.232  17.137   3.985  0.00  0.00    -0.286 OA
BRANCH  15  17
HETATM   17  C   UNK N   1      28.147  17.216   6.332  0.00  0.00     0.453 C 
HETATM   18  F   UNK N   1      27.126  16.677   7.094  0.00  0.00    -0.163 F 
HETATM   19  F   UNK N   1      28.600  18.373   6.939  0.00  0.00    -0.163 F 
HETATM   20  F   UNK N   1      29.189  16.308   6.271  0.00  0.00    -0.163 F 
ENDBRANCH  15  17
ENDBRANCH  14  15
BRANCH  14  21
HETATM   21  C   UNK N   1      26.661  19.625   3.945  0.00  0.00     0.008 C 
HETATM   22  C   UNK N   1      27.092  20.786   4.822  0.00  0.00     0.012 C 
HETATM   23  C   UNK N   1      25.494  20.051   3.066  0.00  0.00     0.012 C 
ENDBRANCH  14  21
ENDBRANCH  11  14
ENDBRANCH   9  10
ENDBRANCH   5   9
BRANCH   4  24
HETATM   24  C   UNK N   1      20.799  17.906   3.302  0.00  0.00     0.008 A 
HETATM   25  C   UNK N   1      20.388  17.600   1.992  0.00  0.00     0.017 A 
HETATM   26  C   UNK N   1      20.296  18.594   1.016  0.00  0.00     0.030 A 
HETATM   27  C   UNK N   1      20.623  19.912   1.331  0.00  0.00     0.025 A 
HETATM   28  C   UNK N   1      21.045  20.234   2.624  0.00  0.00     0.030 A 
HETATM   29  C   UNK N   1      21.129  19.238   3.602  0.00  0.00     0.017 A 
BRANCH  27  30
HETATM   30  N   UNK N   1      20.526  20.916   0.350  0.00  0.00    -0.399 N 
HETATM   31  H   UNK N   1      19.902  21.668   0.468  0.00  0.00     0.156 HD
HETATM   32  H   UNK N   1      21.084  20.866  -0.460  0.00  0.00     0.156 HD
ENDBRANCH  27  30
ENDBRANCH   4  24
BRANCH   2  33
HETATM   33  N   UNK N   1      20.617  13.895   7.335  0.00  0.00    -0.278 N 
HETATM   34  H   UNK N   1      20.415  12.959   7.107  0.00  0.00     0.179 HD
BRANCH  33  35
HETATM   35  S   UNK N   1      20.819  14.308   9.032  0.00  0.00     0.227 S 
HETATM   36  C   UNK N   1      22.036  13.402  10.026  0.00  0.00     0.186 C 
HETATM   37  O   UNK N   1      21.025  15.831   9.046  0.00  0.00    -0.206 OA
HETATM   38  O   UNK N   1      19.400  14.194   9.607  0.00  0.00    -0.206 OA
ENDBRANCH  33  35
ENDBRANCH   2  33
TORSDOF 10
ENDMDL
MODEL 8
REMARK VINA RESULT:      -6.6     14.845     17.957
REMARK  10 active torsions:
REMARK  status: ('A' for Active; 'I' for Inactive)
REMARK    1  A    between atoms: C_1  and  C_2 
REMARK    2  A    between atoms: C_2  and  C_3 
REMARK    3  A    between atoms: C_3  and  C_4 
REMARK    4  A    between atoms: C_3  and  N_20 
REMARK    5  A    between atoms: C_7  and  C_8 
REMARK       I    between atoms: C_7  and  N_20 
REMARK    6  A    between atoms: C_8  and  N_21 
REMARK    7  A    between atoms: C_10  and  N_24 
REMARK    8  A    between atoms: C_12  and  C_13 
REMARK    9  A    between atoms: C_16  and  N_25 
REMARK   10  A    between atoms: N_24  and  S_34 
ROOT
HETATM    1  C   UNK N   1      28.114  26.246  -4.648  0.00  0.00     0.278 A 
HETATM    2  C   UNK N   1      28.766  27.443  -4.306  0.00  0.00     0.126 A 
HETATM    3  C   UNK N   1      30.086  27.378  -3.901  0.00  0.00     0.125 A 
HETATM    4  C   UNK N   1      30.089  25.008  -4.095  0.00  0.00     0.121 A 
HETATM    5  N   UNK N   1      28.776  25.028  -4.533  0.00  0.00    -0.289 N 
HETATM    6  N   UNK N   1      30.709  26.184  -3.801  0.00  0.00    -0.349 N 
ATOM      7  HN  UNK N   1      31.681  26.163  -3.493  1.00  0.00     0.167 HD
HETATM    8  O   UNK N   1      26.962  26.280  -5.048  0.00  0.00    -0.265 OA
ENDROOT
BRANCH   5   9
HETATM    9  C   UNK N   1      28.053  23.790  -4.874  0.00  0.00     0.236 C 
BRANCH   9  10
HETATM   10  C   UNK N   1      27.865  23.645  -6.358  0.00  0.00     0.236 C 
HETATM   11  N   UNK N   1      26.623  23.824  -6.878  0.00  0.00    -0.348 N 
HETATM   12  H   UNK N   1      25.925  24.170  -6.279  0.00  0.00     0.163 HD
HETATM   13  O   UNK N   1      28.805  23.313  -7.065  0.00  0.00    -0.272 OA
BRANCH  11  14
HETATM   14  C   UNK N   1      26.247  23.541  -8.256  0.00  0.00     0.167 C 
BRANCH  14  15
HETATM   15  C   UNK N   1      25.318  22.340  -8.284  0.00  0.00     0.255 C 
HETATM   16  O   UNK N   1      24.122  22.491  -8.077  0.00  0.00    -0.286 OA
BRANCH  15  17
HETATM   17  C   UNK N   1      25.829  20.953  -8.569  0.00  0.00     0.453 C 
HETATM   18  F   UNK N   1      27.196  20.924  -8.362  0.00  0.00    -0.163 F 
HETATM   19  F   UNK N   1      25.567  20.629  -9.888  0.00  0.00    -0.163 F 
HETATM   20  F   UNK N   1      25.230  20.013  -7.751  0.00  0.00    -0.163 F 
ENDBRANCH  15  17
ENDBRANCH  14  15
BRANCH  14  21
HETATM   21  C   UNK N   1      25.554  24.762  -8.885  0.00  0.00     0.008 C 
HETATM   22  C   UNK N   1      25.636  24.742 -10.401  0.00  0.00     0.012 C 
HETATM   23  C   UNK N   1      26.097  26.083  -8.359  0.00  0.00     0.012 C 
ENDBRANCH  14  21
ENDBRANCH  11  14
ENDBRANCH   9  10
ENDBRANCH   5   9
BRANCH   4  24
HETATM   24  C   UNK N   1      30.894  23.757  -3.907  0.00  0.00     0.008 A 
HETATM   25  C   UNK N   1      31.808  23.392  -4.913  0.00  0.00     0.017 A 
HETATM   26  C   UNK N   1      32.604  22.253  -4.784  0.00  0.00     0.030 A 
HETATM   27  C   UNK N   1      32.494  21.453  -3.648  0.00  0.00     0.025 A 
HETATM   28  C   UNK N   1      31.585  21.792  -2.642  0.00  0.00     0.030 A 
HETATM   29  C   UNK N   1      30.794  22.938  -2.771  0.00  0.00     0.017 A 
BRANCH  27  30
HETATM   30  N   UNK N   1      33.301  20.307  -3.513  0.00  0.00    -0.399 N 
HETATM   31  H   UNK N   1      33.967  20.084  -4.203  0.00  0.00     0.156 HD
HETATM   32  H   UNK N   1      33.199  19.725  -2.725  0.00  0.00     0.156 HD
ENDBRANCH  27  30
ENDBRANCH   4  24
BRANCH   2  33
HETATM   33  N   UNK N   1      28.130  28.714  -4.322  0.00  0.00    -0.278 N 
HETATM   34  H   UNK N   1      28.196  29.255  -5.142  0.00  0.00     0.179 HD
BRANCH  33  35
HETATM   35  S   UNK N   1      27.231  29.377  -2.964  0.00  0.00     0.227 S 
HETATM   36  C   UNK N   1      28.135  29.964  -1.505  0.00  0.00     0.186 C 
HETATM   37  O   UNK N   1      26.306  30.438  -3.582  0.00  0.00    -0.206 OA
HETATM   38  O   UNK N   1      26.224  28.271  -2.617  0.00  0.00    -0.206 OA
ENDBRANCH  33  35
ENDBRANCH   2  33
TORSDOF 10
ENDMDL
MODEL 9
REMARK VINA RESULT:      -6.6     15.013     18.964
REMARK  10 active torsions:
REMARK  status: ('A' for Active; 'I' for Inactive)
REMARK    1  A    between atoms: C_1  and  C_2 
REMARK    2  A    between atoms: C_2  and  C_3 
REMARK    3  A    between atoms: C_3  and  C_4 
REMARK    4  A    between atoms: C_3  and  N_20 
REMARK    5  A    between atoms: C_7  and  C_8 
REMARK       I    between atoms: C_7  and  N_20 
REMARK    6  A    between atoms: C_8  and  N_21 
REMARK    7  A    between atoms: C_10  and  N_24 
REMARK    8  A    between atoms: C_12  and  C_13 
REMARK    9  A    between atoms: C_16  and  N_25 
REMARK   10  A    between atoms: N_24  and  S_34 
ROOT
HETATM    1  C   UNK N   1      25.870  24.899  -6.439  0.00  0.00     0.278 A 
HETATM    2  C   UNK N   1      25.988  25.251  -7.795  0.00  0.00     0.126 A 
HETATM    3  C   UNK N   1      26.551  26.473  -8.108  0.00  0.00     0.125 A 
HETATM    4  C   UNK N   1      26.802  27.013  -5.806  0.00  0.00     0.121 A 
HETATM    5  N   UNK N   1      26.269  25.787  -5.446  0.00  0.00    -0.289 N 
HETATM    6  N   UNK N   1      26.937  27.317  -7.127  0.00  0.00    -0.349 N 
ATOM      7  HN  UNK N   1      27.343  28.216  -7.385  1.00  0.00     0.167 HD
HETATM    8  O   UNK N   1      25.414  23.809  -6.137  0.00  0.00    -0.265 OA
ENDROOT
BRANCH   5   9
HETATM    9  C   UNK N   1      26.105  25.397  -4.034  0.00  0.00     0.236 C 
BRANCH   9  10
HETATM   10  C   UNK N   1      27.127  24.377  -3.615  0.00  0.00     0.236 C 
HETATM   11  N   UNK N   1      28.161  24.109  -4.454  0.00  0.00    -0.348 N 
HETATM   12  H   UNK N   1      28.270  24.688  -5.241  0.00  0.00     0.163 HD
HETATM   13  O   UNK N   1      26.987  23.764  -2.568  0.00  0.00    -0.272 OA
BRANCH  11  14
HETATM   14  C   UNK N   1      29.121  23.029  -4.276  0.00  0.00     0.167 C 
BRANCH  14  15
HETATM   15  C   UNK N   1      29.410  22.390  -5.623  0.00  0.00     0.255 C 
HETATM   16  O   UNK N   1      28.958  22.891  -6.643  0.00  0.00    -0.286 OA
BRANCH  15  17
HETATM   17  C   UNK N   1      30.250  21.147  -5.744  0.00  0.00     0.453 C 
HETATM   18  F   UNK N   1      31.498  21.492  -6.231  0.00  0.00    -0.163 F 
HETATM   19  F   UNK N   1      29.649  20.269  -6.627  0.00  0.00    -0.163 F 
HETATM   20  F   UNK N   1      30.404  20.516  -4.523  0.00  0.00    -0.163 F 
ENDBRANCH  15  17
ENDBRANCH  14  15
BRANCH  14  21
HETATM   21  C   UNK N   1      30.423  23.563  -3.653  0.00  0.00     0.008 C 
HETATM   22  C   UNK N   1      30.620  23.060  -2.235  0.00  0.00     0.012 C 
HETATM   23  C   UNK N   1      30.505  25.082  -3.676  0.00  0.00     0.012 C 
ENDBRANCH  14  21
ENDBRANCH  11  14
ENDBRANCH   9  10
ENDBRANCH   5   9
BRANCH   4  24
HETATM   24  C   UNK N   1      27.242  28.059  -4.827  0.00  0.00     0.008 A 
HETATM   25  C   UNK N   1      26.310  29.035  -4.427  0.00  0.00     0.017 A 
HETATM   26  C   UNK N   1      26.652  30.019  -3.498  0.00  0.00     0.030 A 
HETATM   27  C   UNK N   1      27.937  30.050  -2.958  0.00  0.00     0.025 A 
HETATM   28  C   UNK N   1      28.881  29.098  -3.351  0.00  0.00     0.030 A 
HETATM   29  C   UNK N   1      28.533  28.108  -4.276  0.00  0.00     0.017 A 
BRANCH  27  30
HETATM   30  N   UNK N   1      28.282  31.039  -2.017  0.00  0.00    -0.399 N 
HETATM   31  H   UNK N   1      27.809  31.903  -2.008  0.00  0.00     0.156 HD
HETATM   32  H   UNK N   1      28.999  30.867  -1.365  0.00  0.00     0.156 HD
ENDBRANCH  27  30
ENDBRANCH   4  24
BRANCH   2  33
HETATM   33  N   UNK N   1      25.529  24.429  -8.860  0.00  0.00    -0.278 N 
HETATM   34  H   UNK N   1      24.596  24.533  -9.156  0.00  0.00     0.179 HD
BRANCH  33  35
HETATM   35  S   UNK N   1      26.530  23.238  -9.681  0.00  0.00     0.227 S 
HETATM   36  C   UNK N   1      28.218  23.686 -10.169  0.00  0.00     0.186 C 
HETATM   37  O   UNK N   1      26.459  21.984  -8.795  0.00  0.00    -0.206 OA
HETATM   38  O   UNK N   1      25.674  22.805 -10.880  0.00  0.00    -0.206 OA
ENDBRANCH  33  35
ENDBRANCH   2  33
TORSDOF 10
ENDMDL
