MODEL 1
REMARK VINA RESULT:      -5.3      0.000      0.000
REMARK  5 active torsions:
REMARK  status: ('A' for Active; 'I' for Inactive)
REMARK    1  A    between atoms: N_1  and  C_2 
REMARK    2  A    between atoms: C_2  and  S_3 
REMARK    3  A    between atoms: S_3  and  C_12 
REMARK    4  A    between atoms: N_4  and  C_6 
REMARK    5  A    between atoms: C_9  and  C_14 
ROOT
HETATM    1  C   UNK N   1      35.141  12.535  15.375  0.00  0.00     0.034 A 
HETATM    2  C   UNK N   1      35.682  11.267  15.618  0.00  0.00     0.030 A 
HETATM    3  C   UNK N   1      35.904  10.825  16.926  0.00  0.00     0.018 A 
HETATM    4  C   UNK N   1      35.573  11.645  18.013  0.00  0.00     0.048 A 
HETATM    5  C   UNK N   1      35.029  12.914  17.776  0.00  0.00     0.018 A 
HETATM    6  C   UNK N   1      34.819  13.357  16.469  0.00  0.00     0.030 A 
ENDROOT
BRANCH   1   7
HETATM    7  N   UNK N   1      34.911  12.931  14.021  0.00  0.00    -0.337 N 
HETATM    8  C   UNK N   1      35.620  13.749  13.314  0.00  0.00     0.138 C 
ATOM      9  HN  UNK N   1      34.096  12.523  13.562  1.00  0.00     0.168 HD
BRANCH   8  10
HETATM   10  N   UNK N   1      36.794  14.355  13.829  0.00  0.00    -0.380 N 
HETATM   11  H   UNK N   1      37.532  13.799  14.170  0.00  0.00     0.158 HD
HETATM   12  H   UNK N   1      36.871  15.337  13.846  0.00  0.00     0.158 HD
ENDBRANCH   8  10
BRANCH   8  13
HETATM   13  S   UNK N   1      35.078  14.114  11.631  0.00  0.00    -0.095 SA
BRANCH  13  14
HETATM   14  C   UNK N   1      36.051  15.636  11.411  0.00  0.00     0.078 C 
HETATM   15  C   UNK N   1      35.264  16.624  10.578  0.00  0.00     0.016 C 
ENDBRANCH  13  14
ENDBRANCH   8  13
ENDBRANCH   1   7
BRANCH   4  16
HETATM   16  C   UNK N   1      35.797  11.155  19.414  0.00  0.00     0.417 C 
HETATM   17  F   UNK N   1      34.669  10.492  19.859  0.00  0.00    -0.166 F 
HETATM   18  F   UNK N   1      36.876  10.287  19.472  0.00  0.00    -0.166 F 
HETATM   19  F   UNK N   1      36.050  12.231  20.247  0.00  0.00    -0.166 F 
ENDBRANCH   4  16
TORSDOF 5
ENDMDL
MODEL 2
REMARK VINA RESULT:      -5.3      6.496      8.834
REMARK  5 active torsions:
REMARK  status: ('A' for Active; 'I' for Inactive)
REMARK    1  A    between atoms: N_1  and  C_2 
REMARK    2  A    between atoms: C_2  and  S_3 
REMARK    3  A    between atoms: S_3  and  C_12 
REMARK    4  A    between atoms: N_4  and  C_6 
REMARK    5  A    between atoms: C_9  and  C_14 
ROOT
HETATM    1  C   UNK N   1      34.974  14.943  11.158  0.00  0.00     0.034 A 
HETATM    2  C   UNK N   1      35.473  16.242  11.312  0.00  0.00     0.030 A 
HETATM    3  C   UNK N   1      35.249  17.212  10.331  0.00  0.00     0.018 A 
HETATM    4  C   UNK N   1      34.506  16.899   9.184  0.00  0.00     0.048 A 
HETATM    5  C   UNK N   1      34.002  15.602   9.026  0.00  0.00     0.018 A 
HETATM    6  C   UNK N   1      34.237  14.631  10.002  0.00  0.00     0.030 A 
ENDROOT
BRANCH   1   7
HETATM    7  N   UNK N   1      35.210  13.993  12.199  0.00  0.00    -0.337 N 
HETATM    8  C   UNK N   1      36.302  13.341  12.432  0.00  0.00     0.138 C 
ATOM      9  HN  UNK N   1      34.428  13.809  12.830  1.00  0.00     0.168 HD
BRANCH   8  10
HETATM   10  N   UNK N   1      37.466  13.534  11.645  0.00  0.00    -0.380 N 
HETATM   11  H   UNK N   1      37.606  13.004  10.827  0.00  0.00     0.158 HD
HETATM   12  H   UNK N   1      38.137  14.202  11.918  0.00  0.00     0.158 HD
ENDBRANCH   8  10
BRANCH   8  13
HETATM   13  S   UNK N   1      36.317  12.158  13.795  0.00  0.00    -0.095 SA
BRANCH  13  14
HETATM   14  C   UNK N   1      35.788  13.314  15.096  0.00  0.00     0.078 C 
HETATM   15  C   UNK N   1      36.930  14.245  15.441  0.00  0.00     0.016 C 
ENDBRANCH  13  14
ENDBRANCH   8  13
ENDBRANCH   1   7
BRANCH   4  16
HETATM   16  C   UNK N   1      34.254  17.953   8.146  0.00  0.00     0.417 C 
HETATM   17  F   UNK N   1      35.142  18.998   8.321  0.00  0.00    -0.166 F 
HETATM   18  F   UNK N   1      34.414  17.441   6.868  0.00  0.00    -0.166 F 
HETATM   19  F   UNK N   1      32.961  18.429   8.273  0.00  0.00    -0.166 F 
ENDBRANCH   4  16
TORSDOF 5
ENDMDL
MODEL 3
REMARK VINA RESULT:      -5.2      1.434      2.290
REMARK  5 active torsions:
REMARK  status: ('A' for Active; 'I' for Inactive)
REMARK    1  A    between atoms: N_1  and  C_2 
REMARK    2  A    between atoms: C_2  and  S_3 
REMARK    3  A    between atoms: S_3  and  C_12 
REMARK    4  A    between atoms: N_4  and  C_6 
REMARK    5  A    between atoms: C_9  and  C_14 
ROOT
HETATM    1  C   UNK N   1      36.448  13.079  14.170  0.00  0.00     0.034 A 
HETATM    2  C   UNK N   1      35.762  13.733  15.200  0.00  0.00     0.030 A 
HETATM    3  C   UNK N   1      35.452  13.063  16.387  0.00  0.00     0.018 A 
HETATM    4  C   UNK N   1      35.840  11.728  16.566  0.00  0.00     0.048 A 
HETATM    5  C   UNK N   1      36.529  11.070  15.540  0.00  0.00     0.018 A 
HETATM    6  C   UNK N   1      36.827  11.737  14.350  0.00  0.00     0.030 A 
ENDROOT
BRANCH   1   7
HETATM    7  N   UNK N   1      36.761  13.814  12.984  0.00  0.00    -0.337 N 
HETATM    8  C   UNK N   1      36.006  13.990  11.950  0.00  0.00     0.138 C 
ATOM      9  HN  UNK N   1      37.684  14.248  12.951  1.00  0.00     0.168 HD
BRANCH   8  10
HETATM   10  N   UNK N   1      34.690  13.463  11.890  0.00  0.00    -0.380 N 
HETATM   11  H   UNK N   1      34.143  13.400  12.706  0.00  0.00     0.158 HD
HETATM   12  H   UNK N   1      34.323  13.159  11.028  0.00  0.00     0.158 HD
ENDBRANCH   8  10
BRANCH   8  13
HETATM   13  S   UNK N   1      36.668  14.929  10.558  0.00  0.00    -0.095 SA
BRANCH  13  14
HETATM   14  C   UNK N   1      35.683  16.436  10.820  0.00  0.00     0.078 C 
HETATM   15  C   UNK N   1      34.803  16.682   9.613  0.00  0.00     0.016 C 
ENDBRANCH  13  14
ENDBRANCH   8  13
ENDBRANCH   1   7
BRANCH   4  16
HETATM   16  C   UNK N   1      35.521  11.022  17.852  0.00  0.00     0.417 C 
HETATM   17  F   UNK N   1      35.032  11.932  18.770  0.00  0.00    -0.166 F 
HETATM   18  F   UNK N   1      34.571  10.033  17.655  0.00  0.00    -0.166 F 
HETATM   19  F   UNK N   1      36.669  10.439  18.358  0.00  0.00    -0.166 F 
ENDBRANCH   4  16
TORSDOF 5
ENDMDL
MODEL 4
REMARK VINA RESULT:      -5.0     15.724     18.505
REMARK  5 active torsions:
REMARK  status: ('A' for Active; 'I' for Inactive)
REMARK    1  A    between atoms: N_1  and  C_2 
REMARK    2  A    between atoms: C_2  and  S_3 
REMARK    3  A    between atoms: S_3  and  C_12 
REMARK    4  A    between atoms: N_4  and  C_6 
REMARK    5  A    between atoms: C_9  and  C_14 
ROOT
HETATM    1  C   UNK N   1      24.777  19.070   4.215  0.00  0.00     0.034 A 
HETATM    2  C   UNK N   1      23.614  18.385   4.586  0.00  0.00     0.030 A 
HETATM    3  C   UNK N   1      22.368  18.773   4.086  0.00  0.00     0.018 A 
HETATM    4  C   UNK N   1      22.270  19.848   3.191  0.00  0.00     0.048 A 
HETATM    5  C   UNK N   1      23.431  20.535   2.814  0.00  0.00     0.018 A 
HETATM    6  C   UNK N   1      24.673  20.153   3.324  0.00  0.00     0.030 A 
ENDROOT
BRANCH   1   7
HETATM    7  N   UNK N   1      26.030  18.621   4.736  0.00  0.00    -0.337 N 
HETATM    8  C   UNK N   1      26.702  19.136   5.712  0.00  0.00     0.138 C 
ATOM      9  HN  UNK N   1      26.439  17.801   4.285  1.00  0.00     0.168 HD
BRANCH   8  10
HETATM   10  N   UNK N   1      26.222  20.256   6.437  0.00  0.00    -0.380 N 
HETATM   11  H   UNK N   1      26.627  21.144   6.304  0.00  0.00     0.158 HD
HETATM   12  H   UNK N   1      25.481  20.146   7.076  0.00  0.00     0.158 HD
ENDBRANCH   8  10
BRANCH   8  13
HETATM   13  S   UNK N   1      28.291  18.394   6.141  0.00  0.00    -0.095 SA
BRANCH  13  14
HETATM   14  C   UNK N   1      28.356  18.992   7.859  0.00  0.00     0.078 C 
HETATM   15  C   UNK N   1      28.188  17.825   8.808  0.00  0.00     0.016 C 
ENDBRANCH  13  14
ENDBRANCH   8  13
ENDBRANCH   1   7
BRANCH   4  16
HETATM   16  C   UNK N   1      20.930  20.245   2.643  0.00  0.00     0.417 C 
HETATM   17  F   UNK N   1      20.116  20.672   3.676  0.00  0.00    -0.166 F 
HETATM   18  F   UNK N   1      21.054  21.271   1.720  0.00  0.00    -0.166 F 
HETATM   19  F   UNK N   1      20.343  19.158   2.020  0.00  0.00    -0.166 F 
ENDBRANCH   4  16
TORSDOF 5
ENDMDL
MODEL 5
REMARK VINA RESULT:      -5.0      1.261      2.066
REMARK  5 active torsions:
REMARK  status: ('A' for Active; 'I' for Inactive)
REMARK    1  A    between atoms: N_1  and  C_2 
REMARK    2  A    between atoms: C_2  and  S_3 
REMARK    3  A    between atoms: S_3  and  C_12 
REMARK    4  A    between atoms: N_4  and  C_6 
REMARK    5  A    between atoms: C_9  and  C_14 
ROOT
HETATM    1  C   UNK N   1      35.274  11.894  15.526  0.00  0.00     0.034 A 
HETATM    2  C   UNK N   1      35.065  13.077  16.244  0.00  0.00     0.030 A 
HETATM    3  C   UNK N   1      35.034  13.065  17.642  0.00  0.00     0.018 A 
HETATM    4  C   UNK N   1      35.227  11.867  18.343  0.00  0.00     0.048 A 
HETATM    5  C   UNK N   1      35.441  10.681  17.629  0.00  0.00     0.018 A 
HETATM    6  C   UNK N   1      35.460  10.693  16.233  0.00  0.00     0.030 A 
ENDROOT
BRANCH   1   7
HETATM    7  N   UNK N   1      35.320  11.961  14.099  0.00  0.00    -0.337 N 
HETATM    8  C   UNK N   1      36.355  12.193  13.359  0.00  0.00     0.138 C 
ATOM      9  HN  UNK N   1      34.437  11.810  13.610  1.00  0.00     0.168 HD
BRANCH   8  10
HETATM   10  N   UNK N   1      37.643  12.388  13.919  0.00  0.00    -0.380 N 
HETATM   11  H   UNK N   1      38.173  13.182  13.680  0.00  0.00     0.158 HD
HETATM   12  H   UNK N   1      38.008  11.726  14.551  0.00  0.00     0.158 HD
ENDBRANCH   8  10
BRANCH   8  13
HETATM   13  S   UNK N   1      36.126  12.270  11.570  0.00  0.00    -0.095 SA
BRANCH  13  14
HETATM   14  C   UNK N   1      36.670  13.992  11.352  0.00  0.00     0.078 C 
HETATM   15  C   UNK N   1      35.568  14.931  11.798  0.00  0.00     0.016 C 
ENDBRANCH  13  14
ENDBRANCH   8  13
ENDBRANCH   1   7
BRANCH   4  16
HETATM   16  C   UNK N   1      35.212  11.868  19.844  0.00  0.00     0.417 C 
HETATM   17  F   UNK N   1      36.496  11.677  20.320  0.00  0.00    -0.166 F 
HETATM   18  F   UNK N   1      34.727  13.069  20.337  0.00  0.00    -0.166 F 
HETATM   19  F   UNK N   1      34.401  10.843  20.300  0.00  0.00    -0.166 F 
ENDBRANCH   4  16
TORSDOF 5
ENDMDL
MODEL 6
REMARK VINA RESULT:      -5.0     22.489     25.304
REMARK  5 active torsions:
REMARK  status: ('A' for Active; 'I' for Inactive)
REMARK    1  A    between atoms: N_1  and  C_2 
REMARK    2  A    between atoms: C_2  and  S_3 
REMARK    3  A    between atoms: S_3  and  C_12 
REMARK    4  A    between atoms: N_4  and  C_6 
REMARK    5  A    between atoms: C_9  and  C_14 
ROOT
HETATM    1  C   UNK N   1      28.201  24.232  -4.654  0.00  0.00     0.034 A 
HETATM    2  C   UNK N   1      28.724  25.517  -4.468  0.00  0.00     0.030 A 
HETATM    3  C   UNK N   1      27.887  26.637  -4.491  0.00  0.00     0.018 A 
HETATM    4  C   UNK N   1      26.507  26.483  -4.685  0.00  0.00     0.048 A 
HETATM    5  C   UNK N   1      25.978  25.199  -4.868  0.00  0.00     0.018 A 
HETATM    6  C   UNK N   1      26.818  24.083  -4.857  0.00  0.00     0.030 A 
ENDROOT
BRANCH   1   7
HETATM    7  N   UNK N   1      29.094  23.117  -4.600  0.00  0.00    -0.337 N 
HETATM    8  C   UNK N   1      29.558  22.536  -3.543  0.00  0.00     0.138 C 
ATOM      9  HN  UNK N   1      29.400  22.739  -5.497  1.00  0.00     0.168 HD
BRANCH   8  10
HETATM   10  N   UNK N   1      29.181  22.950  -2.240  0.00  0.00    -0.380 N 
HETATM   11  H   UNK N   1      28.670  22.345  -1.655  0.00  0.00     0.158 HD
HETATM   12  H   UNK N   1      29.433  23.847  -1.918  0.00  0.00     0.158 HD
ENDBRANCH   8  10
BRANCH   8  13
HETATM   13  S   UNK N   1      30.715  21.168  -3.757  0.00  0.00    -0.095 SA
BRANCH  13  14
HETATM   14  C   UNK N   1      32.197  22.037  -3.158  0.00  0.00     0.078 C 
HETATM   15  C   UNK N   1      33.280  21.029  -2.837  0.00  0.00     0.016 C 
ENDBRANCH  13  14
ENDBRANCH   8  13
ENDBRANCH   1   7
BRANCH   4  16
HETATM   16  C   UNK N   1      25.614  27.689  -4.687  0.00  0.00     0.417 C 
HETATM   17  F   UNK N   1      26.270  28.751  -5.281  0.00  0.00    -0.166 F 
HETATM   18  F   UNK N   1      24.444  27.441  -5.387  0.00  0.00    -0.166 F 
HETATM   19  F   UNK N   1      25.287  28.027  -3.386  0.00  0.00    -0.166 F 
ENDBRANCH   4  16
TORSDOF 5
ENDMDL
MODEL 7
REMARK VINA RESULT:      -5.0      9.177     11.881
REMARK  5 active torsions:
REMARK  status: ('A' for Active; 'I' for Inactive)
REMARK    1  A    between atoms: N_1  and  C_2 
REMARK    2  A    between atoms: C_2  and  S_3 
REMARK    3  A    between atoms: S_3  and  C_12 
REMARK    4  A    between atoms: N_4  and  C_6 
REMARK    5  A    between atoms: C_9  and  C_14 
ROOT
HETATM    1  C   UNK N   1      31.396  17.194   8.428  0.00  0.00     0.034 A 
HETATM    2  C   UNK N   1      31.137  16.753   7.125  0.00  0.00     0.030 A 
HETATM    3  C   UNK N   1      30.005  17.196   6.435  0.00  0.00     0.018 A 
HETATM    4  C   UNK N   1      29.121  18.102   7.036  0.00  0.00     0.048 A 
HETATM    5  C   UNK N   1      29.377  18.549   8.339  0.00  0.00     0.018 A 
HETATM    6  C   UNK N   1      30.502  18.096   9.031  0.00  0.00     0.030 A 
ENDROOT
BRANCH   1   7
HETATM    7  N   UNK N   1      32.579  16.730   9.083  0.00  0.00    -0.337 N 
HETATM    8  C   UNK N   1      33.758  17.257   9.037  0.00  0.00     0.138 C 
ATOM      9  HN  UNK N   1      32.481  15.887   9.650  1.00  0.00     0.168 HD
BRANCH   8  10
HETATM   10  N   UNK N   1      34.013  18.447   8.308  0.00  0.00    -0.380 N 
HETATM   11  H   UNK N   1      33.507  19.268   8.504  0.00  0.00     0.158 HD
HETATM   12  H   UNK N   1      34.701  18.451   7.602  0.00  0.00     0.158 HD
ENDBRANCH   8  10
BRANCH   8  13
HETATM   13  S   UNK N   1      35.097  16.437   9.927  0.00  0.00    -0.095 SA
BRANCH  13  14
HETATM   14  C   UNK N   1      34.116  15.045  10.568  0.00  0.00     0.078 C 
HETATM   15  C   UNK N   1      34.892  14.340  11.660  0.00  0.00     0.016 C 
ENDBRANCH  13  14
ENDBRANCH   8  13
ENDBRANCH   1   7
BRANCH   4  16
HETATM   16  C   UNK N   1      27.918  18.587   6.281  0.00  0.00     0.417 C 
HETATM   17  F   UNK N   1      26.989  17.569   6.186  0.00  0.00    -0.166 F 
HETATM   18  F   UNK N   1      27.332  19.669   6.919  0.00  0.00    -0.166 F 
HETATM   19  F   UNK N   1      28.297  18.977   5.008  0.00  0.00    -0.166 F 
ENDBRANCH   4  16
TORSDOF 5
ENDMDL
MODEL 8
REMARK VINA RESULT:      -4.9     10.979     13.749
REMARK  5 active torsions:
REMARK  status: ('A' for Active; 'I' for Inactive)
REMARK    1  A    between atoms: N_1  and  C_2 
REMARK    2  A    between atoms: C_2  and  S_3 
REMARK    3  A    between atoms: S_3  and  C_12 
REMARK    4  A    between atoms: N_4  and  C_6 
REMARK    5  A    between atoms: C_9  and  C_14 
ROOT
HETATM    1  C   UNK N   1      29.249  17.466   6.369  0.00  0.00     0.034 A 
HETATM    2  C   UNK N   1      28.889  18.057   7.586  0.00  0.00     0.030 A 
HETATM    3  C   UNK N   1      28.119  19.224   7.610  0.00  0.00     0.018 A 
HETATM    4  C   UNK N   1      27.685  19.808   6.412  0.00  0.00     0.048 A 
HETATM    5  C   UNK N   1      28.040  19.218   5.192  0.00  0.00     0.018 A 
HETATM    6  C   UNK N   1      28.819  18.060   5.170  0.00  0.00     0.030 A 
ENDROOT
BRANCH   1   7
HETATM    7  N   UNK N   1      30.018  16.261   6.398  0.00  0.00    -0.337 N 
HETATM    8  C   UNK N   1      31.302  16.149   6.302  0.00  0.00     0.138 C 
ATOM      9  HN  UNK N   1      29.494  15.392   6.506  1.00  0.00     0.168 HD
BRANCH   8  10
HETATM   10  N   UNK N   1      32.142  17.286   6.181  0.00  0.00    -0.380 N 
HETATM   11  H   UNK N   1      32.926  17.389   6.767  0.00  0.00     0.158 HD
HETATM   12  H   UNK N   1      31.939  17.975   5.506  0.00  0.00     0.158 HD
ENDBRANCH   8  10
BRANCH   8  13
HETATM   13  S   UNK N   1      32.020  14.493   6.322  0.00  0.00    -0.095 SA
BRANCH  13  14
HETATM   14  C   UNK N   1      33.143  14.756   7.729  0.00  0.00     0.078 C 
HETATM   15  C   UNK N   1      32.333  14.949   8.994  0.00  0.00     0.016 C 
ENDBRANCH  13  14
ENDBRANCH   8  13
ENDBRANCH   1   7
BRANCH   4  16
HETATM   16  C   UNK N   1      26.842  21.050   6.448  0.00  0.00     0.417 C 
HETATM   17  F   UNK N   1      27.654  22.164   6.347  0.00  0.00    -0.166 F 
HETATM   18  F   UNK N   1      25.932  21.065   5.402  0.00  0.00    -0.166 F 
HETATM   19  F   UNK N   1      26.144  21.102   7.641  0.00  0.00    -0.166 F 
ENDBRANCH   4  16
TORSDOF 5
ENDMDL
MODEL 9
REMARK VINA RESULT:      -4.9      4.884      7.132
REMARK  5 active torsions:
REMARK  status: ('A' for Active; 'I' for Inactive)
REMARK    1  A    between atoms: N_1  and  C_2 
REMARK    2  A    between atoms: C_2  and  S_3 
REMARK    3  A    between atoms: S_3  and  C_12 
REMARK    4  A    between atoms: N_4  and  C_6 
REMARK    5  A    between atoms: C_9  and  C_14 
ROOT
HETATM    1  C   UNK N   1      35.368  11.182  18.314  0.00  0.00     0.034 A 
HETATM    2  C   UNK N   1      35.076  12.549  18.248  0.00  0.00     0.030 A 
HETATM    3  C   UNK N   1      35.430  13.300  17.123  0.00  0.00     0.018 A 
HETATM    4  C   UNK N   1      36.072  12.687  16.038  0.00  0.00     0.048 A 
HETATM    5  C   UNK N   1      36.364  11.318  16.098  0.00  0.00     0.018 A 
HETATM    6  C   UNK N   1      36.020  10.573  17.228  0.00  0.00     0.030 A 
ENDROOT
BRANCH   1   7
HETATM    7  N   UNK N   1      34.965  10.454  19.476  0.00  0.00    -0.337 N 
HETATM    8  C   UNK N   1      35.599  10.356  20.598  0.00  0.00     0.138 C 
ATOM      9  HN  UNK N   1      34.077   9.955  19.412  1.00  0.00     0.168 HD
BRANCH   8  10
HETATM   10  N   UNK N   1      36.828  11.029  20.820  0.00  0.00    -0.380 N 
HETATM   11  H   UNK N   1      36.974  11.532  21.653  0.00  0.00     0.158 HD
HETATM   12  H   UNK N   1      37.537  10.992  20.138  0.00  0.00     0.158 HD
ENDBRANCH   8  10
BRANCH   8  13
HETATM   13  S   UNK N   1      34.884   9.326  21.897  0.00  0.00    -0.095 SA
BRANCH  13  14
HETATM   14  C   UNK N   1      33.194   9.268  21.227  0.00  0.00     0.078 C 
HETATM   15  C   UNK N   1      32.287  10.146  22.063  0.00  0.00     0.016 C 
ENDBRANCH  13  14
ENDBRANCH   8  13
ENDBRANCH   1   7
BRANCH   4  16
HETATM   16  C   UNK N   1      36.431  13.496  14.826  0.00  0.00     0.417 C 
HETATM   17  F   UNK N   1      37.187  12.726  13.962  0.00  0.00    -0.166 F 
HETATM   18  F   UNK N   1      35.295  13.928  14.161  0.00  0.00    -0.166 F 
HETATM   19  F   UNK N   1      37.167  14.603  15.209  0.00  0.00    -0.166 F 
ENDBRANCH   4  16
TORSDOF 5
ENDMDL
