REMARK  5 active torsions:
REMARK  status: ('A' for Active; 'I' for Inactive)
REMARK    1  A    between atoms: N_1  and  C_2 
REMARK    2  A    between atoms: C_2  and  S_3 
REMARK    3  A    between atoms: S_3  and  C_12 
REMARK    4  A    between atoms: N_4  and  C_6 
REMARK    5  A    between atoms: C_9  and  C_14 
ROOT
HETATM    1  C   UNK N   1       0.309  -0.763   0.083  0.00  0.00     0.034 A 
HETATM    2  C   UNK N   1       0.357  -2.148   0.281  0.00  0.00     0.030 A 
HETATM    3  C   UNK N   1      -0.812  -2.914   0.242  0.00  0.00     0.018 A 
HETATM    4  C   UNK N   1      -2.048  -2.304  -0.012  0.00  0.00     0.048 A 
HETATM    5  C   UNK N   1      -2.101  -0.919  -0.214  0.00  0.00     0.018 A 
HETATM    6  C   UNK N   1      -0.934  -0.154  -0.163  0.00  0.00     0.030 A 
ENDROOT
BRANCH   1   7
HETATM    7  N   UNK N   1       1.534  -0.027   0.110  0.00  0.00    -0.337 N 
HETATM    8  C   UNK N   1       1.680   1.254   0.018  0.00  0.00     0.138 C 
ATOM      9  HN  UNK N   1       2.389  -0.575   0.213  1.00  0.00     0.168 HD
BRANCH   8  10
HETATM   10  N   UNK N   1       0.566   2.124  -0.097  0.00  0.00    -0.380 N 
HETATM   11  H   UNK N   1       0.701   3.096  -0.177  0.00  0.00     0.158 HD
HETATM   12  H   UNK N   1      -0.347   1.754  -0.097  0.00  0.00     0.158 HD
ENDBRANCH   8  10
BRANCH   8  13
HETATM   13  S   UNK N   1       3.355   1.927   0.034  0.00  0.00    -0.095 SA
BRANCH  13  14
HETATM   14  C   UNK N   1       2.886   3.685   0.054  0.00  0.00     0.078 C 
HETATM   15  C   UNK N   1       4.133   4.542   0.007  0.00  0.00     0.016 C 
ENDBRANCH  13  14
ENDBRANCH   8  13
ENDBRANCH   1   7
BRANCH   4  16
HETATM   16  C   UNK N   1      -3.295  -3.137  -0.072  0.00  0.00     0.417 C 
HETATM   17  F   UNK N   1      -3.531  -3.707   1.165  0.00  0.00    -0.166 F 
HETATM   18  F   UNK N   1      -4.392  -2.367  -0.425  0.00  0.00    -0.166 F 
HETATM   19  F   UNK N   1      -3.138  -4.140  -1.012  0.00  0.00    -0.166 F 
ENDBRANCH   4  16
TORSDOF 5
