MODEL 1
REMARK VINA RESULT:      -6.5      0.000      0.000
REMARK  6 active torsions:
REMARK  status: ('A' for Active; 'I' for Inactive)
REMARK    1  A    between atoms: C_1  and  C_12 
REMARK    2  A    between atoms: C_2  and  O_3 
REMARK    3  A    between atoms: C_4  and  O_5 
REMARK    4  A    between atoms: C_6  and  O_7 
REMARK    5  A    between atoms: C_8  and  C_10 
REMARK    6  A    between atoms: C_10  and  O_11 
ROOT
HETATM    1  C   UNK N   1      36.645  13.585  12.497  0.00  0.00     0.210 C 
HETATM    2  C   UNK N   1      35.568  14.644  12.158  0.00  0.00     0.184 C 
HETATM    3  C   UNK N   1      35.865  15.250  10.780  0.00  0.00     0.181 C 
HETATM    4  C   UNK N   1      36.016  14.125   9.747  0.00  0.00     0.180 C 
HETATM    5  C   UNK N   1      37.053  13.095  10.254  0.00  0.00     0.177 C 
HETATM    6  O   UNK N   1      36.646  12.559  11.508  0.00  0.00    -0.366 OA
ENDROOT
BRANCH   1   7
HETATM    7  C   UNK N   1      36.373  13.007  13.856  0.00  0.00     0.084 A 
HETATM    8  N   UNK N   1      35.901  13.708  14.929  0.00  0.00    -0.351 N 
HETATM    9  C   UNK N   1      35.794  12.907  16.045  0.00  0.00     0.050 A 
ATOM     10  HN  UNK N   1      35.659  14.699  14.907  1.00  0.00     0.166 HD
HETATM   11  C   UNK N   1      35.364  13.347  17.297  0.00  0.00     0.037 A 
HETATM   12  C   UNK N   1      36.169  11.574  15.866  0.00  0.00     0.033 A 
HETATM   13  C   UNK N   1      35.321  12.422  18.357  0.00  0.00    -0.060 A 
HETATM   14  C   UNK N   1      35.701  11.076  18.154  0.00  0.00     0.008 A 
HETATM   15  C   UNK N   1      34.880  12.865  19.705  0.00  0.00     0.048 C 
HETATM   16  C   UNK N   1      36.132  10.641  16.891  0.00  0.00     0.022 A 
HETATM   17  S   UNK N   1      36.635  11.421  14.297  0.00  0.00    -0.072 SA
ENDBRANCH   1   7
BRANCH   2  18
HETATM   18  O   UNK N   1      34.304  14.044  12.148  0.00  0.00    -0.390 OA
HETATM   19  H   UNK N   1      33.369  13.855  12.327  0.00  0.00     0.210 HD
ENDBRANCH   2  18
BRANCH   3  20
HETATM   20  O   UNK N   1      37.047  15.997  10.846  0.00  0.00    -0.390 OA
HETATM   21  H   UNK N   1      37.964  16.233  10.636  0.00  0.00     0.210 HD
ENDBRANCH   3  20
BRANCH   5  22
HETATM   22  C   UNK N   1      37.238  11.960   9.245  0.00  0.00     0.198 C 
BRANCH  22  23
HETATM   23  O   UNK N   1      38.083  12.338   8.201  0.00  0.00    -0.398 OA
HETATM   24  H   UNK N   1      38.460  12.835   7.457  0.00  0.00     0.209 HD
ENDBRANCH  22  23
ENDBRANCH   5  22
BRANCH   4  25
HETATM   25  O   UNK N   1      36.409  14.657   8.516  0.00  0.00    -0.390 OA
HETATM   26  H   UNK N   1      36.519  14.098   7.732  0.00  0.00     0.210 HD
ENDBRANCH   4  25
TORSDOF 6
ENDMDL
MODEL 2
REMARK VINA RESULT:      -6.5      5.060      8.840
REMARK  6 active torsions:
REMARK  status: ('A' for Active; 'I' for Inactive)
REMARK    1  A    between atoms: C_1  and  C_12 
REMARK    2  A    between atoms: C_2  and  O_3 
REMARK    3  A    between atoms: C_4  and  O_5 
REMARK    4  A    between atoms: C_6  and  O_7 
REMARK    5  A    between atoms: C_8  and  C_10 
REMARK    6  A    between atoms: C_10  and  O_11 
ROOT
HETATM    1  C   UNK N   1      34.506  14.857   9.164  0.00  0.00     0.210 C 
HETATM    2  C   UNK N   1      34.192  15.599  10.486  0.00  0.00     0.184 C 
HETATM    3  C   UNK N   1      34.888  14.881  11.650  0.00  0.00     0.181 C 
HETATM    4  C   UNK N   1      36.382  14.722  11.334  0.00  0.00     0.180 C 
HETATM    5  C   UNK N   1      36.548  14.051   9.949  0.00  0.00     0.177 C 
HETATM    6  O   UNK N   1      35.913  14.831   8.943  0.00  0.00    -0.366 OA
ENDROOT
BRANCH   1   7
HETATM    7  C   UNK N   1      33.806  15.541   8.025  0.00  0.00     0.084 A 
HETATM    8  N   UNK N   1      32.484  15.885   8.006  0.00  0.00    -0.351 N 
HETATM    9  C   UNK N   1      32.132  16.461   6.806  0.00  0.00     0.050 A 
ATOM     10  HN  UNK N   1      31.840  15.734   8.783  1.00  0.00     0.166 HD
HETATM   11  C   UNK N   1      30.845  16.893   6.482  0.00  0.00     0.037 A 
HETATM   12  C   UNK N   1      33.162  16.587   5.873  0.00  0.00     0.033 A 
HETATM   13  C   UNK N   1      30.622  17.449   5.208  0.00  0.00    -0.060 A 
HETATM   14  C   UNK N   1      31.680  17.570   4.280  0.00  0.00     0.008 A 
HETATM   15  C   UNK N   1      29.259  17.906   4.831  0.00  0.00     0.048 C 
HETATM   16  C   UNK N   1      32.973  17.133   4.613  0.00  0.00     0.022 A 
HETATM   17  S   UNK N   1      34.512  15.963   6.576  0.00  0.00    -0.072 SA
ENDBRANCH   1   7
BRANCH   2  18
HETATM   18  O   UNK N   1      34.648  16.920  10.405  0.00  0.00    -0.390 OA
HETATM   19  H   UNK N   1      35.048  17.741  10.077  0.00  0.00     0.210 HD
ENDBRANCH   2  18
BRANCH   3  20
HETATM   20  O   UNK N   1      34.305  13.624  11.836  0.00  0.00    -0.390 OA
HETATM   21  H   UNK N   1      34.192  12.744  12.230  0.00  0.00     0.210 HD
ENDBRANCH   3  20
BRANCH   5  22
HETATM   22  C   UNK N   1      38.026  13.867   9.602  0.00  0.00     0.198 C 
BRANCH  22  23
HETATM   23  O   UNK N   1      38.786  14.968  10.004  0.00  0.00    -0.398 OA
HETATM   24  H   UNK N   1      39.298  15.791   9.974  0.00  0.00     0.209 HD
ENDBRANCH  22  23
ENDBRANCH   5  22
BRANCH   4  25
HETATM   25  O   UNK N   1      37.002  13.961  12.329  0.00  0.00    -0.390 OA
HETATM   26  H   UNK N   1      37.270  13.042  12.173  0.00  0.00     0.210 HD
ENDBRANCH   4  25
TORSDOF 6
ENDMDL
MODEL 3
REMARK VINA RESULT:      -6.4     16.187     17.654
REMARK  6 active torsions:
REMARK  status: ('A' for Active; 'I' for Inactive)
REMARK    1  A    between atoms: C_1  and  C_12 
REMARK    2  A    between atoms: C_2  and  O_3 
REMARK    3  A    between atoms: C_4  and  O_5 
REMARK    4  A    between atoms: C_6  and  O_7 
REMARK    5  A    between atoms: C_8  and  C_10 
REMARK    6  A    between atoms: C_10  and  O_11 
ROOT
HETATM    1  C   UNK N   1      20.577  17.684   4.598  0.00  0.00     0.210 C 
HETATM    2  C   UNK N   1      20.083  16.824   3.409  0.00  0.00     0.184 C 
HETATM    3  C   UNK N   1      19.687  17.742   2.245  0.00  0.00     0.181 C 
HETATM    4  C   UNK N   1      20.851  18.689   1.922  0.00  0.00     0.180 C 
HETATM    5  C   UNK N   1      21.301  19.414   3.213  0.00  0.00     0.177 C 
HETATM    6  O   UNK N   1      21.698  18.467   4.199  0.00  0.00    -0.366 OA
ENDROOT
BRANCH   1   7
HETATM    7  C   UNK N   1      20.941  16.790   5.748  0.00  0.00     0.084 A 
HETATM    8  N   UNK N   1      22.025  15.961   5.788  0.00  0.00    -0.351 N 
HETATM    9  C   UNK N   1      22.064  15.240   6.961  0.00  0.00     0.050 A 
ATOM     10  HN  UNK N   1      22.718  15.884   5.043  1.00  0.00     0.166 HD
HETATM   11  C   UNK N   1      23.040  14.294   7.278  0.00  0.00     0.037 A 
HETATM   12  C   UNK N   1      21.026  15.494   7.858  0.00  0.00     0.033 A 
HETATM   13  C   UNK N   1      22.947  13.616   8.508  0.00  0.00    -0.060 A 
HETATM   14  C   UNK N   1      21.889  13.892   9.403  0.00  0.00     0.008 A 
HETATM   15  C   UNK N   1      23.964  12.595   8.867  0.00  0.00     0.048 C 
HETATM   16  C   UNK N   1      20.910  14.845   9.078  0.00  0.00     0.022 A 
HETATM   17  S   UNK N   1      20.064  16.629   7.156  0.00  0.00    -0.072 SA
ENDBRANCH   1   7
BRANCH   2  18
HETATM   18  O   UNK N   1      21.102  15.956   3.000  0.00  0.00    -0.390 OA
HETATM   19  H   UNK N   1      21.913  15.424   2.988  0.00  0.00     0.210 HD
ENDBRANCH   2  18
BRANCH   3  20
HETATM   20  O   UNK N   1      18.556  18.483   2.602  0.00  0.00    -0.390 OA
HETATM   21  H   UNK N   1      17.898  19.194   2.534  0.00  0.00     0.210 HD
ENDBRANCH   3  20
BRANCH   5  22
HETATM   22  C   UNK N   1      22.456  20.375   2.929  0.00  0.00     0.198 C 
BRANCH  22  23
HETATM   23  O   UNK N   1      21.995  21.672   2.693  0.00  0.00    -0.398 OA
HETATM   24  H   UNK N   1      21.913  22.564   2.323  0.00  0.00     0.209 HD
ENDBRANCH  22  23
ENDBRANCH   5  22
BRANCH   4  25
HETATM   25  O   UNK N   1      20.458  19.612   0.949  0.00  0.00    -0.390 OA
HETATM   26  H   UNK N   1      19.535  19.894   0.859  0.00  0.00     0.210 HD
ENDBRANCH   4  25
TORSDOF 6
ENDMDL
MODEL 4
REMARK VINA RESULT:      -6.4      1.874      2.613
REMARK  6 active torsions:
REMARK  status: ('A' for Active; 'I' for Inactive)
REMARK    1  A    between atoms: C_1  and  C_12 
REMARK    2  A    between atoms: C_2  and  O_3 
REMARK    3  A    between atoms: C_4  and  O_5 
REMARK    4  A    between atoms: C_6  and  O_7 
REMARK    5  A    between atoms: C_8  and  C_10 
REMARK    6  A    between atoms: C_10  and  O_11 
ROOT
HETATM    1  C   UNK N   1      35.883  14.880  10.764  0.00  0.00     0.210 C 
HETATM    2  C   UNK N   1      34.638  15.765  11.013  0.00  0.00     0.184 C 
HETATM    3  C   UNK N   1      34.467  16.746   9.845  0.00  0.00     0.181 C 
HETATM    4  C   UNK N   1      34.456  15.968   8.522  0.00  0.00     0.180 C 
HETATM    5  C   UNK N   1      35.706  15.060   8.446  0.00  0.00     0.177 C 
HETATM    6  O   UNK N   1      35.729  14.157   9.545  0.00  0.00    -0.366 OA
ENDROOT
BRANCH   1   7
HETATM    7  C   UNK N   1      36.068  13.936  11.917  0.00  0.00     0.084 A 
HETATM    8  N   UNK N   1      35.438  14.036  13.124  0.00  0.00    -0.351 N 
HETATM    9  C   UNK N   1      35.848  13.044  13.988  0.00  0.00     0.050 A 
ATOM     10  HN  UNK N   1      34.752  14.754  13.358  1.00  0.00     0.166 HD
HETATM   11  C   UNK N   1      35.399  12.902  15.302  0.00  0.00     0.037 A 
HETATM   12  C   UNK N   1      36.791  12.152  13.476  0.00  0.00     0.033 A 
HETATM   13  C   UNK N   1      35.917  11.850  16.081  0.00  0.00    -0.060 A 
HETATM   14  C   UNK N   1      36.869  10.957  15.541  0.00  0.00     0.008 A 
HETATM   15  C   UNK N   1      35.467  11.683  17.487  0.00  0.00     0.048 C 
HETATM   16  C   UNK N   1      37.316  11.105  14.219  0.00  0.00     0.022 A 
HETATM   17  S   UNK N   1      37.101  12.628  11.933  0.00  0.00    -0.072 SA
ENDBRANCH   1   7
BRANCH   2  18
HETATM   18  O   UNK N   1      33.500  14.958  11.123  0.00  0.00    -0.390 OA
HETATM   19  H   UNK N   1      32.907  14.190  11.111  0.00  0.00     0.210 HD
ENDBRANCH   2  18
BRANCH   3  20
HETATM   20  O   UNK N   1      35.524  17.662   9.850  0.00  0.00    -0.390 OA
HETATM   21  H   UNK N   1      36.125  18.327  10.223  0.00  0.00     0.210 HD
ENDBRANCH   3  20
BRANCH   5  22
HETATM   22  C   UNK N   1      35.735  14.275   7.134  0.00  0.00     0.198 C 
BRANCH  22  23
HETATM   23  O   UNK N   1      36.186  15.065   6.075  0.00  0.00    -0.398 OA
HETATM   24  H   UNK N   1      36.573  15.330   5.226  0.00  0.00     0.209 HD
ENDBRANCH  22  23
ENDBRANCH   5  22
BRANCH   4  25
HETATM   25  O   UNK N   1      34.427  16.860   7.446  0.00  0.00    -0.390 OA
HETATM   26  H   UNK N   1      34.622  17.803   7.562  0.00  0.00     0.210 HD
ENDBRANCH   4  25
TORSDOF 6
ENDMDL
MODEL 5
REMARK VINA RESULT:      -6.2      1.326      2.526
REMARK  6 active torsions:
REMARK  status: ('A' for Active; 'I' for Inactive)
REMARK    1  A    between atoms: C_1  and  C_12 
REMARK    2  A    between atoms: C_2  and  O_3 
REMARK    3  A    between atoms: C_4  and  O_5 
REMARK    4  A    between atoms: C_6  and  O_7 
REMARK    5  A    between atoms: C_8  and  C_10 
REMARK    6  A    between atoms: C_10  and  O_11 
ROOT
HETATM    1  C   UNK N   1      35.126  12.745  12.098  0.00  0.00     0.210 C 
HETATM    2  C   UNK N   1      36.576  12.620  11.569  0.00  0.00     0.184 C 
HETATM    3  C   UNK N   1      36.615  13.029  10.091  0.00  0.00     0.181 C 
HETATM    4  C   UNK N   1      35.982  14.418   9.927  0.00  0.00     0.180 C 
HETATM    5  C   UNK N   1      34.579  14.425  10.578  0.00  0.00     0.177 C 
HETATM    6  O   UNK N   1      34.671  14.088  11.957  0.00  0.00    -0.366 OA
ENDROOT
BRANCH   1   7
HETATM    7  C   UNK N   1      35.078  12.321  13.538  0.00  0.00     0.084 A 
HETATM    8  N   UNK N   1      35.153  13.164  14.610  0.00  0.00    -0.351 N 
HETATM    9  C   UNK N   1      35.122  12.469  15.799  0.00  0.00     0.050 A 
ATOM     10  HN  UNK N   1      35.223  14.180  14.539  1.00  0.00     0.166 HD
HETATM   11  C   UNK N   1      35.206  13.057  17.062  0.00  0.00     0.037 A 
HETATM   12  C   UNK N   1      35.015  11.083  15.683  0.00  0.00     0.033 A 
HETATM   13  C   UNK N   1      35.181  12.222  18.196  0.00  0.00    -0.060 A 
HETATM   14  C   UNK N   1      35.069  10.821  18.055  0.00  0.00     0.008 A 
HETATM   15  C   UNK N   1      35.282  12.819  19.553  0.00  0.00     0.048 C 
HETATM   16  C   UNK N   1      34.985  10.237  16.781  0.00  0.00     0.022 A 
HETATM   17  S   UNK N   1      34.964  10.747  14.073  0.00  0.00    -0.072 SA
ENDBRANCH   1   7
BRANCH   2  18
HETATM   18  O   UNK N   1      37.422  13.451  12.312  0.00  0.00    -0.390 OA
HETATM   19  H   UNK N   1      38.150  13.766  12.871  0.00  0.00     0.210 HD
ENDBRANCH   2  18
BRANCH   3  20
HETATM   20  O   UNK N   1      35.909  12.091   9.330  0.00  0.00    -0.390 OA
HETATM   21  H   UNK N   1      35.434  11.264   9.154  0.00  0.00     0.210 HD
ENDBRANCH   3  20
BRANCH   5  22
HETATM   22  C   UNK N   1      33.911  15.793  10.426  0.00  0.00     0.198 C 
BRANCH  22  23
HETATM   23  O   UNK N   1      34.800  16.830  10.715  0.00  0.00    -0.398 OA
HETATM   24  H   UNK N   1      35.623  17.334  10.814  0.00  0.00     0.209 HD
ENDBRANCH  22  23
ENDBRANCH   5  22
BRANCH   4  25
HETATM   25  O   UNK N   1      35.900  14.747   8.571  0.00  0.00    -0.390 OA
HETATM   26  H   UNK N   1      36.687  14.770   8.005  0.00  0.00     0.210 HD
ENDBRANCH   4  25
TORSDOF 6
ENDMDL
MODEL 6
REMARK VINA RESULT:      -6.1      3.466      7.432
REMARK  6 active torsions:
REMARK  status: ('A' for Active; 'I' for Inactive)
REMARK    1  A    between atoms: C_1  and  C_12 
REMARK    2  A    between atoms: C_2  and  O_3 
REMARK    3  A    between atoms: C_4  and  O_5 
REMARK    4  A    between atoms: C_6  and  O_7 
REMARK    5  A    between atoms: C_8  and  C_10 
REMARK    6  A    between atoms: C_10  and  O_11 
ROOT
HETATM    1  C   UNK N   1      35.575  13.884  12.216  0.00  0.00     0.210 C 
HETATM    2  C   UNK N   1      35.824  12.496  11.577  0.00  0.00     0.184 C 
HETATM    3  C   UNK N   1      36.529  11.587  12.592  0.00  0.00     0.181 C 
HETATM    4  C   UNK N   1      35.729  11.564  13.902  0.00  0.00     0.180 C 
HETATM    5  C   UNK N   1      35.475  13.014  14.377  0.00  0.00     0.177 C 
HETATM    6  O   UNK N   1      34.768  13.744  13.382  0.00  0.00    -0.366 OA
ENDROOT
BRANCH   1   7
HETATM    7  C   UNK N   1      34.907  14.785  11.218  0.00  0.00     0.084 A 
HETATM    8  N   UNK N   1      33.695  14.551  10.633  0.00  0.00    -0.351 N 
HETATM    9  C   UNK N   1      33.374  15.541   9.730  0.00  0.00     0.050 A 
ATOM     10  HN  UNK N   1      33.104  13.746  10.838  1.00  0.00     0.166 HD
HETATM   11  C   UNK N   1      32.209  15.563   8.961  0.00  0.00     0.037 A 
HETATM   12  C   UNK N   1      34.314  16.563   9.598  0.00  0.00     0.033 A 
HETATM   13  C   UNK N   1      32.017  16.629   8.062  0.00  0.00    -0.060 A 
HETATM   14  C   UNK N   1      32.981  17.656   7.946  0.00  0.00     0.008 A 
HETATM   15  C   UNK N   1      30.794  16.673   7.220  0.00  0.00     0.048 C 
HETATM   16  C   UNK N   1      34.149  17.627   8.724  0.00  0.00     0.022 A 
HETATM   17  S   UNK N   1      35.549  16.204  10.624  0.00  0.00    -0.072 SA
ENDBRANCH   1   7
BRANCH   2  18
HETATM   18  O   UNK N   1      34.603  11.925  11.199  0.00  0.00    -0.390 OA
HETATM   19  H   UNK N   1      33.939  11.372  10.759  0.00  0.00     0.210 HD
ENDBRANCH   2  18
BRANCH   3  20
HETATM   20  O   UNK N   1      37.820  12.071  12.831  0.00  0.00    -0.390 OA
HETATM   21  H   UNK N   1      38.641  12.208  13.329  0.00  0.00     0.210 HD
ENDBRANCH   3  20
BRANCH   5  22
HETATM   22  C   UNK N   1      34.687  13.032  15.687  0.00  0.00     0.198 C 
BRANCH  22  23
HETATM   23  O   UNK N   1      35.530  12.910  16.793  0.00  0.00    -0.398 OA
HETATM   24  H   UNK N   1      35.936  12.570  17.606  0.00  0.00     0.209 HD
ENDBRANCH  22  23
ENDBRANCH   5  22
BRANCH   4  25
HETATM   25  O   UNK N   1      36.426  10.839  14.873  0.00  0.00    -0.390 OA
HETATM   26  H   UNK N   1      36.032  10.070  15.313  0.00  0.00     0.210 HD
ENDBRANCH   4  25
TORSDOF 6
ENDMDL
MODEL 7
REMARK VINA RESULT:      -6.1      4.559      8.032
REMARK  6 active torsions:
REMARK  status: ('A' for Active; 'I' for Inactive)
REMARK    1  A    between atoms: C_1  and  C_12 
REMARK    2  A    between atoms: C_2  and  O_3 
REMARK    3  A    between atoms: C_4  and  O_5 
REMARK    4  A    between atoms: C_6  and  O_7 
REMARK    5  A    between atoms: C_8  and  C_10 
REMARK    6  A    between atoms: C_10  and  O_11 
ROOT
HETATM    1  C   UNK N   1      35.513  15.425   9.723  0.00  0.00     0.210 C 
HETATM    2  C   UNK N   1      36.211  14.289   8.936  0.00  0.00     0.184 C 
HETATM    3  C   UNK N   1      37.435  13.803   9.723  0.00  0.00     0.181 C 
HETATM    4  C   UNK N   1      37.012  13.437  11.153  0.00  0.00     0.180 C 
HETATM    5  C   UNK N   1      36.249  14.625  11.785  0.00  0.00     0.177 C 
HETATM    6  O   UNK N   1      35.106  14.951  11.003  0.00  0.00    -0.366 OA
ENDROOT
BRANCH   1   7
HETATM    7  C   UNK N   1      34.329  15.922   8.944  0.00  0.00     0.084 A 
HETATM    8  N   UNK N   1      33.089  16.163   9.464  0.00  0.00    -0.351 N 
HETATM    9  C   UNK N   1      32.206  16.572   8.489  0.00  0.00     0.050 A 
ATOM     10  HN  UNK N   1      32.848  16.053  10.449  1.00  0.00     0.166 HD
HETATM   11  C   UNK N   1      30.860  16.868   8.713  0.00  0.00     0.037 A 
HETATM   12  C   UNK N   1      32.734  16.666   7.201  0.00  0.00     0.033 A 
HETATM   13  C   UNK N   1      30.066  17.258   7.618  0.00  0.00    -0.060 A 
HETATM   14  C   UNK N   1      30.621  17.350   6.323  0.00  0.00     0.008 A 
HETATM   15  C   UNK N   1      28.627  17.566   7.824  0.00  0.00     0.048 C 
HETATM   16  C   UNK N   1      31.976  17.051   6.105  0.00  0.00     0.022 A 
HETATM   17  S   UNK N   1      34.315  16.228   7.306  0.00  0.00    -0.072 SA
ENDBRANCH   1   7
BRANCH   2  18
HETATM   18  O   UNK N   1      35.318  13.229   8.748  0.00  0.00    -0.390 OA
HETATM   19  H   UNK N   1      34.569  12.621   8.854  0.00  0.00     0.210 HD
ENDBRANCH   2  18
BRANCH   3  20
HETATM   20  O   UNK N   1      38.399  14.816   9.756  0.00  0.00    -0.390 OA
HETATM   21  H   UNK N   1      38.734  15.726   9.759  0.00  0.00     0.210 HD
ENDBRANCH   3  20
BRANCH   5  22
HETATM   22  C   UNK N   1      35.819  14.302  13.216  0.00  0.00     0.198 C 
BRANCH  22  23
HETATM   23  O   UNK N   1      36.845  14.555  14.128  0.00  0.00    -0.398 OA
HETATM   24  H   UNK N   1      37.398  15.002  14.788  0.00  0.00     0.209 HD
ENDBRANCH  22  23
ENDBRANCH   5  22
BRANCH   4  25
HETATM   25  O   UNK N   1      38.138  13.112  11.914  0.00  0.00    -0.390 OA
HETATM   26  H   UNK N   1      38.202  13.346  12.853  0.00  0.00     0.210 HD
ENDBRANCH   4  25
TORSDOF 6
ENDMDL
MODEL 8
REMARK VINA RESULT:      -6.0      1.558      3.009
REMARK  6 active torsions:
REMARK  status: ('A' for Active; 'I' for Inactive)
REMARK    1  A    between atoms: C_1  and  C_12 
REMARK    2  A    between atoms: C_2  and  O_3 
REMARK    3  A    between atoms: C_4  and  O_5 
REMARK    4  A    between atoms: C_6  and  O_7 
REMARK    5  A    between atoms: C_8  and  C_10 
REMARK    6  A    between atoms: C_10  and  O_11 
ROOT
HETATM    1  C   UNK N   1      35.569  12.588  13.294  0.00  0.00     0.210 C 
HETATM    2  C   UNK N   1      36.655  11.755  12.571  0.00  0.00     0.184 C 
HETATM    3  C   UNK N   1      36.586  12.028  11.062  0.00  0.00     0.181 C 
HETATM    4  C   UNK N   1      36.655  13.541  10.812  0.00  0.00     0.180 C 
HETATM    5  C   UNK N   1      35.577  14.254  11.663  0.00  0.00     0.177 C 
HETATM    6  O   UNK N   1      35.774  13.975  13.044  0.00  0.00    -0.366 OA
ENDROOT
BRANCH   1   7
HETATM    7  C   UNK N   1      35.616  12.304  14.768  0.00  0.00     0.084 A 
HETATM    8  N   UNK N   1      36.167  11.193  15.338  0.00  0.00    -0.351 N 
HETATM    9  C   UNK N   1      36.017  11.204  16.707  0.00  0.00     0.050 A 
ATOM     10  HN  UNK N   1      36.630  10.448  14.816  1.00  0.00     0.166 HD
HETATM   11  C   UNK N   1      36.457  10.190  17.561  0.00  0.00     0.037 A 
HETATM   12  C   UNK N   1      35.360  12.318  17.232  0.00  0.00     0.033 A 
HETATM   13  C   UNK N   1      36.221  10.324  18.942  0.00  0.00    -0.060 A 
HETATM   14  C   UNK N   1      35.556  11.462  19.452  0.00  0.00     0.008 A 
HETATM   15  C   UNK N   1      36.666   9.255  19.873  0.00  0.00     0.048 C 
HETATM   16  C   UNK N   1      35.117  12.477  18.588  0.00  0.00     0.022 A 
HETATM   17  S   UNK N   1      34.971  13.279  15.955  0.00  0.00    -0.072 SA
ENDBRANCH   1   7
BRANCH   2  18
HETATM   18  O   UNK N   1      37.920  12.106  13.057  0.00  0.00    -0.390 OA
HETATM   19  H   UNK N   1      38.754  12.579  13.207  0.00  0.00     0.210 HD
ENDBRANCH   2  18
BRANCH   3  20
HETATM   20  O   UNK N   1      35.390  11.514  10.551  0.00  0.00    -0.390 OA
HETATM   21  H   UNK N   1      34.504  11.120  10.584  0.00  0.00     0.210 HD
ENDBRANCH   3  20
BRANCH   5  22
HETATM   22  C   UNK N   1      35.609  15.765  11.433  0.00  0.00     0.198 C 
BRANCH  22  23
HETATM   23  O   UNK N   1      36.854  16.185  10.962  0.00  0.00    -0.398 OA
HETATM   24  H   UNK N   1      37.533  16.642  10.441  0.00  0.00     0.209 HD
ENDBRANCH  22  23
ENDBRANCH   5  22
BRANCH   4  25
HETATM   25  O   UNK N   1      36.468  13.808   9.453  0.00  0.00    -0.390 OA
HETATM   26  H   UNK N   1      35.809  14.449   9.147  0.00  0.00     0.210 HD
ENDBRANCH   4  25
TORSDOF 6
ENDMDL
MODEL 9
REMARK VINA RESULT:      -5.9      7.678     10.684
REMARK  6 active torsions:
REMARK  status: ('A' for Active; 'I' for Inactive)
REMARK    1  A    between atoms: C_1  and  C_12 
REMARK    2  A    between atoms: C_2  and  O_3 
REMARK    3  A    between atoms: C_4  and  O_5 
REMARK    4  A    between atoms: C_6  and  O_7 
REMARK    5  A    between atoms: C_8  and  C_10 
REMARK    6  A    between atoms: C_10  and  O_11 
ROOT
HETATM    1  C   UNK N   1      31.415  15.765   7.196  0.00  0.00     0.210 C 
HETATM    2  C   UNK N   1      31.779  16.026   8.678  0.00  0.00     0.184 C 
HETATM    3  C   UNK N   1      32.766  14.953   9.157  0.00  0.00     0.181 C 
HETATM    4  C   UNK N   1      33.961  14.892   8.196  0.00  0.00     0.180 C 
HETATM    5  C   UNK N   1      33.450  14.720   6.746  0.00  0.00     0.177 C 
HETATM    6  O   UNK N   1      32.591  15.799   6.393  0.00  0.00    -0.366 OA
ENDROOT
BRANCH   1   7
HETATM    7  C   UNK N   1      30.429  16.799   6.731  0.00  0.00     0.084 A 
HETATM    8  N   UNK N   1      29.760  17.669   7.543  0.00  0.00    -0.351 N 
HETATM    9  C   UNK N   1      28.896  18.465   6.823  0.00  0.00     0.050 A 
ATOM     10  HN  UNK N   1      29.883  17.722   8.554  1.00  0.00     0.166 HD
HETATM   11  C   UNK N   1      28.059  19.432   7.381  0.00  0.00     0.037 A 
HETATM   12  C   UNK N   1      28.879  18.241   5.445  0.00  0.00     0.033 A 
HETATM   13  C   UNK N   1      27.211  20.162   6.526  0.00  0.00    -0.060 A 
HETATM   14  C   UNK N   1      27.213  19.922   5.134  0.00  0.00     0.008 A 
HETATM   15  C   UNK N   1      26.300  21.190   7.093  0.00  0.00     0.048 C 
HETATM   16  C   UNK N   1      28.058  18.948   4.580  0.00  0.00     0.022 A 
HETATM   17  S   UNK N   1      29.957  17.034   5.150  0.00  0.00    -0.072 SA
ENDBRANCH   1   7
BRANCH   2  18
HETATM   18  O   UNK N   1      32.360  17.293   8.805  0.00  0.00    -0.390 OA
HETATM   19  H   UNK N   1      32.474  18.252   8.897  0.00  0.00     0.210 HD
ENDBRANCH   2  18
BRANCH   3  20
HETATM   20  O   UNK N   1      32.121  13.712   9.194  0.00  0.00    -0.390 OA
HETATM   21  H   UNK N   1      31.369  13.098   9.187  0.00  0.00     0.210 HD
ENDBRANCH   3  20
BRANCH   5  22
HETATM   22  C   UNK N   1      34.615  14.646   5.758  0.00  0.00     0.198 C 
BRANCH  22  23
HETATM   23  O   UNK N   1      35.633  15.538   6.101  0.00  0.00    -0.398 OA
HETATM   24  H   UNK N   1      36.125  16.241   6.555  0.00  0.00     0.209 HD
ENDBRANCH  22  23
ENDBRANCH   5  22
BRANCH   4  25
HETATM   25  O   UNK N   1      34.804  13.835   8.550  0.00  0.00    -0.390 OA
HETATM   26  H   UNK N   1      35.445  13.463   7.924  0.00  0.00     0.210 HD
ENDBRANCH   4  25
TORSDOF 6
ENDMDL
