REMARK  13 active torsions:
REMARK  status: ('A' for Active; 'I' for Inactive)
REMARK    1  A    between atoms: C_2  and  S_1 
REMARK    2  A    between atoms: C_2  and  C_3 
REMARK    3  A    between atoms: C_2  and  C_8 
REMARK    4  A    between atoms: C_3  and  C_4 
REMARK    5  A    between atoms: C_4  and  C_5 
REMARK    6  A    between atoms: C_5  and  C_6 
REMARK       I    between atoms: C_8  and  N_10 
REMARK    7  A    between atoms: C_11  and  N_10 
REMARK    8  A    between atoms: C_11  and  C_12 
REMARK    9  A    between atoms: C_11  and  C_19 
REMARK   10  A    between atoms: C_12  and  C_13 
REMARK       I    between atoms: C_19  and  N_21 
REMARK   11  A    between atoms: N_21  and  C_22 
REMARK   12  A    between atoms: C_22  and  C_24 
REMARK   13  A    between atoms: C_24  and  O_26 
ROOT
HETATM    1  C   UNK N   1       0.519   1.573  -0.260  0.00  0.00     0.180 C 
ENDROOT
BRANCH   1   2
HETATM    2  N   UNK N   1      -0.869   1.784   0.142  0.00  0.00    -0.346 N 
HETATM    3  C   UNK N   1      -1.933   0.937   0.047  0.00  0.00     0.232 C 
HETATM    4  O   UNK N   1      -1.803  -0.193  -0.398  0.00  0.00    -0.272 OA
HETATM    5  H   UNK N   1      -1.065   2.663   0.538  0.00  0.00     0.163 HD
BRANCH   3   6
HETATM    6  C   UNK N   1      -3.304   1.439   0.447  0.00  0.00     0.136 C 
BRANCH   6   7
HETATM    7  S   UNK N   1      -3.671   2.958  -0.485  0.00  0.00    -0.168 SA
HETATM    8  H   UNK N   1      -2.824   3.763  -1.181  0.00  0.00     0.102 HD
ENDBRANCH   6   7
BRANCH   6   9
HETATM    9  C   UNK N   1      -4.431   0.449   0.143  0.00  0.00     0.024 C 
BRANCH   9  10
HETATM   10  C   UNK N   1      -4.340  -0.834   0.957  0.00  0.00     0.002 C 
BRANCH  10  11
HETATM   11  C   UNK N   1      -4.467  -2.044   0.040  0.00  0.00    -0.000 C 
BRANCH  11  12
HETATM   12  C   UNK N   1      -5.868  -2.174  -0.541  0.00  0.00    -0.005 C 
HETATM   13  C   UNK N   1      -6.827  -2.711   0.503  0.00  0.00     0.005 C 
ENDBRANCH  11  12
ENDBRANCH  10  11
ENDBRANCH   9  10
ENDBRANCH   6   9
ENDBRANCH   3   6
ENDBRANCH   1   2
BRANCH   1  14
HETATM   14  C   UNK N   1       1.454   2.059   0.860  0.00  0.00     0.073 C 
BRANCH  14  15
HETATM   15  C   UNK N   1       2.818   2.357   0.300  0.00  0.00    -0.056 A 
HETATM   16  C   UNK N   1       2.999   3.453  -0.554  0.00  0.00     0.007 A 
HETATM   17  C   UNK N   1       4.246   3.695  -1.136  0.00  0.00     0.001 A 
HETATM   18  C   UNK N   1       5.316   2.837  -0.873  0.00  0.00     0.000 A 
HETATM   19  C   UNK N   1       5.143   1.746  -0.016  0.00  0.00     0.001 A 
HETATM   20  C   UNK N   1       3.897   1.507   0.572  0.00  0.00     0.007 A 
ENDBRANCH  14  15
ENDBRANCH   1  14
BRANCH   1  21
HETATM   21  C   UNK N   1       0.883   0.166  -0.720  0.00  0.00     0.241 C 
HETATM   22  O   UNK N   1       0.417  -0.267  -1.761  0.00  0.00    -0.271 OA
HETATM   23  N   UNK N   1       1.778  -0.575  -0.006  0.00  0.00    -0.345 N 
HETATM   24  H   UNK N   1       2.115  -0.202   0.840  0.00  0.00     0.163 HD
BRANCH  23  25
HETATM   25  C   UNK N   1       2.263  -1.879  -0.414  0.00  0.00     0.178 C 
HETATM   26  C   UNK N   1       1.108  -2.868  -0.523  0.00  0.00     0.043 C 
BRANCH  25  27
HETATM   27  C   UNK N   1       3.290  -2.357   0.580  0.00  0.00     0.163 C 
HETATM   28  O   UNK N   1       4.293  -1.691   0.783  0.00  0.00    -0.648 OA
BRANCH  27  29
HETATM   29  O   UNK N   1       3.122  -3.518   1.246  0.00  0.00    -0.775 OA
HETATM   30  H   UNK N   1       2.365  -3.820   1.708  0.00  0.00     0.167 HD
ENDBRANCH  27  29
ENDBRANCH  25  27
ENDBRANCH  23  25
ENDBRANCH   1  21
TORSDOF 13
