MODEL 1
REMARK VINA RESULT:      -6.6      0.000      0.000
REMARK  13 active torsions:
REMARK  status: ('A' for Active; 'I' for Inactive)
REMARK    1  A    between atoms: C_2  and  S_1 
REMARK    2  A    between atoms: C_2  and  C_3 
REMARK    3  A    between atoms: C_2  and  C_8 
REMARK    4  A    between atoms: C_3  and  C_4 
REMARK    5  A    between atoms: C_4  and  C_5 
REMARK    6  A    between atoms: C_5  and  C_6 
REMARK       I    between atoms: C_8  and  N_10 
REMARK    7  A    between atoms: C_11  and  N_10 
REMARK    8  A    between atoms: C_11  and  C_12 
REMARK    9  A    between atoms: C_11  and  C_19 
REMARK   10  A    between atoms: C_12  and  C_13 
REMARK       I    between atoms: C_19  and  N_21 
REMARK   11  A    between atoms: N_21  and  C_22 
REMARK   12  A    between atoms: C_22  and  C_24 
REMARK   13  A    between atoms: C_24  and  O_26 
ROOT
HETATM    1  C   UNK N   1      21.734  17.288   5.100  0.00  0.00     0.180 C 
ENDROOT
BRANCH   1   2
HETATM    2  N   UNK N   1      21.123  16.790   6.329  0.00  0.00    -0.346 N 
HETATM    3  C   UNK N   1      20.690  17.484   7.420  0.00  0.00     0.232 C 
HETATM    4  O   UNK N   1      20.754  18.703   7.460  0.00  0.00    -0.272 OA
HETATM    5  H   UNK N   1      21.006  15.814   6.378  0.00  0.00     0.163 HD
BRANCH   3   6
HETATM    6  C   UNK N   1      20.180  16.714   8.620  0.00  0.00     0.136 C 
BRANCH   6   7
HETATM    7  S   UNK N   1      18.410  17.072   8.842  0.00  0.00    -0.168 SA
HETATM    8  H   UNK N   1      17.687  17.142   9.992  0.00  0.00     0.102 HD
ENDBRANCH   6   7
BRANCH   6   9
HETATM    9  C   UNK N   1      20.311  15.196   8.474  0.00  0.00     0.024 C 
BRANCH   9  10
HETATM   10  C   UNK N   1      21.333  14.586   9.423  0.00  0.00     0.002 C 
BRANCH  10  11
HETATM   11  C   UNK N   1      21.097  13.086   9.550  0.00  0.00    -0.000 C 
BRANCH  11  12
HETATM   12  C   UNK N   1      21.792  12.502  10.772  0.00  0.00    -0.005 C 
HETATM   13  C   UNK N   1      22.896  11.553  10.351  0.00  0.00     0.005 C 
ENDBRANCH  11  12
ENDBRANCH  10  11
ENDBRANCH   9  10
ENDBRANCH   6   9
ENDBRANCH   3   6
ENDBRANCH   1   2
BRANCH   1  14
HETATM   14  C   UNK N   1      22.858  16.333   4.666  0.00  0.00     0.073 C 
BRANCH  14  15
HETATM   15  C   UNK N   1      24.130  17.103   4.437  0.00  0.00    -0.056 A 
HETATM   16  C   UNK N   1      24.237  18.426   4.886  0.00  0.00     0.007 A 
HETATM   17  C   UNK N   1      25.386  19.173   4.614  0.00  0.00     0.001 A 
HETATM   18  C   UNK N   1      26.431  18.602   3.884  0.00  0.00     0.000 A 
HETATM   19  C   UNK N   1      26.333  17.280   3.439  0.00  0.00     0.001 A 
HETATM   20  C   UNK N   1      25.185  16.531   3.717  0.00  0.00     0.007 A 
ENDBRANCH  14  15
ENDBRANCH   1  14
BRANCH   1  21
HETATM   21  C   UNK N   1      20.784  17.593   3.948  0.00  0.00     0.241 C 
HETATM   22  O   UNK N   1      19.635  17.185   3.991  0.00  0.00    -0.271 OA
HETATM   23  N   UNK N   1      21.199  18.374   2.910  0.00  0.00    -0.345 N 
HETATM   24  H   UNK N   1      22.139  18.665   2.898  0.00  0.00     0.163 HD
BRANCH  23  25
HETATM   25  C   UNK N   1      20.342  18.802   1.821  0.00  0.00     0.178 C 
HETATM   26  C   UNK N   1      20.258  17.719   0.752  0.00  0.00     0.043 C 
BRANCH  25  27
HETATM   27  C   UNK N   1      20.880  20.087   1.245  0.00  0.00     0.163 C 
HETATM   28  O   UNK N   1      21.597  20.803   1.926  0.00  0.00    -0.648 OA
BRANCH  27  29
HETATM   29  O   UNK N   1      20.573  20.464  -0.013  0.00  0.00    -0.775 OA
HETATM   30  H   UNK N   1      20.765  20.023  -0.816  0.00  0.00     0.167 HD
ENDBRANCH  27  29
ENDBRANCH  25  27
ENDBRANCH  23  25
ENDBRANCH   1  21
TORSDOF 13
ENDMDL
MODEL 2
REMARK VINA RESULT:      -6.5     13.476     16.267
REMARK  13 active torsions:
REMARK  status: ('A' for Active; 'I' for Inactive)
REMARK    1  A    between atoms: C_2  and  S_1 
REMARK    2  A    between atoms: C_2  and  C_3 
REMARK    3  A    between atoms: C_2  and  C_8 
REMARK    4  A    between atoms: C_3  and  C_4 
REMARK    5  A    between atoms: C_4  and  C_5 
REMARK    6  A    between atoms: C_5  and  C_6 
REMARK       I    between atoms: C_8  and  N_10 
REMARK    7  A    between atoms: C_11  and  N_10 
REMARK    8  A    between atoms: C_11  and  C_12 
REMARK    9  A    between atoms: C_11  and  C_19 
REMARK   10  A    between atoms: C_12  and  C_13 
REMARK       I    between atoms: C_19  and  N_21 
REMARK   11  A    between atoms: N_21  and  C_22 
REMARK   12  A    between atoms: C_22  and  C_24 
REMARK   13  A    between atoms: C_24  and  O_26 
ROOT
HETATM    1  C   UNK N   1      27.429  25.167  -3.709  0.00  0.00     0.180 C 
ENDROOT
BRANCH   1   2
HETATM    2  N   UNK N   1      27.263  26.608  -3.878  0.00  0.00    -0.346 N 
HETATM    3  C   UNK N   1      26.516  27.483  -3.147  0.00  0.00     0.232 C 
HETATM    4  O   UNK N   1      25.880  27.110  -2.173  0.00  0.00    -0.272 OA
HETATM    5  H   UNK N   1      27.762  27.005  -4.627  0.00  0.00     0.163 HD
BRANCH   3   6
HETATM    6  C   UNK N   1      26.434  28.926  -3.595  0.00  0.00     0.136 C 
BRANCH   6   7
HETATM    7  S   UNK N   1      27.590  29.920  -2.601  0.00  0.00    -0.168 SA
HETATM    8  H   UNK N   1      27.695  30.015  -1.249  0.00  0.00     0.102 HD
ENDBRANCH   6   7
BRANCH   6   9
HETATM    9  C   UNK N   1      26.818  29.134  -5.062  0.00  0.00     0.024 C 
BRANCH   9  10
HETATM   10  C   UNK N   1      27.864  30.222  -5.261  0.00  0.00     0.002 C 
BRANCH  10  11
HETATM   11  C   UNK N   1      28.772  29.866  -6.432  0.00  0.00    -0.000 C 
BRANCH  11  12
HETATM   12  C   UNK N   1      28.198  28.735  -7.274  0.00  0.00    -0.005 C 
HETATM   13  C   UNK N   1      29.146  28.381  -8.403  0.00  0.00     0.005 C 
ENDBRANCH  11  12
ENDBRANCH  10  11
ENDBRANCH   9  10
ENDBRANCH   6   9
ENDBRANCH   3   6
ENDBRANCH   1   2
BRANCH   1  14
HETATM   14  C   UNK N   1      26.392  24.430  -4.572  0.00  0.00     0.073 C 
BRANCH  14  15
HETATM   15  C   UNK N   1      26.481  24.899  -5.999  0.00  0.00    -0.056 A 
HETATM   16  C   UNK N   1      25.574  25.854  -6.478  0.00  0.00     0.007 A 
HETATM   17  C   UNK N   1      25.603  26.242  -7.820  0.00  0.00     0.001 A 
HETATM   18  C   UNK N   1      26.534  25.671  -8.691  0.00  0.00     0.000 A 
HETATM   19  C   UNK N   1      27.446  24.723  -8.216  0.00  0.00     0.001 A 
HETATM   20  C   UNK N   1      27.421  24.339  -6.872  0.00  0.00     0.007 A 
ENDBRANCH  14  15
ENDBRANCH   1  14
BRANCH   1  21
HETATM   21  C   UNK N   1      28.833  24.617  -3.931  0.00  0.00     0.241 C 
HETATM   22  O   UNK N   1      29.747  25.384  -4.187  0.00  0.00    -0.271 OA
HETATM   23  N   UNK N   1      29.076  23.284  -3.777  0.00  0.00    -0.345 N 
HETATM   24  H   UNK N   1      28.310  22.694  -3.593  0.00  0.00     0.163 HD
BRANCH  23  25
HETATM   25  C   UNK N   1      30.391  22.681  -3.868  0.00  0.00     0.178 C 
HETATM   26  C   UNK N   1      30.322  21.360  -4.625  0.00  0.00     0.043 C 
BRANCH  25  27
HETATM   27  C   UNK N   1      30.939  22.479  -2.478  0.00  0.00     0.163 C 
HETATM   28  O   UNK N   1      31.955  21.821  -2.317  0.00  0.00    -0.648 OA
BRANCH  27  29
HETATM   29  O   UNK N   1      30.317  23.007  -1.404  0.00  0.00    -0.775 OA
HETATM   30  H   UNK N   1      30.669  23.180  -0.554  0.00  0.00     0.167 HD
ENDBRANCH  27  29
ENDBRANCH  25  27
ENDBRANCH  23  25
ENDBRANCH   1  21
TORSDOF 13
ENDMDL
MODEL 3
REMARK VINA RESULT:      -6.4     13.247     15.276
REMARK  13 active torsions:
REMARK  status: ('A' for Active; 'I' for Inactive)
REMARK    1  A    between atoms: C_2  and  S_1 
REMARK    2  A    between atoms: C_2  and  C_3 
REMARK    3  A    between atoms: C_2  and  C_8 
REMARK    4  A    between atoms: C_3  and  C_4 
REMARK    5  A    between atoms: C_4  and  C_5 
REMARK    6  A    between atoms: C_5  and  C_6 
REMARK       I    between atoms: C_8  and  N_10 
REMARK    7  A    between atoms: C_11  and  N_10 
REMARK    8  A    between atoms: C_11  and  C_12 
REMARK    9  A    between atoms: C_11  and  C_19 
REMARK   10  A    between atoms: C_12  and  C_13 
REMARK       I    between atoms: C_19  and  N_21 
REMARK   11  A    between atoms: N_21  and  C_22 
REMARK   12  A    between atoms: C_22  and  C_24 
REMARK   13  A    between atoms: C_24  and  O_26 
ROOT
HETATM    1  C   UNK N   1      36.492  14.944  10.620  0.00  0.00     0.180 C 
ENDROOT
BRANCH   1   2
HETATM    2  N   UNK N   1      36.674  14.431  11.975  0.00  0.00    -0.346 N 
HETATM    3  C   UNK N   1      35.748  13.929  12.839  0.00  0.00     0.232 C 
HETATM    4  O   UNK N   1      34.574  13.826  12.518  0.00  0.00    -0.272 OA
HETATM    5  H   UNK N   1      37.598  14.450  12.313  0.00  0.00     0.163 HD
BRANCH   3   6
HETATM    6  C   UNK N   1      36.183  13.553  14.240  0.00  0.00     0.136 C 
BRANCH   6   7
HETATM    7  S   UNK N   1      36.905  15.017  15.045  0.00  0.00    -0.168 SA
HETATM    8  H   UNK N   1      37.558  16.070  14.485  0.00  0.00     0.102 HD
ENDBRANCH   6   7
BRANCH   6   9
HETATM    9  C   UNK N   1      35.034  13.078  15.131  0.00  0.00     0.024 C 
BRANCH   9  10
HETATM   10  C   UNK N   1      35.416  11.914  16.035  0.00  0.00     0.002 C 
BRANCH  10  11
HETATM   11  C   UNK N   1      34.845  10.614  15.481  0.00  0.00    -0.000 C 
BRANCH  11  12
HETATM   12  C   UNK N   1      33.634  10.857  14.592  0.00  0.00    -0.005 C 
HETATM   13  C   UNK N   1      33.890  10.335  13.192  0.00  0.00     0.005 C 
ENDBRANCH  11  12
ENDBRANCH  10  11
ENDBRANCH   9  10
ENDBRANCH   6   9
ENDBRANCH   3   6
ENDBRANCH   1   2
BRANCH   1  14
HETATM   14  C   UNK N   1      36.162  13.778   9.673  0.00  0.00     0.073 C 
BRANCH  14  15
HETATM   15  C   UNK N   1      37.108  13.780   8.503  0.00  0.00    -0.056 A 
HETATM   16  C   UNK N   1      38.490  13.699   8.722  0.00  0.00     0.007 A 
HETATM   17  C   UNK N   1      39.379  13.773   7.646  0.00  0.00     0.001 A 
HETATM   18  C   UNK N   1      38.891  13.936   6.348  0.00  0.00     0.000 A 
HETATM   19  C   UNK N   1      37.513  14.010   6.124  0.00  0.00     0.001 A 
HETATM   20  C   UNK N   1      36.622  13.929   7.199  0.00  0.00     0.007 A 
ENDBRANCH  14  15
ENDBRANCH   1  14
BRANCH   1  21
HETATM   21  C   UNK N   1      35.501  16.091  10.459  0.00  0.00     0.241 C 
HETATM   22  O   UNK N   1      35.417  16.941  11.330  0.00  0.00    -0.271 OA
HETATM   23  N   UNK N   1      34.764  16.201   9.317  0.00  0.00    -0.345 N 
HETATM   24  H   UNK N   1      34.841  15.484   8.647  0.00  0.00     0.163 HD
BRANCH  23  25
HETATM   25  C   UNK N   1      33.872  17.306   9.028  0.00  0.00     0.178 C 
HETATM   26  C   UNK N   1      32.563  16.796   8.437  0.00  0.00     0.043 C 
BRANCH  25  27
HETATM   27  C   UNK N   1      34.556  18.258   8.081  0.00  0.00     0.163 C 
HETATM   28  O   UNK N   1      35.226  19.178   8.525  0.00  0.00    -0.648 OA
BRANCH  27  29
HETATM   29  O   UNK N   1      34.433  18.115   6.746  0.00  0.00    -0.775 OA
HETATM   30  H   UNK N   1      33.845  18.556   6.164  0.00  0.00     0.167 HD
ENDBRANCH  27  29
ENDBRANCH  25  27
ENDBRANCH  23  25
ENDBRANCH   1  21
TORSDOF 13
ENDMDL
MODEL 4
REMARK VINA RESULT:      -6.3      2.293      2.647
REMARK  13 active torsions:
REMARK  status: ('A' for Active; 'I' for Inactive)
REMARK    1  A    between atoms: C_2  and  S_1 
REMARK    2  A    between atoms: C_2  and  C_3 
REMARK    3  A    between atoms: C_2  and  C_8 
REMARK    4  A    between atoms: C_3  and  C_4 
REMARK    5  A    between atoms: C_4  and  C_5 
REMARK    6  A    between atoms: C_5  and  C_6 
REMARK       I    between atoms: C_8  and  N_10 
REMARK    7  A    between atoms: C_11  and  N_10 
REMARK    8  A    between atoms: C_11  and  C_12 
REMARK    9  A    between atoms: C_11  and  C_19 
REMARK   10  A    between atoms: C_12  and  C_13 
REMARK       I    between atoms: C_19  and  N_21 
REMARK   11  A    between atoms: N_21  and  C_22 
REMARK   12  A    between atoms: C_22  and  C_24 
REMARK   13  A    between atoms: C_24  and  O_26 
ROOT
HETATM    1  C   UNK N   1      23.200  17.426   5.203  0.00  0.00     0.180 C 
ENDROOT
BRANCH   1   2
HETATM    2  N   UNK N   1      22.958  16.121   5.814  0.00  0.00    -0.346 N 
HETATM    3  C   UNK N   1      23.825  15.307   6.481  0.00  0.00     0.232 C 
HETATM    4  O   UNK N   1      24.984  15.640   6.672  0.00  0.00    -0.272 OA
HETATM    5  H   UNK N   1      22.039  15.781   5.733  0.00  0.00     0.163 HD
BRANCH   3   6
HETATM    6  C   UNK N   1      23.345  13.945   6.934  0.00  0.00     0.136 C 
BRANCH   6   7
HETATM    7  S   UNK N   1      24.663  13.148   7.903  0.00  0.00    -0.168 SA
HETATM    8  H   UNK N   1      24.561  12.197   8.871  0.00  0.00     0.102 HD
ENDBRANCH   6   7
BRANCH   6   9
HETATM    9  C   UNK N   1      22.106  14.000   7.832  0.00  0.00     0.024 C 
BRANCH   9  10
HETATM   10  C   UNK N   1      22.399  13.644   9.283  0.00  0.00     0.002 C 
BRANCH  10  11
HETATM   11  C   UNK N   1      21.160  13.041   9.932  0.00  0.00    -0.000 C 
BRANCH  11  12
HETATM   12  C   UNK N   1      21.504  12.241  11.181  0.00  0.00    -0.005 C 
HETATM   13  C   UNK N   1      22.987  11.933  11.221  0.00  0.00     0.005 C 
ENDBRANCH  11  12
ENDBRANCH  10  11
ENDBRANCH   9  10
ENDBRANCH   6   9
ENDBRANCH   3   6
ENDBRANCH   1   2
BRANCH   1  14
HETATM   14  C   UNK N   1      24.038  17.244   3.927  0.00  0.00     0.073 C 
BRANCH  14  15
HETATM   15  C   UNK N   1      25.199  18.200   3.932  0.00  0.00    -0.056 A 
HETATM   16  C   UNK N   1      25.038  19.499   3.432  0.00  0.00     0.007 A 
HETATM   17  C   UNK N   1      26.128  20.370   3.366  0.00  0.00     0.001 A 
HETATM   18  C   UNK N   1      27.388  19.943   3.793  0.00  0.00     0.000 A 
HETATM   19  C   UNK N   1      27.553  18.651   4.300  0.00  0.00     0.001 A 
HETATM   20  C   UNK N   1      26.461  17.781   4.372  0.00  0.00     0.007 A 
ENDBRANCH  14  15
ENDBRANCH   1  14
BRANCH   1  21
HETATM   21  C   UNK N   1      21.970  18.289   4.946  0.00  0.00     0.241 C 
HETATM   22  O   UNK N   1      21.355  18.759   5.889  0.00  0.00    -0.271 OA
HETATM   23  N   UNK N   1      21.603  18.590   3.667  0.00  0.00    -0.345 N 
HETATM   24  H   UNK N   1      22.109  18.175   2.932  0.00  0.00     0.163 HD
BRANCH  23  25
HETATM   25  C   UNK N   1      20.514  19.482   3.322  0.00  0.00     0.178 C 
HETATM   26  C   UNK N   1      19.359  18.701   2.705  0.00  0.00     0.043 C 
BRANCH  25  27
HETATM   27  C   UNK N   1      21.020  20.536   2.371  0.00  0.00     0.163 C 
HETATM   28  O   UNK N   1      21.926  21.279   2.716  0.00  0.00    -0.648 OA
BRANCH  27  29
HETATM   29  O   UNK N   1      20.481  20.677   1.143  0.00  0.00    -0.775 OA
HETATM   30  H   UNK N   1      20.091  21.439   0.762  0.00  0.00     0.167 HD
ENDBRANCH  27  29
ENDBRANCH  25  27
ENDBRANCH  23  25
ENDBRANCH   1  21
TORSDOF 13
ENDMDL
MODEL 5
REMARK VINA RESULT:      -6.3     13.761     15.783
REMARK  13 active torsions:
REMARK  status: ('A' for Active; 'I' for Inactive)
REMARK    1  A    between atoms: C_2  and  S_1 
REMARK    2  A    between atoms: C_2  and  C_3 
REMARK    3  A    between atoms: C_2  and  C_8 
REMARK    4  A    between atoms: C_3  and  C_4 
REMARK    5  A    between atoms: C_4  and  C_5 
REMARK    6  A    between atoms: C_5  and  C_6 
REMARK       I    between atoms: C_8  and  N_10 
REMARK    7  A    between atoms: C_11  and  N_10 
REMARK    8  A    between atoms: C_11  and  C_12 
REMARK    9  A    between atoms: C_11  and  C_19 
REMARK   10  A    between atoms: C_12  and  C_13 
REMARK       I    between atoms: C_19  and  N_21 
REMARK   11  A    between atoms: N_21  and  C_22 
REMARK   12  A    between atoms: C_22  and  C_24 
REMARK   13  A    between atoms: C_24  and  O_26 
ROOT
HETATM    1  C   UNK N   1      28.666  24.123  -4.888  0.00  0.00     0.180 C 
ENDROOT
BRANCH   1   2
HETATM    2  N   UNK N   1      28.024  25.363  -4.461  0.00  0.00    -0.346 N 
HETATM    3  C   UNK N   1      26.935  25.539  -3.660  0.00  0.00     0.232 C 
HETATM    4  O   UNK N   1      26.361  24.587  -3.155  0.00  0.00    -0.272 OA
HETATM    5  H   UNK N   1      28.435  26.190  -4.800  0.00  0.00     0.163 HD
BRANCH   3   6
HETATM    6  C   UNK N   1      26.402  26.941  -3.450  0.00  0.00     0.136 C 
BRANCH   6   7
HETATM    7  S   UNK N   1      27.788  28.117  -3.527  0.00  0.00    -0.168 SA
HETATM    8  H   UNK N   1      29.115  27.891  -3.334  0.00  0.00     0.102 HD
ENDBRANCH   6   7
BRANCH   6   9
HETATM    9  C   UNK N   1      25.391  27.377  -4.514  0.00  0.00     0.024 C 
BRANCH   9  10
HETATM   10  C   UNK N   1      26.021  27.615  -5.879  0.00  0.00     0.002 C 
BRANCH  10  11
HETATM   11  C   UNK N   1      25.522  26.572  -6.873  0.00  0.00    -0.000 C 
BRANCH  11  12
HETATM   12  C   UNK N   1      26.445  26.445  -8.077  0.00  0.00    -0.005 C 
HETATM   13  C   UNK N   1      25.793  25.607  -9.158  0.00  0.00     0.005 C 
ENDBRANCH  11  12
ENDBRANCH  10  11
ENDBRANCH   9  10
ENDBRANCH   6   9
ENDBRANCH   3   6
ENDBRANCH   1   2
BRANCH   1  14
HETATM   14  C   UNK N   1      28.648  24.041  -6.423  0.00  0.00     0.073 C 
BRANCH  14  15
HETATM   15  C   UNK N   1      27.647  23.013  -6.873  0.00  0.00    -0.056 A 
HETATM   16  C   UNK N   1      28.028  22.017  -7.782  0.00  0.00     0.007 A 
HETATM   17  C   UNK N   1      27.087  21.102  -8.261  0.00  0.00     0.001 A 
HETATM   18  C   UNK N   1      25.758  21.183  -7.839  0.00  0.00     0.000 A 
HETATM   19  C   UNK N   1      25.374  22.170  -6.926  0.00  0.00     0.001 A 
HETATM   20  C   UNK N   1      26.317  23.082  -6.441  0.00  0.00     0.007 A 
ENDBRANCH  14  15
ENDBRANCH   1  14
BRANCH   1  21
HETATM   21  C   UNK N   1      30.060  23.857  -4.331  0.00  0.00     0.241 C 
HETATM   22  O   UNK N   1      30.443  24.470  -3.348  0.00  0.00    -0.271 OA
HETATM   23  N   UNK N   1      30.845  22.891  -4.888  0.00  0.00    -0.345 N 
HETATM   24  H   UNK N   1      30.512  22.434  -5.693  0.00  0.00     0.163 HD
BRANCH  23  25
HETATM   25  C   UNK N   1      32.140  22.496  -4.370  0.00  0.00     0.178 C 
HETATM   26  C   UNK N   1      33.048  22.029  -5.502  0.00  0.00     0.043 C 
BRANCH  25  27
HETATM   27  C   UNK N   1      31.951  21.407  -3.346  0.00  0.00     0.163 C 
HETATM   28  O   UNK N   1      32.018  21.674  -2.157  0.00  0.00    -0.648 OA
BRANCH  27  29
HETATM   29  O   UNK N   1      31.716  20.133  -3.725  0.00  0.00    -0.775 OA
HETATM   30  H   UNK N   1      31.837  19.347  -3.230  0.00  0.00     0.167 HD
ENDBRANCH  27  29
ENDBRANCH  25  27
ENDBRANCH  23  25
ENDBRANCH   1  21
TORSDOF 13
ENDMDL
MODEL 6
REMARK VINA RESULT:      -6.2     13.528     15.545
REMARK  13 active torsions:
REMARK  status: ('A' for Active; 'I' for Inactive)
REMARK    1  A    between atoms: C_2  and  S_1 
REMARK    2  A    between atoms: C_2  and  C_3 
REMARK    3  A    between atoms: C_2  and  C_8 
REMARK    4  A    between atoms: C_3  and  C_4 
REMARK    5  A    between atoms: C_4  and  C_5 
REMARK    6  A    between atoms: C_5  and  C_6 
REMARK       I    between atoms: C_8  and  N_10 
REMARK    7  A    between atoms: C_11  and  N_10 
REMARK    8  A    between atoms: C_11  and  C_12 
REMARK    9  A    between atoms: C_11  and  C_19 
REMARK   10  A    between atoms: C_12  and  C_13 
REMARK       I    between atoms: C_19  and  N_21 
REMARK   11  A    between atoms: N_21  and  C_22 
REMARK   12  A    between atoms: C_22  and  C_24 
REMARK   13  A    between atoms: C_24  and  O_26 
ROOT
HETATM    1  C   UNK N   1      26.045  24.254  -5.922  0.00  0.00     0.180 C 
ENDROOT
BRANCH   1   2
HETATM    2  N   UNK N   1      27.310  24.377  -5.203  0.00  0.00    -0.346 N 
HETATM    3  C   UNK N   1      27.558  24.259  -3.867  0.00  0.00     0.232 C 
HETATM    4  O   UNK N   1      26.664  23.986  -3.080  0.00  0.00    -0.272 OA
HETATM    5  H   UNK N   1      28.096  24.572  -5.761  0.00  0.00     0.163 HD
BRANCH   3   6
HETATM    6  C   UNK N   1      28.956  24.535  -3.357  0.00  0.00     0.136 C 
BRANCH   6   7
HETATM    7  S   UNK N   1      29.538  23.088  -2.420  0.00  0.00    -0.168 SA
HETATM    8  H   UNK N   1      29.603  22.908  -1.073  0.00  0.00     0.102 HD
ENDBRANCH   6   7
BRANCH   6   9
HETATM    9  C   UNK N   1      29.976  24.782  -4.471  0.00  0.00     0.024 C 
BRANCH   9  10
HETATM   10  C   UNK N   1      30.193  26.258  -4.771  0.00  0.00     0.002 C 
BRANCH  10  11
HETATM   11  C   UNK N   1      29.707  27.106  -3.602  0.00  0.00    -0.000 C 
BRANCH  11  12
HETATM   12  C   UNK N   1      30.388  28.467  -3.563  0.00  0.00    -0.005 C 
HETATM   13  C   UNK N   1      31.299  28.569  -2.355  0.00  0.00     0.005 C 
ENDBRANCH  11  12
ENDBRANCH  10  11
ENDBRANCH   9  10
ENDBRANCH   6   9
ENDBRANCH   3   6
ENDBRANCH   1   2
BRANCH   1  14
HETATM   14  C   UNK N   1      25.886  25.444  -6.882  0.00  0.00     0.073 C 
BRANCH  14  15
HETATM   15  C   UNK N   1      26.107  26.736  -6.143  0.00  0.00    -0.056 A 
HETATM   16  C   UNK N   1      27.112  27.618  -6.561  0.00  0.00     0.007 A 
HETATM   17  C   UNK N   1      27.372  28.785  -5.838  0.00  0.00     0.001 A 
HETATM   18  C   UNK N   1      26.632  29.071  -4.688  0.00  0.00     0.000 A 
HETATM   19  C   UNK N   1      25.623  28.198  -4.271  0.00  0.00     0.001 A 
HETATM   20  C   UNK N   1      25.358  27.033  -4.998  0.00  0.00     0.007 A 
ENDBRANCH  14  15
ENDBRANCH   1  14
BRANCH   1  21
HETATM   21  C   UNK N   1      25.797  22.927  -6.631  0.00  0.00     0.241 C 
HETATM   22  O   UNK N   1      24.715  22.376  -6.518  0.00  0.00    -0.271 OA
HETATM   23  N   UNK N   1      26.757  22.398  -7.443  0.00  0.00    -0.345 N 
HETATM   24  H   UNK N   1      27.625  22.858  -7.492  0.00  0.00     0.163 HD
BRANCH  23  25
HETATM   25  C   UNK N   1      26.579  21.197  -8.236  0.00  0.00     0.178 C 
HETATM   26  C   UNK N   1      27.891  20.428  -8.342  0.00  0.00     0.043 C 
BRANCH  25  27
HETATM   27  C   UNK N   1      26.067  21.579  -9.601  0.00  0.00     0.163 C 
HETATM   28  O   UNK N   1      26.477  22.595 -10.140  0.00  0.00    -0.648 OA
BRANCH  27  29
HETATM   29  O   UNK N   1      25.153  20.817 -10.236  0.00  0.00    -0.775 OA
HETATM   30  H   UNK N   1      24.921  20.821 -11.144  0.00  0.00     0.167 HD
ENDBRANCH  27  29
ENDBRANCH  25  27
ENDBRANCH  23  25
ENDBRANCH   1  21
TORSDOF 13
ENDMDL
MODEL 7
REMARK VINA RESULT:      -6.1      2.291      3.420
REMARK  13 active torsions:
REMARK  status: ('A' for Active; 'I' for Inactive)
REMARK    1  A    between atoms: C_2  and  S_1 
REMARK    2  A    between atoms: C_2  and  C_3 
REMARK    3  A    between atoms: C_2  and  C_8 
REMARK    4  A    between atoms: C_3  and  C_4 
REMARK    5  A    between atoms: C_4  and  C_5 
REMARK    6  A    between atoms: C_5  and  C_6 
REMARK       I    between atoms: C_8  and  N_10 
REMARK    7  A    between atoms: C_11  and  N_10 
REMARK    8  A    between atoms: C_11  and  C_12 
REMARK    9  A    between atoms: C_11  and  C_19 
REMARK   10  A    between atoms: C_12  and  C_13 
REMARK       I    between atoms: C_19  and  N_21 
REMARK   11  A    between atoms: N_21  and  C_22 
REMARK   12  A    between atoms: C_22  and  C_24 
REMARK   13  A    between atoms: C_24  and  O_26 
ROOT
HETATM    1  C   UNK N   1      23.160  18.487   4.986  0.00  0.00     0.180 C 
ENDROOT
BRANCH   1   2
HETATM    2  N   UNK N   1      23.058  17.381   5.935  0.00  0.00    -0.346 N 
HETATM    3  C   UNK N   1      22.471  16.161   5.777  0.00  0.00     0.232 C 
HETATM    4  O   UNK N   1      21.954  15.840   4.718  0.00  0.00    -0.272 OA
HETATM    5  H   UNK N   1      23.471  17.539   6.813  0.00  0.00     0.163 HD
BRANCH   3   6
HETATM    6  C   UNK N   1      22.412  15.221   6.962  0.00  0.00     0.136 C 
BRANCH   6   7
HETATM    7  S   UNK N   1      20.811  14.356   6.950  0.00  0.00    -0.168 SA
HETATM    8  H   UNK N   1      20.557  13.021   7.009  0.00  0.00     0.102 HD
ENDBRANCH   6   7
BRANCH   6   9
HETATM    9  C   UNK N   1      23.499  14.143   6.943  0.00  0.00     0.024 C 
BRANCH   9  10
HETATM   10  C   UNK N   1      24.734  14.549   6.151  0.00  0.00     0.002 C 
BRANCH  10  11
HETATM   11  C   UNK N   1      25.786  15.131   7.086  0.00  0.00    -0.000 C 
BRANCH  11  12
HETATM   12  C   UNK N   1      26.912  15.814   6.323  0.00  0.00    -0.005 C 
HETATM   13  C   UNK N   1      27.593  16.849   7.196  0.00  0.00     0.005 C 
ENDBRANCH  11  12
ENDBRANCH  10  11
ENDBRANCH   9  10
ENDBRANCH   6   9
ENDBRANCH   3   6
ENDBRANCH   1   2
BRANCH   1  14
HETATM   14  C   UNK N   1      24.260  18.177   3.958  0.00  0.00     0.073 C 
BRANCH  14  15
HETATM   15  C   UNK N   1      25.549  18.836   4.366  0.00  0.00    -0.056 A 
HETATM   16  C   UNK N   1      25.526  19.946   5.221  0.00  0.00     0.007 A 
HETATM   17  C   UNK N   1      26.711  20.609   5.548  0.00  0.00     0.001 A 
HETATM   18  C   UNK N   1      27.925  20.171   5.014  0.00  0.00     0.000 A 
HETATM   19  C   UNK N   1      27.955  19.059   4.167  0.00  0.00     0.001 A 
HETATM   20  C   UNK N   1      26.770  18.391   3.844  0.00  0.00     0.007 A 
ENDBRANCH  14  15
ENDBRANCH   1  14
BRANCH   1  21
HETATM   21  C   UNK N   1      21.865  18.916   4.306  0.00  0.00     0.241 C 
HETATM   22  O   UNK N   1      21.043  19.566   4.930  0.00  0.00    -0.271 OA
HETATM   23  N   UNK N   1      21.660  18.632   2.988  0.00  0.00    -0.345 N 
HETATM   24  H   UNK N   1      22.334  18.086   2.523  0.00  0.00     0.163 HD
BRANCH  23  25
HETATM   25  C   UNK N   1      20.511  19.083   2.228  0.00  0.00     0.178 C 
HETATM   26  C   UNK N   1      20.004  17.971   1.317  0.00  0.00     0.043 C 
BRANCH  25  27
HETATM   27  C   UNK N   1      20.894  20.302   1.429  0.00  0.00     0.163 C 
HETATM   28  O   UNK N   1      20.988  20.225   0.214  0.00  0.00    -0.648 OA
BRANCH  27  29
HETATM   29  O   UNK N   1      21.144  21.479   2.038  0.00  0.00    -0.775 OA
HETATM   30  H   UNK N   1      20.533  22.084   2.410  0.00  0.00     0.167 HD
ENDBRANCH  27  29
ENDBRANCH  25  27
ENDBRANCH  23  25
ENDBRANCH   1  21
TORSDOF 13
ENDMDL
MODEL 8
REMARK VINA RESULT:      -6.1     10.460     12.482
REMARK  13 active torsions:
REMARK  status: ('A' for Active; 'I' for Inactive)
REMARK    1  A    between atoms: C_2  and  S_1 
REMARK    2  A    between atoms: C_2  and  C_3 
REMARK    3  A    between atoms: C_2  and  C_8 
REMARK    4  A    between atoms: C_3  and  C_4 
REMARK    5  A    between atoms: C_4  and  C_5 
REMARK    6  A    between atoms: C_5  and  C_6 
REMARK       I    between atoms: C_8  and  N_10 
REMARK    7  A    between atoms: C_11  and  N_10 
REMARK    8  A    between atoms: C_11  and  C_12 
REMARK    9  A    between atoms: C_11  and  C_19 
REMARK   10  A    between atoms: C_12  and  C_13 
REMARK       I    between atoms: C_19  and  N_21 
REMARK   11  A    between atoms: N_21  and  C_22 
REMARK   12  A    between atoms: C_22  and  C_24 
REMARK   13  A    between atoms: C_24  and  O_26 
ROOT
HETATM    1  C   UNK N   1      32.960  17.241   8.830  0.00  0.00     0.180 C 
ENDROOT
BRANCH   1   2
HETATM    2  N   UNK N   1      33.701  16.213   9.556  0.00  0.00    -0.346 N 
HETATM    3  C   UNK N   1      34.862  16.323  10.262  0.00  0.00     0.232 C 
HETATM    4  O   UNK N   1      35.426  17.399  10.388  0.00  0.00    -0.272 OA
HETATM    5  H   UNK N   1      33.306  15.312   9.533  0.00  0.00     0.163 HD
BRANCH   3   6
HETATM    6  C   UNK N   1      35.485  15.071  10.843  0.00  0.00     0.136 C 
BRANCH   6   7
HETATM    7  S   UNK N   1      36.951  14.631   9.861  0.00  0.00    -0.168 SA
HETATM    8  H   UNK N   1      37.018  14.060   8.629  0.00  0.00     0.102 HD
ENDBRANCH   6   7
BRANCH   6   9
HETATM    9  C   UNK N   1      35.954  15.237  12.291  0.00  0.00     0.024 C 
BRANCH   9  10
HETATM   10  C   UNK N   1      36.441  13.938  12.917  0.00  0.00     0.002 C 
BRANCH  10  11
HETATM   11  C   UNK N   1      35.286  13.231  13.616  0.00  0.00    -0.000 C 
BRANCH  11  12
HETATM   12  C   UNK N   1      35.705  12.648  14.959  0.00  0.00    -0.005 C 
HETATM   13  C   UNK N   1      34.692  13.004  16.030  0.00  0.00     0.005 C 
ENDBRANCH  11  12
ENDBRANCH  10  11
ENDBRANCH   9  10
ENDBRANCH   6   9
ENDBRANCH   3   6
ENDBRANCH   1   2
BRANCH   1  14
HETATM   14  C   UNK N   1      33.864  17.853   7.747  0.00  0.00     0.073 C 
BRANCH  14  15
HETATM   15  C   UNK N   1      33.766  17.049   6.479  0.00  0.00    -0.056 A 
HETATM   16  C   UNK N   1      34.497  15.862   6.346  0.00  0.00     0.007 A 
HETATM   17  C   UNK N   1      34.469  15.147   5.146  0.00  0.00     0.001 A 
HETATM   18  C   UNK N   1      33.714  15.621   4.070  0.00  0.00     0.000 A 
HETATM   19  C   UNK N   1      32.976  16.801   4.200  0.00  0.00     0.001 A 
HETATM   20  C   UNK N   1      33.000  17.514   5.403  0.00  0.00     0.007 A 
ENDBRANCH  14  15
ENDBRANCH   1  14
BRANCH   1  21
HETATM   21  C   UNK N   1      31.609  16.825   8.260  0.00  0.00     0.241 C 
HETATM   22  O   UNK N   1      31.425  15.664   7.932  0.00  0.00    -0.271 OA
HETATM   23  N   UNK N   1      30.592  17.731   8.184  0.00  0.00    -0.345 N 
HETATM   24  H   UNK N   1      30.784  18.662   8.437  0.00  0.00     0.163 HD
BRANCH  23  25
HETATM   25  C   UNK N   1      29.246  17.408   7.753  0.00  0.00     0.178 C 
HETATM   26  C   UNK N   1      28.933  18.090   6.426  0.00  0.00     0.043 C 
BRANCH  25  27
HETATM   27  C   UNK N   1      28.270  17.832   8.820  0.00  0.00     0.163 C 
HETATM   28  O   UNK N   1      28.057  17.099   9.773  0.00  0.00    -0.648 OA
BRANCH  27  29
HETATM   29  O   UNK N   1      27.620  19.011   8.735  0.00  0.00    -0.775 OA
HETATM   30  H   UNK N   1      26.924  19.332   9.275  0.00  0.00     0.167 HD
ENDBRANCH  27  29
ENDBRANCH  25  27
ENDBRANCH  23  25
ENDBRANCH   1  21
TORSDOF 13
ENDMDL
MODEL 9
REMARK VINA RESULT:      -6.0     10.208     12.712
REMARK  13 active torsions:
REMARK  status: ('A' for Active; 'I' for Inactive)
REMARK    1  A    between atoms: C_2  and  S_1 
REMARK    2  A    between atoms: C_2  and  C_3 
REMARK    3  A    between atoms: C_2  and  C_8 
REMARK    4  A    between atoms: C_3  and  C_4 
REMARK    5  A    between atoms: C_4  and  C_5 
REMARK    6  A    between atoms: C_5  and  C_6 
REMARK       I    between atoms: C_8  and  N_10 
REMARK    7  A    between atoms: C_11  and  N_10 
REMARK    8  A    between atoms: C_11  and  C_12 
REMARK    9  A    between atoms: C_11  and  C_19 
REMARK   10  A    between atoms: C_12  and  C_13 
REMARK       I    between atoms: C_19  and  N_21 
REMARK   11  A    between atoms: N_21  and  C_22 
REMARK   12  A    between atoms: C_22  and  C_24 
REMARK   13  A    between atoms: C_24  and  O_26 
ROOT
HETATM    1  C   UNK N   1      33.434  17.305   8.685  0.00  0.00     0.180 C 
ENDROOT
BRANCH   1   2
HETATM    2  N   UNK N   1      34.347  16.283   9.191  0.00  0.00    -0.346 N 
HETATM    3  C   UNK N   1      35.389  16.411  10.060  0.00  0.00     0.232 C 
HETATM    4  O   UNK N   1      35.662  17.490  10.564  0.00  0.00    -0.272 OA
HETATM    5  H   UNK N   1      34.186  15.371   8.858  0.00  0.00     0.163 HD
BRANCH   3   6
HETATM    6  C   UNK N   1      36.252  15.201  10.348  0.00  0.00     0.136 C 
BRANCH   6   7
HETATM    7  S   UNK N   1      35.909  14.621  12.038  0.00  0.00    -0.168 SA
HETATM    8  H   UNK N   1      35.621  15.347  13.152  0.00  0.00     0.102 HD
ENDBRANCH   6   7
BRANCH   6   9
HETATM    9  C   UNK N   1      35.985  14.021   9.411  0.00  0.00     0.024 C 
BRANCH   9  10
HETATM   10  C   UNK N   1      37.078  13.818   8.372  0.00  0.00     0.002 C 
BRANCH  10  11
HETATM   11  C   UNK N   1      36.570  12.924   7.248  0.00  0.00    -0.000 C 
BRANCH  11  12
HETATM   12  C   UNK N   1      35.162  12.413   7.518  0.00  0.00    -0.005 C 
HETATM   13  C   UNK N   1      35.125  10.899   7.450  0.00  0.00     0.005 C 
ENDBRANCH  11  12
ENDBRANCH  10  11
ENDBRANCH   9  10
ENDBRANCH   6   9
ENDBRANCH   3   6
ENDBRANCH   1   2
BRANCH   1  14
HETATM   14  C   UNK N   1      34.049  17.967   7.441  0.00  0.00     0.073 C 
BRANCH  14  15
HETATM   15  C   UNK N   1      33.856  17.084   6.239  0.00  0.00    -0.056 A 
HETATM   16  C   UNK N   1      34.553  15.872   6.143  0.00  0.00     0.007 A 
HETATM   17  C   UNK N   1      34.436  15.080   4.998  0.00  0.00     0.001 A 
HETATM   18  C   UNK N   1      33.628  15.501   3.939  0.00  0.00     0.000 A 
HETATM   19  C   UNK N   1      32.925  16.706   4.032  0.00  0.00     0.001 A 
HETATM   20  C   UNK N   1      33.037  17.496   5.181  0.00  0.00     0.007 A 
ENDBRANCH  14  15
ENDBRANCH   1  14
BRANCH   1  21
HETATM   21  C   UNK N   1      31.998  16.862   8.430  0.00  0.00     0.241 C 
HETATM   22  O   UNK N   1      31.731  15.672   8.399  0.00  0.00    -0.271 OA
HETATM   23  N   UNK N   1      31.009  17.793   8.307  0.00  0.00    -0.345 N 
HETATM   24  H   UNK N   1      31.266  18.743   8.314  0.00  0.00     0.163 HD
BRANCH  23  25
HETATM   25  C   UNK N   1      29.602  17.471   8.163  0.00  0.00     0.178 C 
HETATM   26  C   UNK N   1      29.010  18.191   6.957  0.00  0.00     0.043 C 
BRANCH  25  27
HETATM   27  C   UNK N   1      28.877  17.852   9.428  0.00  0.00     0.163 C 
HETATM   28  O   UNK N   1      27.702  17.552   9.567  0.00  0.00    -0.648 OA
BRANCH  27  29
HETATM   29  O   UNK N   1      29.506  18.529  10.410  0.00  0.00    -0.775 OA
HETATM   30  H   UNK N   1      30.427  18.637  10.546  0.00  0.00     0.167 HD
ENDBRANCH  27  29
ENDBRANCH  25  27
ENDBRANCH  23  25
ENDBRANCH   1  21
TORSDOF 13
ENDMDL
