MODEL 1
REMARK VINA RESULT:      -7.3      0.000      0.000
REMARK  9 active torsions:
REMARK  status: ('A' for Active; 'I' for Inactive)
REMARK    1  A    between atoms: C_2  and  S_1 
REMARK    2  A    between atoms: C_2  and  C_3 
REMARK    3  A    between atoms: C_2  and  C_10 
REMARK    4  A    between atoms: C_3  and  C_4 
REMARK       I    between atoms: C_10  and  N_12 
REMARK    5  A    between atoms: N_12  and  C_13 
REMARK    6  A    between atoms: C_13  and  C_14 
REMARK       I    between atoms: C_14  and  N_16 
REMARK    7  A    between atoms: C_17  and  C_21 
REMARK    8  A    between atoms: C_18  and  C_27 
REMARK    9  A    between atoms: C_27  and  O_29 
ROOT
HETATM    1  C   UNK N   1      32.866  14.293   8.039  0.00  0.00     0.238 C 
HETATM    2  O   UNK N   1      31.814  14.177   7.424  0.00  0.00    -0.271 OA
HETATM    3  N   UNK N   1      33.321  15.554   8.366  0.00  0.00    -0.327 N 
HETATM    4  C   UNK N   1      32.573  16.748   8.005  0.00  0.00     0.121 C 
HETATM    5  C   UNK N   1      34.534  15.831   9.119  0.00  0.00     0.186 C 
HETATM    6  C   UNK N   1      34.681  17.349   9.065  0.00  0.00     0.039 C 
HETATM    7  C   UNK N   1      33.339  17.910   8.617  0.00  0.00     0.033 C 
ENDROOT
BRANCH   1   8
HETATM    8  C   UNK N   1      33.574  13.016   8.412  0.00  0.00     0.225 C 
BRANCH   8   9
HETATM    9  N   UNK N   1      32.682  11.906   8.653  0.00  0.00    -0.351 N 
HETATM   10  C   UNK N   1      32.922  10.876   9.503  0.00  0.00     0.232 C 
HETATM   11  O   UNK N   1      32.122   9.955   9.542  0.00  0.00    -0.272 OA
HETATM   12  H   UNK N   1      31.829  11.896   8.159  0.00  0.00     0.163 HD
BRANCH  10  13
HETATM   13  C   UNK N   1      34.126  10.828  10.418  0.00  0.00     0.140 C 
BRANCH  13  14
HETATM   14  S   UNK N   1      35.535  10.039   9.593  0.00  0.00    -0.168 SA
HETATM   15  H   UNK N   1      35.484   8.722   9.259  0.00  0.00     0.102 HD
ENDBRANCH  13  14
BRANCH  13  16
HETATM   16  C   UNK N   1      33.816  10.096  11.725  0.00  0.00     0.063 C 
BRANCH  16  17
HETATM   17  C   UNK N   1      34.179  10.926  12.911  0.00  0.00    -0.057 A 
HETATM   18  C   UNK N   1      34.937  12.089  12.750  0.00  0.00     0.007 A 
HETATM   19  C   UNK N   1      35.305  12.842  13.868  0.00  0.00     0.001 A 
HETATM   20  C   UNK N   1      34.914  12.435  15.148  0.00  0.00     0.000 A 
HETATM   21  C   UNK N   1      34.153  11.273  15.310  0.00  0.00     0.001 A 
HETATM   22  C   UNK N   1      33.788  10.517  14.193  0.00  0.00     0.007 A 
ENDBRANCH  16  17
ENDBRANCH  13  16
ENDBRANCH  10  13
ENDBRANCH   8   9
ENDBRANCH   1   8
BRANCH   4  23
HETATM   23  C   UNK N   1      32.370  16.962   6.512  0.00  0.00    -0.035 A 
HETATM   24  C   UNK N   1      31.094  17.097   5.941  0.00  0.00     0.009 A 
HETATM   25  C   UNK N   1      30.949  17.355   4.573  0.00  0.00     0.001 A 
HETATM   26  C   UNK N   1      32.079  17.478   3.762  0.00  0.00     0.000 A 
HETATM   27  C   UNK N   1      33.353  17.333   4.315  0.00  0.00     0.001 A 
HETATM   28  C   UNK N   1      33.498  17.078   5.683  0.00  0.00     0.009 A 
ENDBRANCH   4  23
BRANCH   5  29
HETATM   29  C   UNK N   1      34.458  15.336  10.557  0.00  0.00     0.163 C 
HETATM   30  O   UNK N   1      35.477  15.127  11.198  0.00  0.00    -0.648 OA
BRANCH  29  31
HETATM   31  O   UNK N   1      33.268  15.077  11.131  0.00  0.00    -0.775 OA
HETATM   32  H   UNK N   1      32.509  14.752  10.686  0.00  0.00     0.167 HD
ENDBRANCH  29  31
ENDBRANCH   5  29
TORSDOF 9
ENDMDL
MODEL 2
REMARK VINA RESULT:      -7.3      3.263      5.008
REMARK  9 active torsions:
REMARK  status: ('A' for Active; 'I' for Inactive)
REMARK    1  A    between atoms: C_2  and  S_1 
REMARK    2  A    between atoms: C_2  and  C_3 
REMARK    3  A    between atoms: C_2  and  C_10 
REMARK    4  A    between atoms: C_3  and  C_4 
REMARK       I    between atoms: C_10  and  N_12 
REMARK    5  A    between atoms: N_12  and  C_13 
REMARK    6  A    between atoms: C_13  and  C_14 
REMARK       I    between atoms: C_14  and  N_16 
REMARK    7  A    between atoms: C_17  and  C_21 
REMARK    8  A    between atoms: C_18  and  C_27 
REMARK    9  A    between atoms: C_27  and  O_29 
ROOT
HETATM    1  C   UNK N   1      35.620  14.915  11.668  0.00  0.00     0.238 C 
HETATM    2  O   UNK N   1      35.371  16.111  11.745  0.00  0.00    -0.271 OA
HETATM    3  N   UNK N   1      35.866  14.355  10.432  0.00  0.00    -0.327 N 
HETATM    4  C   UNK N   1      35.844  15.155   9.217  0.00  0.00     0.121 C 
HETATM    5  C   UNK N   1      36.205  12.958  10.203  0.00  0.00     0.186 C 
HETATM    6  C   UNK N   1      36.206  12.807   8.684  0.00  0.00     0.039 C 
HETATM    7  C   UNK N   1      36.252  14.211   8.098  0.00  0.00     0.033 C 
ENDROOT
BRANCH   1   8
HETATM    8  C   UNK N   1      35.661  14.149  12.966  0.00  0.00     0.225 C 
BRANCH   8   9
HETATM    9  N   UNK N   1      36.680  14.610  13.881  0.00  0.00    -0.351 N 
HETATM   10  C   UNK N   1      36.735  14.317  15.205  0.00  0.00     0.232 C 
HETATM   11  O   UNK N   1      37.601  14.849  15.882  0.00  0.00    -0.272 OA
HETATM   12  H   UNK N   1      37.392  15.182  13.513  0.00  0.00     0.163 HD
BRANCH  10  13
HETATM   13  C   UNK N   1      35.786  13.349  15.874  0.00  0.00     0.140 C 
BRANCH  13  14
HETATM   14  S   UNK N   1      35.381  13.897  17.555  0.00  0.00    -0.168 SA
HETATM   15  H   UNK N   1      36.181  13.555  18.600  0.00  0.00     0.102 HD
ENDBRANCH  13  14
BRANCH  13  16
HETATM   16  C   UNK N   1      36.359  11.931  15.917  0.00  0.00     0.063 C 
BRANCH  16  17
HETATM   17  C   UNK N   1      35.723  11.057  14.888  0.00  0.00    -0.057 A 
HETATM   18  C   UNK N   1      36.474  10.073  14.240  0.00  0.00     0.007 A 
HETATM   19  C   UNK N   1      35.883   9.282  13.251  0.00  0.00     0.001 A 
HETATM   20  C   UNK N   1      34.539   9.473  12.911  0.00  0.00     0.000 A 
HETATM   21  C   UNK N   1      33.786  10.455  13.561  0.00  0.00     0.001 A 
HETATM   22  C   UNK N   1      34.378  11.250  14.547  0.00  0.00     0.007 A 
ENDBRANCH  16  17
ENDBRANCH  13  16
ENDBRANCH  10  13
ENDBRANCH   8   9
ENDBRANCH   1   8
BRANCH   4  23
HETATM   23  C   UNK N   1      34.513  15.823   8.902  0.00  0.00    -0.035 A 
HETATM   24  C   UNK N   1      33.293  15.132   8.976  0.00  0.00     0.009 A 
HETATM   25  C   UNK N   1      32.083  15.795   8.739  0.00  0.00     0.001 A 
HETATM   26  C   UNK N   1      32.082  17.155   8.425  0.00  0.00     0.000 A 
HETATM   27  C   UNK N   1      33.290  17.851   8.336  0.00  0.00     0.001 A 
HETATM   28  C   UNK N   1      34.498  17.189   8.575  0.00  0.00     0.009 A 
ENDBRANCH   4  23
BRANCH   5  29
HETATM   29  C   UNK N   1      37.554  12.578  10.796  0.00  0.00     0.163 C 
HETATM   30  O   UNK N   1      37.749  11.452  11.229  0.00  0.00    -0.648 OA
BRANCH  29  31
HETATM   31  O   UNK N   1      38.541  13.489  10.895  0.00  0.00    -0.775 OA
HETATM   32  H   UNK N   1      38.421  14.418  10.930  0.00  0.00     0.167 HD
ENDBRANCH  29  31
ENDBRANCH   5  29
TORSDOF 9
ENDMDL
MODEL 3
REMARK VINA RESULT:      -7.1      8.570     11.526
REMARK  9 active torsions:
REMARK  status: ('A' for Active; 'I' for Inactive)
REMARK    1  A    between atoms: C_2  and  S_1 
REMARK    2  A    between atoms: C_2  and  C_3 
REMARK    3  A    between atoms: C_2  and  C_10 
REMARK    4  A    between atoms: C_3  and  C_4 
REMARK       I    between atoms: C_10  and  N_12 
REMARK    5  A    between atoms: N_12  and  C_13 
REMARK    6  A    between atoms: C_13  and  C_14 
REMARK       I    between atoms: C_14  and  N_16 
REMARK    7  A    between atoms: C_17  and  C_21 
REMARK    8  A    between atoms: C_18  and  C_27 
REMARK    9  A    between atoms: C_27  and  O_29 
ROOT
HETATM    1  C   UNK N   1      25.535  17.575   4.904  0.00  0.00     0.238 C 
HETATM    2  O   UNK N   1      26.230  16.570   4.981  0.00  0.00    -0.271 OA
HETATM    3  N   UNK N   1      26.139  18.815   4.918  0.00  0.00    -0.327 N 
HETATM    4  C   UNK N   1      27.584  18.956   5.014  0.00  0.00     0.121 C 
HETATM    5  C   UNK N   1      25.437  20.084   4.802  0.00  0.00     0.186 C 
HETATM    6  C   UNK N   1      26.511  21.141   5.044  0.00  0.00     0.039 C 
HETATM    7  C   UNK N   1      27.858  20.447   4.902  0.00  0.00     0.033 C 
ENDROOT
BRANCH   1   8
HETATM    8  C   UNK N   1      24.049  17.360   4.774  0.00  0.00     0.225 C 
BRANCH   8   9
HETATM    9  N   UNK N   1      23.265  18.150   5.693  0.00  0.00    -0.351 N 
HETATM   10  C   UNK N   1      21.994  17.872   6.082  0.00  0.00     0.232 C 
HETATM   11  O   UNK N   1      21.415  18.676   6.795  0.00  0.00    -0.272 OA
HETATM   12  H   UNK N   1      23.687  18.957   6.070  0.00  0.00     0.163 HD
BRANCH  10  13
HETATM   13  C   UNK N   1      21.273  16.603   5.686  0.00  0.00     0.140 C 
BRANCH  13  14
HETATM   14  S   UNK N   1      20.377  16.827   4.125  0.00  0.00    -0.168 SA
HETATM   15  H   UNK N   1      20.572  17.945   3.377  0.00  0.00     0.102 HD
ENDBRANCH  13  14
BRANCH  13  16
HETATM   16  C   UNK N   1      20.305  16.139   6.776  0.00  0.00     0.063 C 
BRANCH  16  17
HETATM   17  C   UNK N   1      20.966  15.192   7.722  0.00  0.00    -0.057 A 
HETATM   18  C   UNK N   1      22.166  14.569   7.368  0.00  0.00     0.007 A 
HETATM   19  C   UNK N   1      22.761  13.655   8.243  0.00  0.00     0.001 A 
HETATM   20  C   UNK N   1      22.159  13.366   9.472  0.00  0.00     0.000 A 
HETATM   21  C   UNK N   1      20.960  13.991   9.828  0.00  0.00     0.001 A 
HETATM   22  C   UNK N   1      20.361  14.901   8.952  0.00  0.00     0.007 A 
ENDBRANCH  16  17
ENDBRANCH  13  16
ENDBRANCH  10  13
ENDBRANCH   8   9
ENDBRANCH   1   8
BRANCH   4  23
HETATM   23  C   UNK N   1      28.211  18.385   6.278  0.00  0.00    -0.035 A 
HETATM   24  C   UNK N   1      29.201  17.390   6.239  0.00  0.00     0.009 A 
HETATM   25  C   UNK N   1      29.799  16.934   7.420  0.00  0.00     0.001 A 
HETATM   26  C   UNK N   1      29.411  17.467   8.650  0.00  0.00     0.000 A 
HETATM   27  C   UNK N   1      28.418  18.448   8.703  0.00  0.00     0.001 A 
HETATM   28  C   UNK N   1      27.823  18.905   7.524  0.00  0.00     0.009 A 
ENDBRANCH   4  23
BRANCH   5  29
HETATM   29  C   UNK N   1      24.780  20.268   3.441  0.00  0.00     0.163 C 
HETATM   30  O   UNK N   1      25.459  20.348   2.428  0.00  0.00    -0.648 OA
BRANCH  29  31
HETATM   31  O   UNK N   1      23.443  20.389   3.336  0.00  0.00    -0.775 OA
HETATM   32  H   UNK N   1      22.920  20.045   2.638  0.00  0.00     0.167 HD
ENDBRANCH  29  31
ENDBRANCH   5  29
TORSDOF 9
ENDMDL
MODEL 4
REMARK VINA RESULT:      -7.1      2.675      7.783
REMARK  9 active torsions:
REMARK  status: ('A' for Active; 'I' for Inactive)
REMARK    1  A    between atoms: C_2  and  S_1 
REMARK    2  A    between atoms: C_2  and  C_3 
REMARK    3  A    between atoms: C_2  and  C_10 
REMARK    4  A    between atoms: C_3  and  C_4 
REMARK       I    between atoms: C_10  and  N_12 
REMARK    5  A    between atoms: N_12  and  C_13 
REMARK    6  A    between atoms: C_13  and  C_14 
REMARK       I    between atoms: C_14  and  N_16 
REMARK    7  A    between atoms: C_17  and  C_21 
REMARK    8  A    between atoms: C_18  and  C_27 
REMARK    9  A    between atoms: C_27  and  O_29 
ROOT
HETATM    1  C   UNK N   1      34.831  13.334   9.701  0.00  0.00     0.238 C 
HETATM    2  O   UNK N   1      35.122  12.306   9.103  0.00  0.00    -0.271 OA
HETATM    3  N   UNK N   1      35.422  13.596  10.920  0.00  0.00    -0.327 N 
HETATM    4  C   UNK N   1      36.390  12.682  11.506  0.00  0.00     0.121 C 
HETATM    5  C   UNK N   1      35.192  14.791  11.717  0.00  0.00     0.186 C 
HETATM    6  C   UNK N   1      35.928  14.527  13.027  0.00  0.00     0.039 C 
HETATM    7  C   UNK N   1      36.874  13.360  12.778  0.00  0.00     0.033 C 
ENDROOT
BRANCH   1   8
HETATM    8  C   UNK N   1      33.847  14.254   9.023  0.00  0.00     0.225 C 
BRANCH   8   9
HETATM    9  N   UNK N   1      34.471  15.310   8.260  0.00  0.00    -0.351 N 
HETATM   10  C   UNK N   1      33.871  16.026   7.276  0.00  0.00     0.232 C 
HETATM   11  O   UNK N   1      34.543  16.829   6.648  0.00  0.00    -0.272 OA
HETATM   12  H   UNK N   1      35.408  15.529   8.472  0.00  0.00     0.163 HD
BRANCH  10  13
HETATM   13  C   UNK N   1      32.404  15.887   6.935  0.00  0.00     0.140 C 
BRANCH  13  14
HETATM   14  S   UNK N   1      32.170  14.778   5.519  0.00  0.00    -0.168 SA
HETATM   15  H   UNK N   1      33.177  13.959   5.116  0.00  0.00     0.102 HD
ENDBRANCH  13  14
BRANCH  13  16
HETATM   16  C   UNK N   1      31.760  17.243   6.641  0.00  0.00     0.063 C 
BRANCH  16  17
HETATM   17  C   UNK N   1      30.591  17.494   7.535  0.00  0.00    -0.057 A 
HETATM   18  C   UNK N   1      29.306  17.120   7.133  0.00  0.00     0.007 A 
HETATM   19  C   UNK N   1      28.210  17.390   7.958  0.00  0.00     0.001 A 
HETATM   20  C   UNK N   1      28.399  18.032   9.186  0.00  0.00     0.000 A 
HETATM   21  C   UNK N   1      29.684  18.404   9.591  0.00  0.00     0.001 A 
HETATM   22  C   UNK N   1      30.780  18.139   8.764  0.00  0.00     0.007 A 
ENDBRANCH  16  17
ENDBRANCH  13  16
ENDBRANCH  10  13
ENDBRANCH   8   9
ENDBRANCH   1   8
BRANCH   4  23
HETATM   23  C   UNK N   1      35.867  11.284  11.805  0.00  0.00    -0.035 A 
HETATM   24  C   UNK N   1      36.552  10.127  11.400  0.00  0.00     0.009 A 
HETATM   25  C   UNK N   1      36.072   8.858  11.747  0.00  0.00     0.001 A 
HETATM   26  C   UNK N   1      34.903   8.735  12.500  0.00  0.00     0.000 A 
HETATM   27  C   UNK N   1      34.207   9.879  12.898  0.00  0.00     0.001 A 
HETATM   28  C   UNK N   1      34.687  11.146  12.554  0.00  0.00     0.009 A 
ENDBRANCH   4  23
BRANCH   5  29
HETATM   29  C   UNK N   1      35.705  16.055  11.041  0.00  0.00     0.163 C 
HETATM   30  O   UNK N   1      36.853  16.115  10.626  0.00  0.00    -0.648 OA
BRANCH  29  31
HETATM   31  O   UNK N   1      34.919  17.141  10.930  0.00  0.00    -0.775 OA
HETATM   32  H   UNK N   1      34.326  17.313  10.225  0.00  0.00     0.167 HD
ENDBRANCH  29  31
ENDBRANCH   5  29
TORSDOF 9
ENDMDL
MODEL 5
REMARK VINA RESULT:      -7.0     15.903     20.090
REMARK  9 active torsions:
REMARK  status: ('A' for Active; 'I' for Inactive)
REMARK    1  A    between atoms: C_2  and  S_1 
REMARK    2  A    between atoms: C_2  and  C_3 
REMARK    3  A    between atoms: C_2  and  C_10 
REMARK    4  A    between atoms: C_3  and  C_4 
REMARK       I    between atoms: C_10  and  N_12 
REMARK    5  A    between atoms: N_12  and  C_13 
REMARK    6  A    between atoms: C_13  and  C_14 
REMARK       I    between atoms: C_14  and  N_16 
REMARK    7  A    between atoms: C_17  and  C_21 
REMARK    8  A    between atoms: C_18  and  C_27 
REMARK    9  A    between atoms: C_27  and  O_29 
ROOT
HETATM    1  C   UNK N   1      28.990  23.365  -5.263  0.00  0.00     0.238 C 
HETATM    2  O   UNK N   1      28.932  23.746  -6.425  0.00  0.00    -0.271 OA
HETATM    3  N   UNK N   1      30.018  22.529  -4.879  0.00  0.00    -0.327 N 
HETATM    4  C   UNK N   1      31.039  22.098  -5.821  0.00  0.00     0.121 C 
HETATM    5  C   UNK N   1      30.223  22.028  -3.528  0.00  0.00     0.186 C 
HETATM    6  C   UNK N   1      31.367  21.027  -3.659  0.00  0.00     0.039 C 
HETATM    7  C   UNK N   1      32.029  21.282  -5.005  0.00  0.00     0.033 C 
ENDROOT
BRANCH   1   8
HETATM    8  C   UNK N   1      27.921  23.874  -4.331  0.00  0.00     0.225 C 
BRANCH   8   9
HETATM    9  N   UNK N   1      26.630  24.034  -4.959  0.00  0.00    -0.351 N 
HETATM   10  C   UNK N   1      26.001  25.218  -5.170  0.00  0.00     0.232 C 
HETATM   11  O   UNK N   1      24.870  25.202  -5.629  0.00  0.00    -0.272 OA
HETATM   12  H   UNK N   1      26.168  23.217  -5.259  0.00  0.00     0.163 HD
BRANCH  10  13
HETATM   13  C   UNK N   1      26.646  26.555  -4.880  0.00  0.00     0.140 C 
BRANCH  13  14
HETATM   14  S   UNK N   1      26.291  27.091  -3.184  0.00  0.00    -0.168 SA
HETATM   15  H   UNK N   1      27.194  26.870  -2.192  0.00  0.00     0.102 HD
ENDBRANCH  13  14
BRANCH  13  16
HETATM   16  C   UNK N   1      26.190  27.630  -5.868  0.00  0.00     0.063 C 
BRANCH  16  17
HETATM   17  C   UNK N   1      27.354  28.355  -6.457  0.00  0.00    -0.057 A 
HETATM   18  C   UNK N   1      27.835  29.520  -5.854  0.00  0.00     0.007 A 
HETATM   19  C   UNK N   1      28.902  30.215  -6.431  0.00  0.00     0.001 A 
HETATM   20  C   UNK N   1      29.490  29.744  -7.610  0.00  0.00     0.000 A 
HETATM   21  C   UNK N   1      29.011  28.577  -8.212  0.00  0.00     0.001 A 
HETATM   22  C   UNK N   1      27.941  27.884  -7.639  0.00  0.00     0.007 A 
ENDBRANCH  16  17
ENDBRANCH  13  16
ENDBRANCH  10  13
ENDBRANCH   8   9
ENDBRANCH   1   8
BRANCH   4  23
HETATM   23  C   UNK N   1      30.530  21.297  -7.011  0.00  0.00    -0.035 A 
HETATM   24  C   UNK N   1      30.858  21.633  -8.335  0.00  0.00     0.009 A 
HETATM   25  C   UNK N   1      30.423  20.836  -9.400  0.00  0.00     0.001 A 
HETATM   26  C   UNK N   1      29.653  19.698  -9.152  0.00  0.00     0.000 A 
HETATM   27  C   UNK N   1      29.310  19.361  -7.841  0.00  0.00     0.001 A 
HETATM   28  C   UNK N   1      29.747  20.155  -6.777  0.00  0.00     0.009 A 
ENDBRANCH   4  23
BRANCH   5  29
HETATM   29  C   UNK N   1      30.569  23.134  -2.540  0.00  0.00     0.163 C 
HETATM   30  O   UNK N   1      30.336  22.998  -1.348  0.00  0.00    -0.648 OA
BRANCH  29  31
HETATM   31  O   UNK N   1      31.094  24.297  -2.968  0.00  0.00    -0.775 OA
HETATM   32  H   UNK N   1      31.929  24.395  -3.383  0.00  0.00     0.167 HD
ENDBRANCH  29  31
ENDBRANCH   5  29
TORSDOF 9
ENDMDL
MODEL 6
REMARK VINA RESULT:      -6.8      2.751      4.378
REMARK  9 active torsions:
REMARK  status: ('A' for Active; 'I' for Inactive)
REMARK    1  A    between atoms: C_2  and  S_1 
REMARK    2  A    between atoms: C_2  and  C_3 
REMARK    3  A    between atoms: C_2  and  C_10 
REMARK    4  A    between atoms: C_3  and  C_4 
REMARK       I    between atoms: C_10  and  N_12 
REMARK    5  A    between atoms: N_12  and  C_13 
REMARK    6  A    between atoms: C_13  and  C_14 
REMARK       I    between atoms: C_14  and  N_16 
REMARK    7  A    between atoms: C_17  and  C_21 
REMARK    8  A    between atoms: C_18  and  C_27 
REMARK    9  A    between atoms: C_27  and  O_29 
ROOT
HETATM    1  C   UNK N   1      35.420  14.638  11.366  0.00  0.00     0.238 C 
HETATM    2  O   UNK N   1      35.126  15.802  11.606  0.00  0.00    -0.271 OA
HETATM    3  N   UNK N   1      35.649  14.256  10.060  0.00  0.00    -0.327 N 
HETATM    4  C   UNK N   1      35.558  15.208   8.963  0.00  0.00     0.121 C 
HETATM    5  C   UNK N   1      36.035  12.918   9.639  0.00  0.00     0.186 C 
HETATM    6  C   UNK N   1      35.996  12.968   8.115  0.00  0.00     0.039 C 
HETATM    7  C   UNK N   1      35.968  14.437   7.718  0.00  0.00     0.033 C 
ENDROOT
BRANCH   1   8
HETATM    8  C   UNK N   1      35.531  13.711  12.549  0.00  0.00     0.225 C 
BRANCH   8   9
HETATM    9  N   UNK N   1      34.584  12.621  12.524  0.00  0.00    -0.351 N 
HETATM   10  C   UNK N   1      34.582  11.564  13.375  0.00  0.00     0.232 C 
HETATM   11  O   UNK N   1      33.778  10.665  13.183  0.00  0.00    -0.272 OA
HETATM   12  H   UNK N   1      33.881  12.648  11.833  0.00  0.00     0.163 HD
BRANCH  10  13
HETATM   13  C   UNK N   1      35.517  11.459  14.559  0.00  0.00     0.140 C 
BRANCH  13  14
HETATM   14  S   UNK N   1      37.059  10.625  14.094  0.00  0.00    -0.168 SA
HETATM   15  H   UNK N   1      37.397  10.488  12.785  0.00  0.00     0.102 HD
ENDBRANCH  13  14
BRANCH  13  16
HETATM   16  C   UNK N   1      34.865  10.724  15.732  0.00  0.00     0.063 C 
BRANCH  16  17
HETATM   17  C   UNK N   1      35.045  11.474  17.010  0.00  0.00    -0.057 A 
HETATM   18  C   UNK N   1      35.243  10.783  18.208  0.00  0.00     0.007 A 
HETATM   19  C   UNK N   1      35.375  11.489  19.407  0.00  0.00     0.001 A 
HETATM   20  C   UNK N   1      35.310  12.886  19.409  0.00  0.00     0.000 A 
HETATM   21  C   UNK N   1      35.115  13.578  18.210  0.00  0.00     0.001 A 
HETATM   22  C   UNK N   1      34.979  12.873  17.011  0.00  0.00     0.007 A 
ENDBRANCH  16  17
ENDBRANCH  13  16
ENDBRANCH  10  13
ENDBRANCH   8   9
ENDBRANCH   1   8
BRANCH   4  23
HETATM   23  C   UNK N   1      34.192  15.853   8.773  0.00  0.00    -0.035 A 
HETATM   24  C   UNK N   1      34.032  17.242   8.643  0.00  0.00     0.009 A 
HETATM   25  C   UNK N   1      32.768  17.794   8.408  0.00  0.00     0.001 A 
HETATM   26  C   UNK N   1      31.652  16.963   8.302  0.00  0.00     0.000 A 
HETATM   27  C   UNK N   1      31.796  15.581   8.442  0.00  0.00     0.001 A 
HETATM   28  C   UNK N   1      33.059  15.029   8.675  0.00  0.00     0.009 A 
ENDBRANCH   4  23
BRANCH   5  29
HETATM   29  C   UNK N   1      37.417  12.522  10.142  0.00  0.00     0.163 C 
HETATM   30  O   UNK N   1      37.596  11.440  10.681  0.00  0.00    -0.648 OA
BRANCH  29  31
HETATM   31  O   UNK N   1      38.454  13.375  10.043  0.00  0.00    -0.775 OA
HETATM   32  H   UNK N   1      38.398  14.268   9.760  0.00  0.00     0.167 HD
ENDBRANCH  29  31
ENDBRANCH   5  29
TORSDOF 9
ENDMDL
MODEL 7
REMARK VINA RESULT:      -6.8      2.415      3.881
REMARK  9 active torsions:
REMARK  status: ('A' for Active; 'I' for Inactive)
REMARK    1  A    between atoms: C_2  and  S_1 
REMARK    2  A    between atoms: C_2  and  C_3 
REMARK    3  A    between atoms: C_2  and  C_10 
REMARK    4  A    between atoms: C_3  and  C_4 
REMARK       I    between atoms: C_10  and  N_12 
REMARK    5  A    between atoms: N_12  and  C_13 
REMARK    6  A    between atoms: C_13  and  C_14 
REMARK       I    between atoms: C_14  and  N_16 
REMARK    7  A    between atoms: C_17  and  C_21 
REMARK    8  A    between atoms: C_18  and  C_27 
REMARK    9  A    between atoms: C_27  and  O_29 
ROOT
HETATM    1  C   UNK N   1      33.007  15.235   8.424  0.00  0.00     0.238 C 
HETATM    2  O   UNK N   1      32.831  15.906   9.433  0.00  0.00    -0.271 OA
HETATM    3  N   UNK N   1      32.739  15.791   7.190  0.00  0.00    -0.327 N 
HETATM    4  C   UNK N   1      32.262  17.159   7.060  0.00  0.00     0.121 C 
HETATM    5  C   UNK N   1      32.934  15.118   5.914  0.00  0.00     0.186 C 
HETATM    6  C   UNK N   1      32.340  16.073   4.882  0.00  0.00     0.039 C 
HETATM    7  C   UNK N   1      32.182  17.424   5.565  0.00  0.00     0.033 C 
ENDROOT
BRANCH   1   8
HETATM    8  C   UNK N   1      33.534  13.837   8.625  0.00  0.00     0.225 C 
BRANCH   8   9
HETATM    9  N   UNK N   1      34.969  13.735   8.501  0.00  0.00    -0.351 N 
HETATM   10  C   UNK N   1      35.854  13.825   9.526  0.00  0.00     0.232 C 
HETATM   11  O   UNK N   1      37.047  13.812   9.267  0.00  0.00    -0.272 OA
HETATM   12  H   UNK N   1      35.336  13.587   7.598  0.00  0.00     0.163 HD
BRANCH  10  13
HETATM   13  C   UNK N   1      35.428  13.920  10.974  0.00  0.00     0.140 C 
BRANCH  13  14
HETATM   14  S   UNK N   1      35.628  15.611  11.598  0.00  0.00    -0.168 SA
HETATM   15  H   UNK N   1      36.128  16.585  10.792  0.00  0.00     0.102 HD
ENDBRANCH  13  14
BRANCH  13  16
HETATM   16  C   UNK N   1      36.210  12.947  11.859  0.00  0.00     0.063 C 
BRANCH  16  17
HETATM   17  C   UNK N   1      35.304  12.220  12.797  0.00  0.00    -0.057 A 
HETATM   18  C   UNK N   1      35.133  12.679  14.106  0.00  0.00     0.007 A 
HETATM   19  C   UNK N   1      34.313  11.973  14.991  0.00  0.00     0.001 A 
HETATM   20  C   UNK N   1      33.662  10.810  14.567  0.00  0.00     0.000 A 
HETATM   21  C   UNK N   1      33.831  10.351  13.257  0.00  0.00     0.001 A 
HETATM   22  C   UNK N   1      34.655  11.054  12.373  0.00  0.00     0.007 A 
ENDBRANCH  16  17
ENDBRANCH  13  16
ENDBRANCH  10  13
ENDBRANCH   8   9
ENDBRANCH   1   8
BRANCH   4  23
HETATM   23  C   UNK N   1      30.927  17.449   7.732  0.00  0.00    -0.035 A 
HETATM   24  C   UNK N   1      30.821  18.281   8.858  0.00  0.00     0.009 A 
HETATM   25  C   UNK N   1      29.570  18.575   9.411  0.00  0.00     0.001 A 
HETATM   26  C   UNK N   1      28.412  18.037   8.845  0.00  0.00     0.000 A 
HETATM   27  C   UNK N   1      28.506  17.197   7.732  0.00  0.00     0.001 A 
HETATM   28  C   UNK N   1      29.756  16.906   7.178  0.00  0.00     0.009 A 
ENDBRANCH   4  23
BRANCH   5  29
HETATM   29  C   UNK N   1      34.400  14.831   5.621  0.00  0.00     0.163 C 
HETATM   30  O   UNK N   1      34.746  13.741   5.190  0.00  0.00    -0.648 OA
BRANCH  29  31
HETATM   31  O   UNK N   1      35.344  15.757   5.873  0.00  0.00    -0.775 OA
HETATM   32  H   UNK N   1      35.332  16.642   5.565  0.00  0.00     0.167 HD
ENDBRANCH  29  31
ENDBRANCH   5  29
TORSDOF 9
ENDMDL
MODEL 8
REMARK VINA RESULT:      -6.7     16.170     19.788
REMARK  9 active torsions:
REMARK  status: ('A' for Active; 'I' for Inactive)
REMARK    1  A    between atoms: C_2  and  S_1 
REMARK    2  A    between atoms: C_2  and  C_3 
REMARK    3  A    between atoms: C_2  and  C_10 
REMARK    4  A    between atoms: C_3  and  C_4 
REMARK       I    between atoms: C_10  and  N_12 
REMARK    5  A    between atoms: N_12  and  C_13 
REMARK    6  A    between atoms: C_13  and  C_14 
REMARK       I    between atoms: C_14  and  N_16 
REMARK    7  A    between atoms: C_17  and  C_21 
REMARK    8  A    between atoms: C_18  and  C_27 
REMARK    9  A    between atoms: C_27  and  O_29 
ROOT
HETATM    1  C   UNK N   1      30.170  23.007  -6.751  0.00  0.00     0.238 C 
HETATM    2  O   UNK N   1      30.603  22.858  -7.887  0.00  0.00    -0.271 OA
HETATM    3  N   UNK N   1      30.578  22.144  -5.755  0.00  0.00    -0.327 N 
HETATM    4  C   UNK N   1      31.518  21.066  -6.022  0.00  0.00     0.121 C 
HETATM    5  C   UNK N   1      30.168  22.228  -4.362  0.00  0.00     0.186 C 
HETATM    6  C   UNK N   1      30.742  20.970  -3.716  0.00  0.00     0.039 C 
HETATM    7  C   UNK N   1      31.786  20.415  -4.675  0.00  0.00     0.033 C 
ENDROOT
BRANCH   1   8
HETATM    8  C   UNK N   1      29.226  24.162  -6.535  0.00  0.00     0.225 C 
BRANCH   8   9
HETATM    9  N   UNK N   1      27.875  23.897  -6.969  0.00  0.00    -0.351 N 
HETATM   10  C   UNK N   1      26.752  24.370  -6.372  0.00  0.00     0.232 C 
HETATM   11  O   UNK N   1      25.668  23.993  -6.789  0.00  0.00    -0.272 OA
HETATM   12  H   UNK N   1      27.758  23.328  -7.765  0.00  0.00     0.163 HD
BRANCH  10  13
HETATM   13  C   UNK N   1      26.783  25.357  -5.226  0.00  0.00     0.140 C 
BRANCH  13  14
HETATM   14  S   UNK N   1      26.573  24.510  -3.636  0.00  0.00    -0.168 SA
HETATM   15  H   UNK N   1      26.544  25.222  -2.478  0.00  0.00     0.102 HD
ENDBRANCH  13  14
BRANCH  13  16
HETATM   16  C   UNK N   1      25.712  26.439  -5.381  0.00  0.00     0.063 C 
BRANCH  16  17
HETATM   17  C   UNK N   1      26.279  27.801  -5.157  0.00  0.00    -0.057 A 
HETATM   18  C   UNK N   1      27.266  28.300  -6.012  0.00  0.00     0.007 A 
HETATM   19  C   UNK N   1      27.820  29.561  -5.776  0.00  0.00     0.001 A 
HETATM   20  C   UNK N   1      27.387  30.325  -4.687  0.00  0.00     0.000 A 
HETATM   21  C   UNK N   1      26.398  29.827  -3.833  0.00  0.00     0.001 A 
HETATM   22  C   UNK N   1      25.847  28.564  -4.065  0.00  0.00     0.007 A 
ENDBRANCH  16  17
ENDBRANCH  13  16
ENDBRANCH  10  13
ENDBRANCH   8   9
ENDBRANCH   1   8
BRANCH   4  23
HETATM   23  C   UNK N   1      31.053  20.033  -7.038  0.00  0.00    -0.035 A 
HETATM   24  C   UNK N   1      29.741  19.532  -7.048  0.00  0.00     0.009 A 
HETATM   25  C   UNK N   1      29.332  18.629  -8.036  0.00  0.00     0.001 A 
HETATM   26  C   UNK N   1      30.230  18.218  -9.022  0.00  0.00     0.000 A 
HETATM   27  C   UNK N   1      31.541  18.700  -9.016  0.00  0.00     0.001 A 
HETATM   28  C   UNK N   1      31.949  19.604  -8.030  0.00  0.00     0.009 A 
ENDBRANCH   4  23
BRANCH   5  29
HETATM   29  C   UNK N   1      30.683  23.485  -3.674  0.00  0.00     0.163 C 
HETATM   30  O   UNK N   1      31.704  24.032  -4.062  0.00  0.00    -0.648 OA
BRANCH  29  31
HETATM   31  O   UNK N   1      30.047  23.987  -2.599  0.00  0.00    -0.775 OA
HETATM   32  H   UNK N   1      29.415  24.679  -2.616  0.00  0.00     0.167 HD
ENDBRANCH  29  31
ENDBRANCH   5  29
TORSDOF 9
ENDMDL
MODEL 9
REMARK VINA RESULT:      -6.6      8.372     12.531
REMARK  9 active torsions:
REMARK  status: ('A' for Active; 'I' for Inactive)
REMARK    1  A    between atoms: C_2  and  S_1 
REMARK    2  A    between atoms: C_2  and  C_3 
REMARK    3  A    between atoms: C_2  and  C_10 
REMARK    4  A    between atoms: C_3  and  C_4 
REMARK       I    between atoms: C_10  and  N_12 
REMARK    5  A    between atoms: N_12  and  C_13 
REMARK    6  A    between atoms: C_13  and  C_14 
REMARK       I    between atoms: C_14  and  N_16 
REMARK    7  A    between atoms: C_17  and  C_21 
REMARK    8  A    between atoms: C_18  and  C_27 
REMARK    9  A    between atoms: C_27  and  O_29 
ROOT
HETATM    1  C   UNK N   1      25.874  17.282   5.182  0.00  0.00     0.238 C 
HETATM    2  O   UNK N   1      26.677  16.360   5.247  0.00  0.00    -0.271 OA
HETATM    3  N   UNK N   1      26.339  18.581   5.171  0.00  0.00    -0.327 N 
HETATM    4  C   UNK N   1      27.762  18.880   5.225  0.00  0.00     0.121 C 
HETATM    5  C   UNK N   1      25.500  19.765   5.065  0.00  0.00     0.186 C 
HETATM    6  C   UNK N   1      26.457  20.935   5.269  0.00  0.00     0.039 C 
HETATM    7  C   UNK N   1      27.868  20.390   5.095  0.00  0.00     0.033 C 
ENDROOT
BRANCH   1   8
HETATM    8  C   UNK N   1      24.418  16.905   5.094  0.00  0.00     0.225 C 
BRANCH   8   9
HETATM    9  N   UNK N   1      23.983  16.020   6.150  0.00  0.00    -0.351 N 
HETATM   10  C   UNK N   1      22.695  15.674   6.403  0.00  0.00     0.232 C 
HETATM   11  O   UNK N   1      22.458  14.990   7.385  0.00  0.00    -0.272 OA
HETATM   12  H   UNK N   1      24.677  15.636   6.734  0.00  0.00     0.163 HD
BRANCH  10  13
HETATM   13  C   UNK N   1      21.543  16.083   5.511  0.00  0.00     0.140 C 
BRANCH  13  14
HETATM   14  S   UNK N   1      20.005  16.219   6.462  0.00  0.00    -0.168 SA
HETATM   15  H   UNK N   1      18.804  16.023   5.855  0.00  0.00     0.102 HD
ENDBRANCH  13  14
BRANCH  13  16
HETATM   16  C   UNK N   1      21.349  15.103   4.352  0.00  0.00     0.063 C 
BRANCH  16  17
HETATM   17  C   UNK N   1      20.884  15.805   3.120  0.00  0.00    -0.057 A 
HETATM   18  C   UNK N   1      20.547  15.073   1.978  0.00  0.00     0.007 A 
HETATM   19  C   UNK N   1      20.148  15.738   0.815  0.00  0.00     0.001 A 
HETATM   20  C   UNK N   1      20.084  17.134   0.793  0.00  0.00     0.000 A 
HETATM   21  C   UNK N   1      20.418  17.868   1.935  0.00  0.00     0.001 A 
HETATM   22  C   UNK N   1      20.822  17.204   3.097  0.00  0.00     0.007 A 
ENDBRANCH  16  17
ENDBRANCH  13  16
ENDBRANCH  10  13
ENDBRANCH   8   9
ENDBRANCH   1   8
BRANCH   4  23
HETATM   23  C   UNK N   1      28.481  18.394   6.475  0.00  0.00    -0.035 A 
HETATM   24  C   UNK N   1      28.071  18.764   7.767  0.00  0.00     0.009 A 
HETATM   25  C   UNK N   1      28.718  18.247   8.895  0.00  0.00     0.001 A 
HETATM   26  C   UNK N   1      29.784  17.358   8.743  0.00  0.00     0.000 A 
HETATM   27  C   UNK N   1      30.210  16.992   7.464  0.00  0.00     0.001 A 
HETATM   28  C   UNK N   1      29.561  17.506   6.337  0.00  0.00     0.009 A 
ENDBRANCH   4  23
BRANCH   5  29
HETATM   29  C   UNK N   1      24.790  19.861   3.722  0.00  0.00     0.163 C 
HETATM   30  O   UNK N   1      25.427  19.845   2.679  0.00  0.00    -0.648 OA
BRANCH  29  31
HETATM   31  O   UNK N   1      23.454  20.012   3.661  0.00  0.00    -0.775 OA
HETATM   32  H   UNK N   1      22.856  19.409   3.262  0.00  0.00     0.167 HD
ENDBRANCH  29  31
ENDBRANCH   5  29
TORSDOF 9
ENDMDL
