MODEL 1
REMARK VINA RESULT:      -6.8      0.000      0.000
REMARK  5 active torsions:
REMARK  status: ('A' for Active; 'I' for Inactive)
REMARK    1  A    between atoms: C_1  and  N_5 
REMARK       I    between atoms: N_5  and  C_8 
REMARK    2  A    between atoms: C_6  and  N_9 
REMARK       I    between atoms: C_8  and  N_10 
REMARK    3  A    between atoms: N_10  and  C_14 
REMARK    4  A    between atoms: C_14  and  C_15 
REMARK    5  A    between atoms: C_20  and  O_21 
ROOT
HETATM    1  N   UNK N   1      35.295  14.656  12.352  0.00  0.00    -0.289 N 
HETATM    2  C   UNK N   1      35.155  13.313  12.517  0.00  0.00     0.322 C 
HETATM    3  N   UNK N   1      35.369  12.751  13.731  0.00  0.00    -0.339 N 
HETATM    4  O   UNK N   1      34.832  12.603  11.576  0.00  0.00    -0.247 OA
HETATM    5  H   UNK N   1      35.723  15.173  13.072  0.00  0.00     0.172 HD
HETATM    6  H   UNK N   1      35.376  11.771  13.820  0.00  0.00     0.164 HD
ENDROOT
BRANCH   1   7
HETATM    7  C   UNK N   1      34.854  15.348  11.198  0.00  0.00     0.154 A 
HETATM    8  S   UNK N   1      35.600  16.654  10.520  0.00  0.00    -0.028 SA
HETATM    9  C   UNK N   1      34.461  16.934   9.352  0.00  0.00     0.162 A 
HETATM   10  C   UNK N   1      33.450  15.975   9.521  0.00  0.00     0.134 A 
HETATM   11  N   UNK N   1      33.682  15.094  10.558  0.00  0.00    -0.343 N 
ATOM     12  HN  UNK N   1      33.047  14.338  10.814  1.00  0.00     0.167 HD
BRANCH   9  13
HETATM   13  N   UNK N   1      34.495  17.940   8.357  0.00  0.00    -0.107 N 
HETATM   14  O   UNK N   1      35.217  19.023   8.539  0.00  0.00    -0.531 OA
HETATM   15  O   UNK N   1      33.851  17.819   7.358  0.00  0.00    -0.531 OA
ENDBRANCH   9  13
ENDBRANCH   1   7
BRANCH   3  16
HETATM   16  C   UNK N   1      35.588  13.578  14.892  0.00  0.00     0.162 C 
BRANCH  16  17
HETATM   17  C   UNK N   1      35.402  12.847  16.172  0.00  0.00    -0.040 A 
HETATM   18  C   UNK N   1      35.201  13.541  17.371  0.00  0.00     0.011 A 
HETATM   19  C   UNK N   1      35.154  12.842  18.581  0.00  0.00     0.037 A 
HETATM   20  C   UNK N   1      35.316  11.443  18.599  0.00  0.00     0.068 A 
HETATM   21  C   UNK N   1      35.500  10.759  17.394  0.00  0.00     0.037 A 
HETATM   22  C   UNK N   1      35.551  11.458  16.187  0.00  0.00     0.011 A 
BRANCH  20  23
HETATM   23  O   UNK N   1      35.314  10.740  19.756  0.00  0.00    -0.356 OA
HETATM   24  C   UNK N   1      34.485   9.666  19.985  0.00  0.00     0.210 C 
ENDBRANCH  20  23
ENDBRANCH  16  17
ENDBRANCH   3  16
TORSDOF 5
ENDMDL
MODEL 2
REMARK VINA RESULT:      -6.8     12.550     14.163
REMARK  5 active torsions:
REMARK  status: ('A' for Active; 'I' for Inactive)
REMARK    1  A    between atoms: C_1  and  N_5 
REMARK       I    between atoms: N_5  and  C_8 
REMARK    2  A    between atoms: C_6  and  N_9 
REMARK       I    between atoms: C_8  and  N_10 
REMARK    3  A    between atoms: N_10  and  C_14 
REMARK    4  A    between atoms: C_14  and  C_15 
REMARK    5  A    between atoms: C_20  and  O_21 
ROOT
HETATM    1  N   UNK N   1      22.201  16.620   5.832  0.00  0.00    -0.289 N 
HETATM    2  C   UNK N   1      21.387  16.792   6.908  0.00  0.00     0.322 C 
HETATM    3  N   UNK N   1      20.976  15.721   7.628  0.00  0.00    -0.339 N 
HETATM    4  O   UNK N   1      21.022  17.911   7.237  0.00  0.00    -0.247 OA
HETATM    5  H   UNK N   1      22.334  15.707   5.487  0.00  0.00     0.172 HD
HETATM    6  H   UNK N   1      20.301  15.838   8.334  0.00  0.00     0.164 HD
ENDROOT
BRANCH   1   7
HETATM    7  C   UNK N   1      22.870  17.687   5.184  0.00  0.00     0.154 A 
HETATM    8  S   UNK N   1      22.200  18.705   4.074  0.00  0.00    -0.028 SA
HETATM    9  C   UNK N   1      23.586  19.541   3.725  0.00  0.00     0.162 A 
HETATM   10  C   UNK N   1      24.613  18.980   4.499  0.00  0.00     0.134 A 
HETATM   11  N   UNK N   1      24.199  17.943   5.311  0.00  0.00    -0.343 N 
ATOM     12  HN  UNK N   1      24.821  17.427   5.935  1.00  0.00     0.167 HD
BRANCH   9  13
HETATM   13  N   UNK N   1      23.718  20.627   2.828  0.00  0.00    -0.107 N 
HETATM   14  O   UNK N   1      24.803  20.749   2.096  0.00  0.00    -0.531 OA
HETATM   15  O   UNK N   1      22.855  21.449   2.748  0.00  0.00    -0.531 OA
ENDBRANCH   9  13
ENDBRANCH   1   7
BRANCH   3  16
HETATM   16  C   UNK N   1      21.520  14.411   7.367  0.00  0.00     0.162 C 
BRANCH  16  17
HETATM   17  C   UNK N   1      22.059  13.750   8.583  0.00  0.00    -0.040 A 
HETATM   18  C   UNK N   1      23.413  13.407   8.671  0.00  0.00     0.011 A 
HETATM   19  C   UNK N   1      23.876  12.673   9.768  0.00  0.00     0.037 A 
HETATM   20  C   UNK N   1      22.983  12.271  10.781  0.00  0.00     0.068 A 
HETATM   21  C   UNK N   1      21.636  12.633  10.689  0.00  0.00     0.037 A 
HETATM   22  C   UNK N   1      21.174  13.362   9.591  0.00  0.00     0.011 A 
BRANCH  20  23
HETATM   23  O   UNK N   1      23.390  11.528  11.837  0.00  0.00    -0.356 OA
HETATM   24  C   UNK N   1      23.254  11.936  13.144  0.00  0.00     0.210 C 
ENDBRANCH  20  23
ENDBRANCH  16  17
ENDBRANCH   3  16
TORSDOF 5
ENDMDL
MODEL 3
REMARK VINA RESULT:      -6.6     13.808     15.926
REMARK  5 active torsions:
REMARK  status: ('A' for Active; 'I' for Inactive)
REMARK    1  A    between atoms: C_1  and  N_5 
REMARK       I    between atoms: N_5  and  C_8 
REMARK    2  A    between atoms: C_6  and  N_9 
REMARK       I    between atoms: C_8  and  N_10 
REMARK    3  A    between atoms: N_10  and  C_14 
REMARK    4  A    between atoms: C_14  and  C_15 
REMARK    5  A    between atoms: C_20  and  O_21 
ROOT
HETATM    1  N   UNK N   1      20.706  16.000   4.552  0.00  0.00    -0.289 N 
HETATM    2  C   UNK N   1      19.730  15.633   5.426  0.00  0.00     0.322 C 
HETATM    3  N   UNK N   1      19.981  14.695   6.370  0.00  0.00    -0.339 N 
HETATM    4  O   UNK N   1      18.623  16.148   5.370  0.00  0.00    -0.247 OA
HETATM    5  H   UNK N   1      21.521  15.450   4.504  0.00  0.00     0.172 HD
HETATM    6  H   UNK N   1      19.244  14.354   6.926  0.00  0.00     0.164 HD
ENDROOT
BRANCH   1   7
HETATM    7  C   UNK N   1      20.609  17.133   3.708  0.00  0.00     0.154 A 
HETATM    8  S   UNK N   1      21.797  18.251   3.465  0.00  0.00    -0.028 SA
HETATM    9  C   UNK N   1      20.908  19.263   2.503  0.00  0.00     0.162 A 
HETATM   10  C   UNK N   1      19.625  18.706   2.390  0.00  0.00     0.134 A 
HETATM   11  N   UNK N   1      19.471  17.513   3.070  0.00  0.00    -0.343 N 
ATOM     12  HN  UNK N   1      18.602  16.979   3.090  1.00  0.00     0.167 HD
BRANCH   9  13
HETATM   13  N   UNK N   1      21.351  20.460   1.893  0.00  0.00    -0.107 N 
HETATM   14  O   UNK N   1      21.874  21.419   2.625  0.00  0.00    -0.531 OA
HETATM   15  O   UNK N   1      21.230  20.614   0.714  0.00  0.00    -0.531 OA
ENDBRANCH   9  13
ENDBRANCH   1   7
BRANCH   3  16
HETATM   16  C   UNK N   1      21.318  14.192   6.566  0.00  0.00     0.162 C 
BRANCH  16  17
HETATM   17  C   UNK N   1      21.572  13.736   7.958  0.00  0.00    -0.040 A 
HETATM   18  C   UNK N   1      22.721  13.001   8.272  0.00  0.00     0.011 A 
HETATM   19  C   UNK N   1      22.879  12.472   9.557  0.00  0.00     0.037 A 
HETATM   20  C   UNK N   1      21.883  12.671  10.534  0.00  0.00     0.068 A 
HETATM   21  C   UNK N   1      20.748  13.419  10.212  0.00  0.00     0.037 A 
HETATM   22  C   UNK N   1      20.588  13.943   8.928  0.00  0.00     0.011 A 
BRANCH  20  23
HETATM   23  O   UNK N   1      21.987  12.141  11.775  0.00  0.00    -0.356 OA
HETATM   24  C   UNK N   1      23.192  11.863  12.379  0.00  0.00     0.210 C 
ENDBRANCH  20  23
ENDBRANCH  16  17
ENDBRANCH   3  16
TORSDOF 5
ENDMDL
MODEL 4
REMARK VINA RESULT:      -6.5      2.197      2.993
REMARK  5 active torsions:
REMARK  status: ('A' for Active; 'I' for Inactive)
REMARK    1  A    between atoms: C_1  and  N_5 
REMARK       I    between atoms: N_5  and  C_8 
REMARK    2  A    between atoms: C_6  and  N_9 
REMARK       I    between atoms: C_8  and  N_10 
REMARK    3  A    between atoms: N_10  and  C_14 
REMARK    4  A    between atoms: C_14  and  C_15 
REMARK    5  A    between atoms: C_20  and  O_21 
ROOT
HETATM    1  N   UNK N   1      34.866  15.217  10.458  0.00  0.00    -0.289 N 
HETATM    2  C   UNK N   1      36.036  15.470  11.103  0.00  0.00     0.322 C 
HETATM    3  N   UNK N   1      36.492  14.611  12.047  0.00  0.00    -0.339 N 
HETATM    4  O   UNK N   1      36.688  16.469  10.837  0.00  0.00    -0.247 OA
HETATM    5  H   UNK N   1      34.280  14.509  10.812  0.00  0.00     0.172 HD
HETATM    6  H   UNK N   1      37.278  14.853  12.587  0.00  0.00     0.164 HD
ENDROOT
BRANCH   1   7
HETATM    7  C   UNK N   1      34.448  15.919   9.300  0.00  0.00     0.154 A 
HETATM    8  S   UNK N   1      34.575  15.371   7.750  0.00  0.00    -0.028 SA
HETATM    9  C   UNK N   1      34.016  16.747   7.019  0.00  0.00     0.162 A 
HETATM   10  C   UNK N   1      33.742  17.674   8.037  0.00  0.00     0.134 A 
HETATM   11  N   UNK N   1      33.988  17.197   9.309  0.00  0.00    -0.343 N 
ATOM     12  HN  UNK N   1      33.841  17.743  10.158  1.00  0.00     0.167 HD
BRANCH   9  13
HETATM   13  N   UNK N   1      33.833  16.957   5.632  0.00  0.00    -0.107 N 
HETATM   14  O   UNK N   1      33.477  18.140   5.184  0.00  0.00    -0.531 OA
HETATM   15  O   UNK N   1      33.979  16.053   4.864  0.00  0.00    -0.531 OA
ENDBRANCH   9  13
ENDBRANCH   1   7
BRANCH   3  16
HETATM   16  C   UNK N   1      35.834  13.346  12.264  0.00  0.00     0.162 C 
BRANCH  16  17
HETATM   17  C   UNK N   1      35.664  13.017  13.703  0.00  0.00    -0.040 A 
HETATM   18  C   UNK N   1      34.732  12.057  14.114  0.00  0.00     0.011 A 
HETATM   19  C   UNK N   1      34.497  11.852  15.477  0.00  0.00     0.037 A 
HETATM   20  C   UNK N   1      35.190  12.613  16.439  0.00  0.00     0.068 A 
HETATM   21  C   UNK N   1      36.129  13.558  16.017  0.00  0.00     0.037 A 
HETATM   22  C   UNK N   1      36.360  13.765  14.655  0.00  0.00     0.011 A 
BRANCH  20  23
HETATM   23  O   UNK N   1      34.959  12.467  17.764  0.00  0.00    -0.356 OA
HETATM   24  C   UNK N   1      35.164  13.473  18.681  0.00  0.00     0.210 C 
ENDBRANCH  20  23
ENDBRANCH  16  17
ENDBRANCH   3  16
TORSDOF 5
ENDMDL
MODEL 5
REMARK VINA RESULT:      -6.4      2.120      2.937
REMARK  5 active torsions:
REMARK  status: ('A' for Active; 'I' for Inactive)
REMARK    1  A    between atoms: C_1  and  N_5 
REMARK       I    between atoms: N_5  and  C_8 
REMARK    2  A    between atoms: C_6  and  N_9 
REMARK       I    between atoms: C_8  and  N_10 
REMARK    3  A    between atoms: N_10  and  C_14 
REMARK    4  A    between atoms: C_14  and  C_15 
REMARK    5  A    between atoms: C_20  and  O_21 
ROOT
HETATM    1  N   UNK N   1      34.765  15.852  10.928  0.00  0.00    -0.289 N 
HETATM    2  C   UNK N   1      36.056  15.628  11.292  0.00  0.00     0.322 C 
HETATM    3  N   UNK N   1      36.340  14.770  12.302  0.00  0.00    -0.339 N 
HETATM    4  O   UNK N   1      36.971  16.193  10.711  0.00  0.00    -0.247 OA
HETATM    5  H   UNK N   1      34.049  15.525  11.521  0.00  0.00     0.172 HD
HETATM    6  H   UNK N   1      37.263  14.696  12.634  0.00  0.00     0.164 HD
ENDROOT
BRANCH   1   7
HETATM    7  C   UNK N   1      34.398  16.528   9.740  0.00  0.00     0.154 A 
HETATM    8  S   UNK N   1      33.416  15.926   8.559  0.00  0.00    -0.028 SA
HETATM    9  C   UNK N   1      33.576  17.201   7.515  0.00  0.00     0.162 A 
HETATM   10  C   UNK N   1      34.451  18.120   8.114  0.00  0.00     0.134 A 
HETATM   11  N   UNK N   1      34.904  17.731   9.360  0.00  0.00    -0.343 N 
ATOM     12  HN  UNK N   1      35.545  18.284   9.929  1.00  0.00     0.167 HD
BRANCH   9  13
HETATM   13  N   UNK N   1      32.945  17.352   6.258  0.00  0.00    -0.107 N 
HETATM   14  O   UNK N   1      33.590  17.910   5.258  0.00  0.00    -0.531 OA
HETATM   15  O   UNK N   1      31.815  16.995   6.106  0.00  0.00    -0.531 OA
ENDBRANCH   9  13
ENDBRANCH   1   7
BRANCH   3  16
HETATM   16  C   UNK N   1      35.299  13.966  12.893  0.00  0.00     0.162 C 
BRANCH  16  17
HETATM   17  C   UNK N   1      35.795  13.068  13.968  0.00  0.00    -0.040 A 
HETATM   18  C   UNK N   1      36.858  12.188  13.732  0.00  0.00     0.011 A 
HETATM   19  C   UNK N   1      37.227  11.263  14.713  0.00  0.00     0.037 A 
HETATM   20  C   UNK N   1      36.529  11.208  15.936  0.00  0.00     0.068 A 
HETATM   21  C   UNK N   1      35.479  12.102  16.165  0.00  0.00     0.037 A 
HETATM   22  C   UNK N   1      35.108  13.023  15.183  0.00  0.00     0.011 A 
BRANCH  20  23
HETATM   23  O   UNK N   1      36.835  10.300  16.892  0.00  0.00    -0.356 OA
HETATM   24  C   UNK N   1      36.044  10.068  17.994  0.00  0.00     0.210 C 
ENDBRANCH  20  23
ENDBRANCH  16  17
ENDBRANCH   3  16
TORSDOF 5
ENDMDL
MODEL 6
REMARK VINA RESULT:      -6.2     20.157     23.936
REMARK  5 active torsions:
REMARK  status: ('A' for Active; 'I' for Inactive)
REMARK    1  A    between atoms: C_1  and  N_5 
REMARK       I    between atoms: N_5  and  C_8 
REMARK    2  A    between atoms: C_6  and  N_9 
REMARK       I    between atoms: C_8  and  N_10 
REMARK    3  A    between atoms: N_10  and  C_14 
REMARK    4  A    between atoms: C_14  and  C_15 
REMARK    5  A    between atoms: C_20  and  O_21 
ROOT
HETATM    1  N   UNK N   1      27.554  24.336  -5.936  0.00  0.00    -0.289 N 
HETATM    2  C   UNK N   1      26.328  23.944  -6.379  0.00  0.00     0.322 C 
HETATM    3  N   UNK N   1      25.555  24.800  -7.088  0.00  0.00    -0.339 N 
HETATM    4  O   UNK N   1      25.917  22.817  -6.145  0.00  0.00    -0.247 OA
HETATM    5  H   UNK N   1      27.783  25.293  -5.984  0.00  0.00     0.172 HD
HETATM    6  H   UNK N   1      24.629  24.552  -7.310  0.00  0.00     0.164 HD
ENDROOT
BRANCH   1   7
HETATM    7  C   UNK N   1      28.516  23.439  -5.413  0.00  0.00     0.154 A 
HETATM    8  S   UNK N   1      29.370  23.656  -4.019  0.00  0.00    -0.028 SA
HETATM    9  C   UNK N   1      30.317  22.306  -4.168  0.00  0.00     0.162 A 
HETATM   10  C   UNK N   1      29.957  21.678  -5.370  0.00  0.00     0.134 A 
HETATM   11  N   UNK N   1      28.947  22.323  -6.057  0.00  0.00    -0.343 N 
ATOM     12  HN  UNK N   1      28.569  21.998  -6.947  1.00  0.00     0.167 HD
BRANCH   9  13
HETATM   13  N   UNK N   1      31.299  21.854  -3.255  0.00  0.00    -0.107 N 
HETATM   14  O   UNK N   1      32.166  20.936  -3.620  0.00  0.00    -0.531 OA
HETATM   15  O   UNK N   1      31.330  22.288  -2.142  0.00  0.00    -0.531 OA
ENDBRANCH   9  13
ENDBRANCH   1   7
BRANCH   3  16
HETATM   16  C   UNK N   1      26.079  26.073  -7.520  0.00  0.00     0.162 C 
BRANCH  16  17
HETATM   17  C   UNK N   1      26.096  27.093  -6.440  0.00  0.00    -0.040 A 
HETATM   18  C   UNK N   1      27.136  28.026  -6.353  0.00  0.00     0.011 A 
HETATM   19  C   UNK N   1      27.203  28.895  -5.260  0.00  0.00     0.037 A 
HETATM   20  C   UNK N   1      26.231  28.831  -4.242  0.00  0.00     0.068 A 
HETATM   21  C   UNK N   1      25.189  27.905  -4.347  0.00  0.00     0.037 A 
HETATM   22  C   UNK N   1      25.126  27.035  -5.438  0.00  0.00     0.011 A 
BRANCH  20  23
HETATM   23  O   UNK N   1      26.287  29.630  -3.151  0.00  0.00    -0.356 OA
HETATM   24  C   UNK N   1      27.232  30.617  -2.986  0.00  0.00     0.210 C 
ENDBRANCH  20  23
ENDBRANCH  16  17
ENDBRANCH   3  16
TORSDOF 5
ENDMDL
MODEL 7
REMARK VINA RESULT:      -6.2      6.921     10.448
REMARK  5 active torsions:
REMARK  status: ('A' for Active; 'I' for Inactive)
REMARK    1  A    between atoms: C_1  and  N_5 
REMARK       I    between atoms: N_5  and  C_8 
REMARK    2  A    between atoms: C_6  and  N_9 
REMARK       I    between atoms: C_8  and  N_10 
REMARK    3  A    between atoms: N_10  and  C_14 
REMARK    4  A    between atoms: C_14  and  C_15 
REMARK    5  A    between atoms: C_20  and  O_21 
ROOT
HETATM    1  N   UNK N   1      28.577  18.216   6.144  0.00  0.00    -0.289 N 
HETATM    2  C   UNK N   1      28.826  18.390   7.471  0.00  0.00     0.322 C 
HETATM    3  N   UNK N   1      29.901  17.797   8.044  0.00  0.00    -0.339 N 
HETATM    4  O   UNK N   1      28.088  19.084   8.154  0.00  0.00    -0.247 OA
HETATM    5  H   UNK N   1      29.078  17.519   5.663  0.00  0.00     0.172 HD
HETATM    6  H   UNK N   1      30.014  17.833   9.021  0.00  0.00     0.164 HD
ENDROOT
BRANCH   1   7
HETATM    7  C   UNK N   1      27.636  18.989   5.422  0.00  0.00     0.154 A 
HETATM    8  S   UNK N   1      26.247  18.417   4.742  0.00  0.00    -0.028 SA
HETATM    9  C   UNK N   1      25.796  19.835   4.017  0.00  0.00     0.162 A 
HETATM   10  C   UNK N   1      26.789  20.783   4.306  0.00  0.00     0.134 A 
HETATM   11  N   UNK N   1      27.814  20.296   5.094  0.00  0.00    -0.343 N 
ATOM     12  HN  UNK N   1      28.613  20.854   5.395  1.00  0.00     0.167 HD
BRANCH   9  13
HETATM   13  N   UNK N   1      24.625  20.063   3.255  0.00  0.00    -0.107 N 
HETATM   14  O   UNK N   1      24.665  20.848   2.202  0.00  0.00    -0.531 OA
HETATM   15  O   UNK N   1      23.590  19.562   3.580  0.00  0.00    -0.531 OA
ENDBRANCH   9  13
ENDBRANCH   1   7
BRANCH   3  16
HETATM   16  C   UNK N   1      30.877  17.111   7.235  0.00  0.00     0.162 C 
BRANCH  16  17
HETATM   17  C   UNK N   1      32.194  16.964   7.909  0.00  0.00    -0.040 A 
HETATM   18  C   UNK N   1      32.469  15.846   8.706  0.00  0.00     0.011 A 
HETATM   19  C   UNK N   1      33.662  15.787   9.433  0.00  0.00     0.037 A 
HETATM   20  C   UNK N   1      34.585  16.850   9.371  0.00  0.00     0.068 A 
HETATM   21  C   UNK N   1      34.305  17.953   8.560  0.00  0.00     0.037 A 
HETATM   22  C   UNK N   1      33.112  18.014   7.838  0.00  0.00     0.011 A 
BRANCH  20  23
HETATM   23  O   UNK N   1      35.731  16.841  10.090  0.00  0.00    -0.356 OA
HETATM   24  C   UNK N   1      36.200  15.729  10.751  0.00  0.00     0.210 C 
ENDBRANCH  20  23
ENDBRANCH  16  17
ENDBRANCH   3  16
TORSDOF 5
ENDMDL
MODEL 8
REMARK VINA RESULT:      -6.1      7.135     11.691
REMARK  5 active torsions:
REMARK  status: ('A' for Active; 'I' for Inactive)
REMARK    1  A    between atoms: C_1  and  N_5 
REMARK       I    between atoms: N_5  and  C_8 
REMARK    2  A    between atoms: C_6  and  N_9 
REMARK       I    between atoms: C_8  and  N_10 
REMARK    3  A    between atoms: N_10  and  C_14 
REMARK    4  A    between atoms: C_14  and  C_15 
REMARK    5  A    between atoms: C_20  and  O_21 
ROOT
HETATM    1  N   UNK N   1      31.690  16.508   5.804  0.00  0.00    -0.289 N 
HETATM    2  C   UNK N   1      31.725  17.372   4.754  0.00  0.00     0.322 C 
HETATM    3  N   UNK N   1      30.581  17.708   4.111  0.00  0.00    -0.339 N 
HETATM    4  O   UNK N   1      32.785  17.856   4.384  0.00  0.00    -0.247 OA
HETATM    5  H   UNK N   1      30.861  16.003   5.966  0.00  0.00     0.172 HD
HETATM    6  H   UNK N   1      30.624  18.243   3.286  0.00  0.00     0.164 HD
ENDROOT
BRANCH   1   7
HETATM    7  C   UNK N   1      32.785  16.301   6.678  0.00  0.00     0.154 A 
HETATM    8  S   UNK N   1      32.961  16.979   8.171  0.00  0.00    -0.028 SA
HETATM    9  C   UNK N   1      34.472  16.375   8.474  0.00  0.00     0.162 A 
HETATM   10  C   UNK N   1      34.855  15.632   7.346  0.00  0.00     0.134 A 
HETATM   11  N   UNK N   1      33.901  15.599   6.348  0.00  0.00    -0.343 N 
ATOM     12  HN  UNK N   1      34.021  15.104   5.464  1.00  0.00     0.167 HD
BRANCH   9  13
HETATM   13  N   UNK N   1      35.239  16.557   9.649  0.00  0.00    -0.107 N 
HETATM   14  O   UNK N   1      35.783  15.522  10.249  0.00  0.00    -0.531 OA
HETATM   15  O   UNK N   1      35.376  17.649  10.114  0.00  0.00    -0.531 OA
ENDBRANCH   9  13
ENDBRANCH   1   7
BRANCH   3  16
HETATM   16  C   UNK N   1      29.302  17.286   4.625  0.00  0.00     0.162 C 
BRANCH  16  17
HETATM   17  C   UNK N   1      28.487  18.409   5.157  0.00  0.00    -0.040 A 
HETATM   18  C   UNK N   1      27.925  19.357   4.295  0.00  0.00     0.011 A 
HETATM   19  C   UNK N   1      27.271  20.476   4.821  0.00  0.00     0.037 A 
HETATM   20  C   UNK N   1      27.181  20.655   6.215  0.00  0.00     0.068 A 
HETATM   21  C   UNK N   1      27.734  19.693   7.066  0.00  0.00     0.037 A 
HETATM   22  C   UNK N   1      28.391  18.579   6.540  0.00  0.00     0.011 A 
BRANCH  20  23
HETATM   23  O   UNK N   1      26.588  21.744   6.758  0.00  0.00    -0.356 OA
HETATM   24  C   UNK N   1      25.810  21.694   7.891  0.00  0.00     0.210 C 
ENDBRANCH  20  23
ENDBRANCH  16  17
ENDBRANCH   3  16
TORSDOF 5
ENDMDL
MODEL 9
REMARK VINA RESULT:      -6.0      2.359      3.301
REMARK  5 active torsions:
REMARK  status: ('A' for Active; 'I' for Inactive)
REMARK    1  A    between atoms: C_1  and  N_5 
REMARK       I    between atoms: N_5  and  C_8 
REMARK    2  A    between atoms: C_6  and  N_9 
REMARK       I    between atoms: C_8  and  N_10 
REMARK    3  A    between atoms: N_10  and  C_14 
REMARK    4  A    between atoms: C_14  and  C_15 
REMARK    5  A    between atoms: C_20  and  O_21 
ROOT
HETATM    1  N   UNK N   1      34.906  13.201   9.430  0.00  0.00    -0.289 N 
HETATM    2  C   UNK N   1      33.847  12.350   9.509  0.00  0.00     0.322 C 
HETATM    3  N   UNK N   1      33.919  11.245  10.289  0.00  0.00    -0.339 N 
HETATM    4  O   UNK N   1      32.823  12.576   8.882  0.00  0.00    -0.247 OA
HETATM    5  H   UNK N   1      35.770  12.907   9.799  0.00  0.00     0.172 HD
HETATM    6  H   UNK N   1      33.197  10.577  10.256  0.00  0.00     0.164 HD
ENDROOT
BRANCH   1   7
HETATM    7  C   UNK N   1      34.827  14.488   8.846  0.00  0.00     0.154 A 
HETATM    8  S   UNK N   1      34.584  15.899   9.666  0.00  0.00    -0.028 SA
HETATM    9  C   UNK N   1      34.497  16.877   8.333  0.00  0.00     0.162 A 
HETATM   10  C   UNK N   1      34.644  16.055   7.205  0.00  0.00     0.134 A 
HETATM   11  N   UNK N   1      34.829  14.719   7.507  0.00  0.00    -0.343 N 
ATOM     12  HN  UNK N   1      34.952  13.991   6.804  1.00  0.00     0.167 HD
BRANCH   9  13
HETATM   13  N   UNK N   1      34.319  18.280   8.321  0.00  0.00    -0.107 N 
HETATM   14  O   UNK N   1      33.122  18.793   8.146  0.00  0.00    -0.531 OA
HETATM   15  O   UNK N   1      35.261  19.006   8.447  0.00  0.00    -0.531 OA
ENDBRANCH   9  13
ENDBRANCH   1   7
BRANCH   3  16
HETATM   16  C   UNK N   1      35.046  11.039  11.165  0.00  0.00     0.162 C 
BRANCH  16  17
HETATM   17  C   UNK N   1      34.801  11.512  12.552  0.00  0.00    -0.040 A 
HETATM   18  C   UNK N   1      35.414  12.676  13.031  0.00  0.00     0.011 A 
HETATM   19  C   UNK N   1      35.272  13.035  14.375  0.00  0.00     0.037 A 
HETATM   20  C   UNK N   1      34.520  12.227  15.250  0.00  0.00     0.068 A 
HETATM   21  C   UNK N   1      33.900  11.076  14.756  0.00  0.00     0.037 A 
HETATM   22  C   UNK N   1      34.046  10.715  13.415  0.00  0.00     0.011 A 
BRANCH  20  23
HETATM   23  O   UNK N   1      34.394  12.525  16.564  0.00  0.00    -0.356 OA
HETATM   24  C   UNK N   1      35.218  13.410  17.220  0.00  0.00     0.210 C 
ENDBRANCH  20  23
ENDBRANCH  16  17
ENDBRANCH   3  16
TORSDOF 5
ENDMDL
