MODEL 1
REMARK VINA RESULT:      -5.7      0.000      0.000
REMARK  3 active torsions:
REMARK  status: ('A' for Active; 'I' for Inactive)
REMARK    1  A    between atoms: C_3  and  N_4 
REMARK    2  A    between atoms: C_8  and  N_9 
REMARK    3  A    between atoms: C_13  and  N_14 
ROOT
HETATM    1  C   UNK N   1      31.279  17.236   6.560  0.00  0.00     0.004 A 
HETATM    2  C   UNK N   1      30.029  16.860   5.825  0.00  0.00     0.053 C 
HETATM    3  C   UNK N   1      32.554  17.133   5.918  0.00  0.00     0.113 A 
HETATM    4  C   UNK N   1      33.705  17.494   6.638  0.00  0.00     0.072 A 
HETATM    5  C   UNK N   1      33.627  17.946   7.955  0.00  0.00     0.107 A 
HETATM    6  C   UNK N   1      32.389  18.043   8.569  0.00  0.00     0.072 A 
HETATM    7  C   UNK N   1      31.207  17.700   7.910  0.00  0.00     0.113 A 
ENDROOT
BRANCH   3   8
HETATM    8  N   UNK N   1      32.720  16.677   4.566  0.00  0.00    -0.115 N 
HETATM    9  O   UNK N   1      32.760  17.470   3.674  0.00  0.00    -0.532 OA
HETATM   10  O   UNK N   1      32.831  15.397   4.282  0.00  0.00    -0.532 OA
ENDBRANCH   3   8
BRANCH   7  11
HETATM   11  N   UNK N   1      29.979  17.837   8.637  0.00  0.00    -0.115 N 
HETATM   12  O   UNK N   1      29.680  17.014   9.452  0.00  0.00    -0.532 OA
HETATM   13  O   UNK N   1      29.165  18.849   8.433  0.00  0.00    -0.532 OA
ENDBRANCH   7  11
BRANCH   5  14
HETATM   14  N   UNK N   1      34.797  18.309   8.675  0.00  0.00    -0.116 N 
HETATM   15  O   UNK N   1      35.363  19.332   8.436  0.00  0.00    -0.532 OA
HETATM   16  O   UNK N   1      35.265  17.512   9.615  0.00  0.00    -0.532 OA
ENDBRANCH   5  14
TORSDOF 3
ENDMDL
MODEL 2
REMARK VINA RESULT:      -5.7      0.161      3.849
REMARK  3 active torsions:
REMARK  status: ('A' for Active; 'I' for Inactive)
REMARK    1  A    between atoms: C_3  and  N_4 
REMARK    2  A    between atoms: C_8  and  N_9 
REMARK    3  A    between atoms: C_13  and  N_14 
ROOT
HETATM    1  C   UNK N   1      31.355  17.228   6.467  0.00  0.00     0.004 A 
HETATM    2  C   UNK N   1      30.147  16.842   5.671  0.00  0.00     0.053 C 
HETATM    3  C   UNK N   1      31.218  17.686   7.816  0.00  0.00     0.113 A 
HETATM    4  C   UNK N   1      32.374  18.040   8.531  0.00  0.00     0.072 A 
HETATM    5  C   UNK N   1      33.641  17.954   7.955  0.00  0.00     0.107 A 
HETATM    6  C   UNK N   1      33.765  17.510   6.648  0.00  0.00     0.072 A 
HETATM    7  C   UNK N   1      32.657  17.143   5.883  0.00  0.00     0.113 A 
ENDROOT
BRANCH   3   8
HETATM    8  N   UNK N   1      29.951  17.803   8.482  0.00  0.00    -0.115 N 
HETATM    9  O   UNK N   1      29.562  16.914   9.178  0.00  0.00    -0.532 OA
HETATM   10  O   UNK N   1      29.200  18.875   8.346  0.00  0.00    -0.532 OA
ENDBRANCH   3   8
BRANCH   7  11
HETATM   11  N   UNK N   1      32.896  16.697   4.541  0.00  0.00    -0.115 N 
HETATM   12  O   UNK N   1      33.163  15.549   4.339  0.00  0.00    -0.532 OA
HETATM   13  O   UNK N   1      32.831  17.520   3.519  0.00  0.00    -0.532 OA
ENDBRANCH   7  11
BRANCH   5  14
HETATM   14  N   UNK N   1      34.804  18.314   8.687  0.00  0.00    -0.116 N 
HETATM   15  O   UNK N   1      35.388  19.324   8.438  0.00  0.00    -0.532 OA
HETATM   16  O   UNK N   1      35.246  17.529   9.649  0.00  0.00    -0.532 OA
ENDBRANCH   5  14
TORSDOF 3
ENDMDL
MODEL 3
REMARK VINA RESULT:      -5.6      1.152      3.906
REMARK  3 active torsions:
REMARK  status: ('A' for Active; 'I' for Inactive)
REMARK    1  A    between atoms: C_3  and  N_4 
REMARK    2  A    between atoms: C_8  and  N_9 
REMARK    3  A    between atoms: C_13  and  N_14 
ROOT
HETATM    1  C   UNK N   1      32.763  17.205   6.641  0.00  0.00     0.004 A 
HETATM    2  C   UNK N   1      33.937  16.878   5.772  0.00  0.00     0.053 C 
HETATM    3  C   UNK N   1      31.430  16.976   6.174  0.00  0.00     0.113 A 
HETATM    4  C   UNK N   1      30.353  17.295   7.018  0.00  0.00     0.072 A 
HETATM    5  C   UNK N   1      30.559  17.827   8.291  0.00  0.00     0.107 A 
HETATM    6  C   UNK N   1      31.853  18.046   8.736  0.00  0.00     0.072 A 
HETATM    7  C   UNK N   1      32.967  17.751   7.947  0.00  0.00     0.113 A 
ENDROOT
BRANCH   3   8
HETATM    8  N   UNK N   1      31.132  16.432   4.879  0.00  0.00    -0.115 N 
HETATM    9  O   UNK N   1      30.961  17.167   3.953  0.00  0.00    -0.532 OA
HETATM   10  O   UNK N   1      31.043  15.134   4.683  0.00  0.00    -0.532 OA
ENDBRANCH   3   8
BRANCH   7  11
HETATM   11  N   UNK N   1      34.262  18.016   8.503  0.00  0.00    -0.115 N 
HETATM   12  O   UNK N   1      34.794  17.187   9.181  0.00  0.00    -0.532 OA
HETATM   13  O   UNK N   1      34.885  19.152   8.287  0.00  0.00    -0.532 OA
ENDBRANCH   7  11
BRANCH   5  14
HETATM   14  N   UNK N   1      29.463  18.147   9.137  0.00  0.00    -0.116 N 
HETATM   15  O   UNK N   1      28.360  17.781   8.865  0.00  0.00    -0.532 OA
HETATM   16  O   UNK N   1      29.661  18.852  10.233  0.00  0.00    -0.532 OA
ENDBRANCH   5  14
TORSDOF 3
ENDMDL
MODEL 4
REMARK VINA RESULT:      -5.6      1.103      4.547
REMARK  3 active torsions:
REMARK  status: ('A' for Active; 'I' for Inactive)
REMARK    1  A    between atoms: C_3  and  N_4 
REMARK    2  A    between atoms: C_8  and  N_9 
REMARK    3  A    between atoms: C_13  and  N_14 
ROOT
HETATM    1  C   UNK N   1      32.841  17.215   6.711  0.00  0.00     0.004 A 
HETATM    2  C   UNK N   1      34.037  16.886   5.872  0.00  0.00     0.053 C 
HETATM    3  C   UNK N   1      33.006  17.791   8.011  0.00  0.00     0.113 A 
HETATM    4  C   UNK N   1      31.861  18.087   8.770  0.00  0.00     0.072 A 
HETATM    5  C   UNK N   1      30.579  17.830   8.283  0.00  0.00     0.107 A 
HETATM    6  C   UNK N   1      30.429  17.273   7.024  0.00  0.00     0.072 A 
HETATM    7  C   UNK N   1      31.525  16.956   6.219  0.00  0.00     0.113 A 
ENDROOT
BRANCH   3   8
HETATM    8  N   UNK N   1      34.289  18.086   8.585  0.00  0.00    -0.115 N 
HETATM    9  O   UNK N   1      34.765  17.339   9.386  0.00  0.00    -0.532 OA
HETATM   10  O   UNK N   1      34.960  19.166   8.249  0.00  0.00    -0.532 OA
ENDBRANCH   3   8
BRANCH   7  11
HETATM   11  N   UNK N   1      31.258  16.382   4.932  0.00  0.00    -0.115 N 
HETATM   12  O   UNK N   1      31.109  15.199   4.832  0.00  0.00    -0.532 OA
HETATM   13  O   UNK N   1      31.171  17.123   3.851  0.00  0.00    -0.532 OA
ENDBRANCH   7  11
BRANCH   5  14
HETATM   14  N   UNK N   1      29.427  18.133   9.059  0.00  0.00    -0.116 N 
HETATM   15  O   UNK N   1      28.342  17.804   8.686  0.00  0.00    -0.532 OA
HETATM   16  O   UNK N   1      29.553  18.781  10.199  0.00  0.00    -0.532 OA
ENDBRANCH   5  14
TORSDOF 3
ENDMDL
MODEL 5
REMARK VINA RESULT:      -5.4     10.892     11.573
REMARK  3 active torsions:
REMARK  status: ('A' for Active; 'I' for Inactive)
REMARK    1  A    between atoms: C_3  and  N_4 
REMARK    2  A    between atoms: C_8  and  N_9 
REMARK    3  A    between atoms: C_13  and  N_14 
ROOT
HETATM    1  C   UNK N   1      21.723  12.870   8.132  0.00  0.00     0.004 A 
HETATM    2  C   UNK N   1      21.081  13.208   6.822  0.00  0.00     0.053 C 
HETATM    3  C   UNK N   1      22.756  11.881   8.198  0.00  0.00     0.113 A 
HETATM    4  C   UNK N   1      23.336  11.591   9.445  0.00  0.00     0.072 A 
HETATM    5  C   UNK N   1      22.926  12.243  10.608  0.00  0.00     0.107 A 
HETATM    6  C   UNK N   1      21.926  13.200  10.534  0.00  0.00     0.072 A 
HETATM    7  C   UNK N   1      21.309  13.535   9.328  0.00  0.00     0.113 A 
ENDROOT
BRANCH   3   8
HETATM    8  N   UNK N   1      23.235  11.165   7.049  0.00  0.00    -0.115 N 
HETATM    9  O   UNK N   1      22.752  10.110   6.765  0.00  0.00    -0.532 OA
HETATM   10  O   UNK N   1      24.200  11.644   6.294  0.00  0.00    -0.532 OA
ENDBRANCH   3   8
BRANCH   7  11
HETATM   11  N   UNK N   1      20.285  14.538   9.363  0.00  0.00    -0.115 N 
HETATM   12  O   UNK N   1      19.196  14.256   9.770  0.00  0.00    -0.532 OA
HETATM   13  O   UNK N   1      20.509  15.768   8.958  0.00  0.00    -0.532 OA
ENDBRANCH   7  11
BRANCH   5  14
HETATM   14  N   UNK N   1      23.518  11.943  11.864  0.00  0.00    -0.116 N 
HETATM   15  O   UNK N   1      22.837  11.734  12.821  0.00  0.00    -0.532 OA
HETATM   16  O   UNK N   1      24.830  11.892  11.977  0.00  0.00    -0.532 OA
ENDBRANCH   5  14
TORSDOF 3
ENDMDL
MODEL 6
REMARK VINA RESULT:      -5.1     11.915     13.639
REMARK  3 active torsions:
REMARK  status: ('A' for Active; 'I' for Inactive)
REMARK    1  A    between atoms: C_3  and  N_4 
REMARK    2  A    between atoms: C_8  and  N_9 
REMARK    3  A    between atoms: C_13  and  N_14 
ROOT
HETATM    1  C   UNK N   1      28.588  22.808  -5.991  0.00  0.00     0.004 A 
HETATM    2  C   UNK N   1      27.801  22.914  -7.261  0.00  0.00     0.053 C 
HETATM    3  C   UNK N   1      29.658  21.865  -5.879  0.00  0.00     0.113 A 
HETATM    4  C   UNK N   1      30.374  21.794  -4.672  0.00  0.00     0.072 A 
HETATM    5  C   UNK N   1      30.063  22.620  -3.592  0.00  0.00     0.107 A 
HETATM    6  C   UNK N   1      29.024  23.530  -3.709  0.00  0.00     0.072 A 
HETATM    7  C   UNK N   1      28.274  23.651  -4.880  0.00  0.00     0.113 A 
ENDROOT
BRANCH   3   8
HETATM    8  N   UNK N   1      30.043  20.980  -6.943  0.00  0.00    -0.115 N 
HETATM    9  O   UNK N   1      30.920  21.296  -7.689  0.00  0.00    -0.532 OA
HETATM   10  O   UNK N   1      29.448  19.820  -7.120  0.00  0.00    -0.532 OA
ENDBRANCH   3   8
BRANCH   7  11
HETATM   11  N   UNK N   1      27.221  24.625  -4.895  0.00  0.00    -0.115 N 
HETATM   12  O   UNK N   1      27.466  25.753  -5.206  0.00  0.00    -0.532 OA
HETATM   13  O   UNK N   1      25.986  24.311  -4.574  0.00  0.00    -0.532 OA
ENDBRANCH   7  11
BRANCH   5  14
HETATM   14  N   UNK N   1      30.793  22.541  -2.376  0.00  0.00    -0.116 N 
HETATM   15  O   UNK N   1      30.382  23.068  -1.387  0.00  0.00    -0.532 OA
HETATM   16  O   UNK N   1      31.933  21.881  -2.334  0.00  0.00    -0.532 OA
ENDBRANCH   5  14
TORSDOF 3
ENDMDL
MODEL 7
REMARK VINA RESULT:      -5.1     11.783     12.289
REMARK  3 active torsions:
REMARK  status: ('A' for Active; 'I' for Inactive)
REMARK    1  A    between atoms: C_3  and  N_4 
REMARK    2  A    between atoms: C_8  and  N_9 
REMARK    3  A    between atoms: C_13  and  N_14 
ROOT
HETATM    1  C   UNK N   1      20.951  13.854   7.456  0.00  0.00     0.004 A 
HETATM    2  C   UNK N   1      21.261  12.415   7.178  0.00  0.00     0.053 C 
HETATM    3  C   UNK N   1      20.771  14.777   6.377  0.00  0.00     0.113 A 
HETATM    4  C   UNK N   1      20.481  16.119   6.676  0.00  0.00     0.072 A 
HETATM    5  C   UNK N   1      20.367  16.562   7.994  0.00  0.00     0.107 A 
HETATM    6  C   UNK N   1      20.543  15.662   9.032  0.00  0.00     0.072 A 
HETATM    7  C   UNK N   1      20.833  14.315   8.803  0.00  0.00     0.113 A 
ENDROOT
BRANCH   3   8
HETATM    8  N   UNK N   1      20.871  14.401   4.995  0.00  0.00    -0.115 N 
HETATM    9  O   UNK N   1      19.892  14.066   4.399  0.00  0.00    -0.532 OA
HETATM   10  O   UNK N   1      22.024  14.417   4.360  0.00  0.00    -0.532 OA
ENDBRANCH   3   8
BRANCH   7  11
HETATM   11  N   UNK N   1      20.996  13.469   9.949  0.00  0.00    -0.115 N 
HETATM   12  O   UNK N   1      20.033  12.979  10.464  0.00  0.00    -0.532 OA
HETATM   13  O   UNK N   1      22.182  13.213  10.455  0.00  0.00    -0.532 OA
ENDBRANCH   7  11
BRANCH   5  14
HETATM   14  N   UNK N   1      20.073  17.922   8.286  0.00  0.00    -0.116 N 
HETATM   15  O   UNK N   1      19.291  18.202   9.142  0.00  0.00    -0.532 OA
HETATM   16  O   UNK N   1      20.667  18.883   7.608  0.00  0.00    -0.532 OA
ENDBRANCH   5  14
TORSDOF 3
ENDMDL
MODEL 8
REMARK VINA RESULT:      -5.1     11.951     14.094
REMARK  3 active torsions:
REMARK  status: ('A' for Active; 'I' for Inactive)
REMARK    1  A    between atoms: C_3  and  N_4 
REMARK    2  A    between atoms: C_8  and  N_9 
REMARK    3  A    between atoms: C_13  and  N_14 
ROOT
HETATM    1  C   UNK N   1      28.429  22.982  -5.899  0.00  0.00     0.004 A 
HETATM    2  C   UNK N   1      27.640  23.103  -7.166  0.00  0.00     0.053 C 
HETATM    3  C   UNK N   1      28.100  23.786  -4.762  0.00  0.00     0.113 A 
HETATM    4  C   UNK N   1      28.862  23.645  -3.590  0.00  0.00     0.072 A 
HETATM    5  C   UNK N   1      29.924  22.742  -3.517  0.00  0.00     0.107 A 
HETATM    6  C   UNK N   1      30.235  21.968  -4.623  0.00  0.00     0.072 A 
HETATM    7  C   UNK N   1      29.518  22.060  -5.817  0.00  0.00     0.113 A 
ENDROOT
BRANCH   3   8
HETATM    8  N   UNK N   1      27.024  24.737  -4.755  0.00  0.00    -0.115 N 
HETATM    9  O   UNK N   1      25.951  24.415  -4.342  0.00  0.00    -0.532 OA
HETATM   10  O   UNK N   1      27.191  25.966  -5.195  0.00  0.00    -0.532 OA
ENDBRANCH   3   8
BRANCH   7  11
HETATM   11  N   UNK N   1      29.923  21.212  -6.900  0.00  0.00    -0.115 N 
HETATM   12  O   UNK N   1      30.807  21.564  -7.626  0.00  0.00    -0.532 OA
HETATM   13  O   UNK N   1      29.348  20.052  -7.121  0.00  0.00    -0.532 OA
ENDBRANCH   7  11
BRANCH   5  14
HETATM   14  N   UNK N   1      30.688  22.607  -2.327  0.00  0.00    -0.116 N 
HETATM   15  O   UNK N   1      30.305  23.084  -1.303  0.00  0.00    -0.532 OA
HETATM   16  O   UNK N   1      31.830  21.949  -2.350  0.00  0.00    -0.532 OA
ENDBRANCH   5  14
TORSDOF 3
ENDMDL
MODEL 9
REMARK VINA RESULT:      -5.1     11.487     13.185
REMARK  3 active torsions:
REMARK  status: ('A' for Active; 'I' for Inactive)
REMARK    1  A    between atoms: C_3  and  N_4 
REMARK    2  A    between atoms: C_8  and  N_9 
REMARK    3  A    between atoms: C_13  and  N_14 
ROOT
HETATM    1  C   UNK N   1      20.948  17.559   4.642  0.00  0.00     0.004 A 
HETATM    2  C   UNK N   1      21.338  18.075   5.992  0.00  0.00     0.053 C 
HETATM    3  C   UNK N   1      20.614  16.178   4.464  0.00  0.00     0.113 A 
HETATM    4  C   UNK N   1      20.253  15.730   3.182  0.00  0.00     0.072 A 
HETATM    5  C   UNK N   1      20.213  16.598   2.091  0.00  0.00     0.107 A 
HETATM    6  C   UNK N   1      20.538  17.933   2.273  0.00  0.00     0.072 A 
HETATM    7  C   UNK N   1      20.905  18.443   3.520  0.00  0.00     0.113 A 
ENDROOT
BRANCH   3   8
HETATM    8  N   UNK N   1      20.630  15.220   5.533  0.00  0.00    -0.115 N 
HETATM    9  O   UNK N   1      21.605  14.557   5.721  0.00  0.00    -0.532 OA
HETATM   10  O   UNK N   1      19.588  15.051   6.319  0.00  0.00    -0.532 OA
ENDBRANCH   3   8
BRANCH   7  11
HETATM   11  N   UNK N   1      21.221  19.839   3.598  0.00  0.00    -0.115 N 
HETATM   12  O   UNK N   1      22.346  20.202   3.413  0.00  0.00    -0.532 OA
HETATM   13  O   UNK N   1      20.303  20.740   3.869  0.00  0.00    -0.532 OA
ENDBRANCH   7  11
BRANCH   5  14
HETATM   14  N   UNK N   1      19.846  16.135   0.799  0.00  0.00    -0.116 N 
HETATM   15  O   UNK N   1      19.374  15.049   0.656  0.00  0.00    -0.532 OA
HETATM   16  O   UNK N   1      20.028  16.908  -0.253  0.00  0.00    -0.532 OA
ENDBRANCH   5  14
TORSDOF 3
ENDMDL
