MODEL 1
REMARK VINA RESULT:      -6.4      0.000      0.000
REMARK  6 active torsions:
REMARK  status: ('A' for Active; 'I' for Inactive)
REMARK    1  A    between atoms: C_1  and  S_10 
REMARK    2  A    between atoms: C_2  and  C_3 
REMARK    3  A    between atoms: C_2  and  N_18 
REMARK    4  A    between atoms: N_9  and  S_10 
REMARK    5  A    between atoms: C_13  and  S_15 
REMARK    6  A    between atoms: S_15  and  N_18 
ROOT
HETATM    1  C   UNK N   1      35.487  14.532  10.865  0.00  0.00     0.121 A 
HETATM    2  C   UNK N   1      35.721  15.716  11.582  0.00  0.00     0.035 A 
HETATM    3  C   UNK N   1      35.425  16.900  10.838  0.00  0.00     0.035 A 
HETATM    4  C   UNK N   1      34.979  16.638   9.541  0.00  0.00     0.121 A 
HETATM    5  S   UNK N   1      34.946  15.000   9.338  0.00  0.00    -0.063 SA
ENDROOT
BRANCH   4   6
HETATM    6  S   UNK N   1      34.414  17.837   8.346  0.00  0.00     0.265 S 
HETATM    7  O   UNK N   1      34.743  17.391   6.911  0.00  0.00    -0.200 OA
HETATM    8  O   UNK N   1      35.207  19.148   8.452  0.00  0.00    -0.200 OA
BRANCH   6   9
HETATM    9  N   UNK N   1      32.707  18.336   8.367  0.00  0.00    -0.310 N 
HETATM   10  H   UNK N   1      32.362  19.259   8.627  0.00  0.00     0.172 HD
BRANCH   9  11
HETATM   11  C   UNK N   1      31.885  17.208   7.951  0.00  0.00     0.178 C 
BRANCH  11  12
HETATM   12  C   UNK N   1      30.439  17.495   8.170  0.00  0.00     0.001 A 
HETATM   13  C   UNK N   1      29.406  17.169   7.297  0.00  0.00     0.017 A 
HETATM   14  C   UNK N   1      28.132  17.609   7.762  0.00  0.00     0.008 A 
HETATM   15  C   UNK N   1      28.174  18.279   8.993  0.00  0.00     0.050 A 
HETATM   16  S   UNK N   1      29.770  18.300   9.448  0.00  0.00    -0.105 SA
ENDBRANCH  11  12
ENDBRANCH   9  11
ENDBRANCH   6   9
ENDBRANCH   4   6
BRANCH   1  17
HETATM   17  S   UNK N   1      35.776  12.857  11.573  0.00  0.00     0.263 S 
HETATM   18  O   UNK N   1      36.359  12.678  12.982  0.00  0.00    -0.200 OA
HETATM   19  O   UNK N   1      34.705  13.539  12.434  0.00  0.00    -0.200 OA
BRANCH  17  20
HETATM   20  N   UNK N   1      37.253  13.829  11.602  0.00  0.00    -0.324 N 
HETATM   21  H   UNK N   1      37.885  14.507  12.028  0.00  0.00     0.169 HD
HETATM   22  H   UNK N   1      37.722  13.578  10.731  0.00  0.00     0.169 HD
ENDBRANCH  17  20
ENDBRANCH   1  17
TORSDOF 6
ENDMDL
MODEL 2
REMARK VINA RESULT:      -6.2      1.724      2.147
REMARK  6 active torsions:
REMARK  status: ('A' for Active; 'I' for Inactive)
REMARK    1  A    between atoms: C_1  and  S_10 
REMARK    2  A    between atoms: C_2  and  C_3 
REMARK    3  A    between atoms: C_2  and  N_18 
REMARK    4  A    between atoms: N_9  and  S_10 
REMARK    5  A    between atoms: C_13  and  S_15 
REMARK    6  A    between atoms: S_15  and  N_18 
ROOT
HETATM    1  C   UNK N   1      35.572  14.738  10.730  0.00  0.00     0.121 A 
HETATM    2  C   UNK N   1      35.495  14.198   9.436  0.00  0.00     0.035 A 
HETATM    3  C   UNK N   1      35.055  15.137   8.453  0.00  0.00     0.035 A 
HETATM    4  C   UNK N   1      34.774  16.398   8.983  0.00  0.00     0.121 A 
HETATM    5  S   UNK N   1      35.073  16.344  10.606  0.00  0.00    -0.063 SA
ENDROOT
BRANCH   4   6
HETATM    6  S   UNK N   1      34.302  17.857   8.069  0.00  0.00     0.265 S 
HETATM    7  O   UNK N   1      34.618  17.701   6.571  0.00  0.00    -0.200 OA
HETATM    8  O   UNK N   1      35.178  19.061   8.446  0.00  0.00    -0.200 OA
BRANCH   6   9
HETATM    9  N   UNK N   1      32.632  18.452   8.199  0.00  0.00    -0.310 N 
HETATM   10  H   UNK N   1      32.327  19.407   8.018  0.00  0.00     0.172 HD
BRANCH   9  11
HETATM   11  C   UNK N   1      31.772  17.349   8.606  0.00  0.00     0.178 C 
BRANCH  11  12
HETATM   12  C   UNK N   1      31.163  16.683   7.419  0.00  0.00     0.001 A 
HETATM   13  C   UNK N   1      30.048  17.131   6.720  0.00  0.00     0.017 A 
HETATM   14  C   UNK N   1      29.677  16.259   5.655  0.00  0.00     0.008 A 
HETATM   15  C   UNK N   1      30.501  15.131   5.527  0.00  0.00     0.050 A 
HETATM   16  S   UNK N   1      31.640  15.260   6.727  0.00  0.00    -0.105 SA
ENDBRANCH  11  12
ENDBRANCH   9  11
ENDBRANCH   6   9
ENDBRANCH   4   6
BRANCH   1  17
HETATM   17  S   UNK N   1      36.114  13.761  12.194  0.00  0.00     0.263 S 
HETATM   18  O   UNK N   1      35.665  14.137  13.613  0.00  0.00    -0.200 OA
HETATM   19  O   UNK N   1      34.591  13.610  12.081  0.00  0.00    -0.200 OA
BRANCH  17  20
HETATM   20  N   UNK N   1      36.518  15.472  12.381  0.00  0.00    -0.324 N 
HETATM   21  H   UNK N   1      37.178  16.247  12.441  0.00  0.00     0.169 HD
HETATM   22  H   UNK N   1      35.608  15.923  12.483  0.00  0.00     0.169 HD
ENDBRANCH  17  20
ENDBRANCH   1  17
TORSDOF 6
ENDMDL
MODEL 3
REMARK VINA RESULT:      -5.9     11.433     12.673
REMARK  6 active torsions:
REMARK  status: ('A' for Active; 'I' for Inactive)
REMARK    1  A    between atoms: C_1  and  S_10 
REMARK    2  A    between atoms: C_2  and  C_3 
REMARK    3  A    between atoms: C_2  and  N_18 
REMARK    4  A    between atoms: N_9  and  S_10 
REMARK    5  A    between atoms: C_13  and  S_15 
REMARK    6  A    between atoms: S_15  and  N_18 
ROOT
HETATM    1  C   UNK N   1      22.274  12.925  10.025  0.00  0.00     0.121 A 
HETATM    2  C   UNK N   1      20.940  13.119  10.417  0.00  0.00     0.035 A 
HETATM    3  C   UNK N   1      20.277  14.153   9.687  0.00  0.00     0.035 A 
HETATM    4  C   UNK N   1      21.098  14.773   8.742  0.00  0.00     0.121 A 
HETATM    5  S   UNK N   1      22.582  14.052   8.809  0.00  0.00    -0.063 SA
ENDROOT
BRANCH   4   6
HETATM    6  S   UNK N   1      20.613  16.028   7.570  0.00  0.00     0.265 S 
HETATM    7  O   UNK N   1      20.546  17.414   8.235  0.00  0.00    -0.200 OA
HETATM    8  O   UNK N   1      19.161  15.834   7.111  0.00  0.00    -0.200 OA
BRANCH   6   9
HETATM    9  N   UNK N   1      21.544  16.208   6.066  0.00  0.00    -0.310 N 
HETATM   10  H   UNK N   1      21.856  15.445   5.466  0.00  0.00     0.172 HD
BRANCH   9  11
HETATM   11  C   UNK N   1      21.786  17.625   5.832  0.00  0.00     0.178 C 
BRANCH  11  12
HETATM   12  C   UNK N   1      21.049  18.100   4.627  0.00  0.00     0.001 A 
HETATM   13  C   UNK N   1      21.108  19.382   4.091  0.00  0.00     0.017 A 
HETATM   14  C   UNK N   1      20.259  19.546   2.958  0.00  0.00     0.008 A 
HETATM   15  C   UNK N   1      19.537  18.394   2.613  0.00  0.00     0.050 A 
HETATM   16  S   UNK N   1      19.975  17.234   3.717  0.00  0.00    -0.105 SA
ENDBRANCH  11  12
ENDBRANCH   9  11
ENDBRANCH   6   9
ENDBRANCH   4   6
BRANCH   1  17
HETATM   17  S   UNK N   1      23.370  11.657  10.790  0.00  0.00     0.263 S 
HETATM   18  O   UNK N   1      24.271  11.999  11.985  0.00  0.00    -0.200 OA
HETATM   19  O   UNK N   1      22.333  12.062  11.845  0.00  0.00    -0.200 OA
BRANCH  17  20
HETATM   20  N   UNK N   1      24.289  13.085  10.297  0.00  0.00    -0.324 N 
HETATM   21  H   UNK N   1      24.908  13.874  10.483  0.00  0.00     0.169 HD
HETATM   22  H   UNK N   1      24.098  13.159   9.297  0.00  0.00     0.169 HD
ENDBRANCH  17  20
ENDBRANCH   1  17
TORSDOF 6
ENDMDL
MODEL 4
REMARK VINA RESULT:      -5.7      2.644      3.058
REMARK  6 active torsions:
REMARK  status: ('A' for Active; 'I' for Inactive)
REMARK    1  A    between atoms: C_1  and  S_10 
REMARK    2  A    between atoms: C_2  and  C_3 
REMARK    3  A    between atoms: C_2  and  N_18 
REMARK    4  A    between atoms: N_9  and  S_10 
REMARK    5  A    between atoms: C_13  and  S_15 
REMARK    6  A    between atoms: S_15  and  N_18 
ROOT
HETATM    1  C   UNK N   1      35.390  14.569  11.035  0.00  0.00     0.121 A 
HETATM    2  C   UNK N   1      35.717  15.807  11.610  0.00  0.00     0.035 A 
HETATM    3  C   UNK N   1      35.408  16.923  10.773  0.00  0.00     0.035 A 
HETATM    4  C   UNK N   1      34.858  16.553   9.543  0.00  0.00     0.121 A 
HETATM    5  S   UNK N   1      34.753  14.906   9.510  0.00  0.00    -0.063 SA
ENDROOT
BRANCH   4   6
HETATM    6  S   UNK N   1      34.248  17.651   8.275  0.00  0.00     0.265 S 
HETATM    7  O   UNK N   1      34.963  19.013   8.327  0.00  0.00    -0.200 OA
HETATM    8  O   UNK N   1      32.791  18.056   8.539  0.00  0.00    -0.200 OA
BRANCH   6   9
HETATM    9  N   UNK N   1      34.269  17.108   6.582  0.00  0.00    -0.310 N 
HETATM   10  H   UNK N   1      34.906  17.441   5.860  0.00  0.00     0.172 HD
BRANCH   9  11
HETATM   11  C   UNK N   1      33.225  16.108   6.399  0.00  0.00     0.178 C 
BRANCH  11  12
HETATM   12  C   UNK N   1      32.519  16.308   5.101  0.00  0.00     0.001 A 
HETATM   13  C   UNK N   1      33.085  16.826   3.941  0.00  0.00     0.017 A 
HETATM   14  C   UNK N   1      32.148  16.934   2.872  0.00  0.00     0.008 A 
HETATM   15  C   UNK N   1      30.853  16.504   3.201  0.00  0.00     0.050 A 
HETATM   16  S   UNK N   1      30.924  16.016   4.785  0.00  0.00    -0.105 SA
ENDBRANCH  11  12
ENDBRANCH   9  11
ENDBRANCH   6   9
ENDBRANCH   4   6
BRANCH   1  17
HETATM   17  S   UNK N   1      35.672  12.961  11.888  0.00  0.00     0.263 S 
HETATM   18  O   UNK N   1      36.324  12.900  13.277  0.00  0.00    -0.200 OA
HETATM   19  O   UNK N   1      34.666  13.756  12.731  0.00  0.00    -0.200 OA
BRANCH  17  20
HETATM   20  N   UNK N   1      37.173  13.885  11.748  0.00  0.00    -0.324 N 
HETATM   21  H   UNK N   1      37.900  14.496  12.119  0.00  0.00     0.169 HD
HETATM   22  H   UNK N   1      37.468  13.718  10.786  0.00  0.00     0.169 HD
ENDBRANCH  17  20
ENDBRANCH   1  17
TORSDOF 6
ENDMDL
MODEL 5
REMARK VINA RESULT:      -5.7     12.721     14.974
REMARK  6 active torsions:
REMARK  status: ('A' for Active; 'I' for Inactive)
REMARK    1  A    between atoms: C_1  and  S_10 
REMARK    2  A    between atoms: C_2  and  C_3 
REMARK    3  A    between atoms: C_2  and  N_18 
REMARK    4  A    between atoms: N_9  and  S_10 
REMARK    5  A    between atoms: C_13  and  S_15 
REMARK    6  A    between atoms: S_15  and  N_18 
ROOT
HETATM    1  C   UNK N   1      20.236  16.346   2.681  0.00  0.00     0.121 A 
HETATM    2  C   UNK N   1      21.286  17.208   3.035  0.00  0.00     0.035 A 
HETATM    3  C   UNK N   1      21.446  17.359   4.448  0.00  0.00     0.035 A 
HETATM    4  C   UNK N   1      20.512  16.630   5.188  0.00  0.00     0.121 A 
HETATM    5  S   UNK N   1      19.539  15.825   4.125  0.00  0.00    -0.063 SA
ENDROOT
BRANCH   4   6
HETATM    6  S   UNK N   1      20.448  16.477   6.965  0.00  0.00     0.265 S 
HETATM    7  O   UNK N   1      19.030  16.117   7.442  0.00  0.00    -0.200 OA
HETATM    8  O   UNK N   1      20.672  17.832   7.652  0.00  0.00    -0.200 OA
BRANCH   6   9
HETATM    9  N   UNK N   1      21.575  15.365   7.775  0.00  0.00    -0.310 N 
HETATM   10  H   UNK N   1      22.445  15.633   8.235  0.00  0.00     0.172 HD
BRANCH   9  11
HETATM   11  C   UNK N   1      21.052  14.010   7.671  0.00  0.00     0.178 C 
BRANCH  11  12
HETATM   12  C   UNK N   1      21.542  13.163   8.796  0.00  0.00     0.001 A 
HETATM   13  C   UNK N   1      21.089  13.218  10.110  0.00  0.00     0.017 A 
HETATM   14  C   UNK N   1      21.777  12.312  10.969  0.00  0.00     0.008 A 
HETATM   15  C   UNK N   1      22.767  11.555  10.325  0.00  0.00     0.050 A 
HETATM   16  S   UNK N   1      22.750  12.038   8.738  0.00  0.00    -0.105 SA
ENDBRANCH  11  12
ENDBRANCH   9  11
ENDBRANCH   6   9
ENDBRANCH   4   6
BRANCH   1  17
HETATM   17  S   UNK N   1      19.803  15.960   0.933  0.00  0.00     0.263 S 
HETATM   18  O   UNK N   1      20.232  16.883  -0.216  0.00  0.00    -0.200 OA
HETATM   19  O   UNK N   1      21.332  15.899   1.049  0.00  0.00    -0.200 OA
BRANCH  17  20
HETATM   20  N   UNK N   1      19.248  17.575   1.389  0.00  0.00    -0.324 N 
HETATM   21  H   UNK N   1      18.602  18.363   1.332  0.00  0.00     0.169 HD
HETATM   22  H   UNK N   1      19.941  17.883   2.071  0.00  0.00     0.169 HD
ENDBRANCH  17  20
ENDBRANCH   1  17
TORSDOF 6
ENDMDL
MODEL 6
REMARK VINA RESULT:      -5.7     12.814     14.913
REMARK  6 active torsions:
REMARK  status: ('A' for Active; 'I' for Inactive)
REMARK    1  A    between atoms: C_1  and  S_10 
REMARK    2  A    between atoms: C_2  and  C_3 
REMARK    3  A    between atoms: C_2  and  N_18 
REMARK    4  A    between atoms: N_9  and  S_10 
REMARK    5  A    between atoms: C_13  and  S_15 
REMARK    6  A    between atoms: S_15  and  N_18 
ROOT
HETATM    1  C   UNK N   1      20.966  18.845   3.386  0.00  0.00     0.121 A 
HETATM    2  C   UNK N   1      19.966  17.907   3.083  0.00  0.00     0.035 A 
HETATM    3  C   UNK N   1      19.759  16.943   4.118  0.00  0.00     0.035 A 
HETATM    4  C   UNK N   1      20.608  17.120   5.213  0.00  0.00     0.121 A 
HETATM    5  S   UNK N   1      21.565  18.430   4.907  0.00  0.00    -0.063 SA
ENDROOT
BRANCH   4   6
HETATM    6  S   UNK N   1      20.587  16.191   6.737  0.00  0.00     0.265 S 
HETATM    7  O   UNK N   1      19.188  15.620   7.022  0.00  0.00    -0.200 OA
HETATM    8  O   UNK N   1      20.802  17.105   7.952  0.00  0.00    -0.200 OA
BRANCH   6   9
HETATM    9  N   UNK N   1      21.754  14.867   6.954  0.00  0.00    -0.310 N 
HETATM   10  H   UNK N   1      22.765  14.946   6.859  0.00  0.00     0.172 HD
BRANCH   9  11
HETATM   11  C   UNK N   1      21.024  13.651   7.289  0.00  0.00     0.178 C 
BRANCH  11  12
HETATM   12  C   UNK N   1      21.560  13.036   8.537  0.00  0.00     0.001 A 
HETATM   13  C   UNK N   1      22.596  12.111   8.606  0.00  0.00     0.017 A 
HETATM   14  C   UNK N   1      22.857  11.674   9.938  0.00  0.00     0.008 A 
HETATM   15  C   UNK N   1      22.023  12.256  10.904  0.00  0.00     0.050 A 
HETATM   16  S   UNK N   1      21.007  13.273  10.076  0.00  0.00    -0.105 SA
ENDBRANCH  11  12
ENDBRANCH   9  11
ENDBRANCH   6   9
ENDBRANCH   4   6
BRANCH   1  17
HETATM   17  S   UNK N   1      21.443  20.206   2.240  0.00  0.00     0.263 S 
HETATM   18  O   UNK N   1      20.383  21.026   1.492  0.00  0.00    -0.200 OA
HETATM   19  O   UNK N   1      20.670  20.838   3.405  0.00  0.00    -0.200 OA
BRANCH  17  20
HETATM   20  N   UNK N   1      20.411  19.020   1.431  0.00  0.00    -0.324 N 
HETATM   21  H   UNK N   1      19.808  18.712   0.669  0.00  0.00     0.169 HD
HETATM   22  H   UNK N   1      20.428  18.219   2.063  0.00  0.00     0.169 HD
ENDBRANCH  17  20
ENDBRANCH   1  17
TORSDOF 6
ENDMDL
MODEL 7
REMARK VINA RESULT:      -5.4     18.350     20.034
REMARK  6 active torsions:
REMARK  status: ('A' for Active; 'I' for Inactive)
REMARK    1  A    between atoms: C_1  and  S_10 
REMARK    2  A    between atoms: C_2  and  C_3 
REMARK    3  A    between atoms: C_2  and  N_18 
REMARK    4  A    between atoms: N_9  and  S_10 
REMARK    5  A    between atoms: C_13  and  S_15 
REMARK    6  A    between atoms: S_15  and  N_18 
ROOT
HETATM    1  C   UNK N   1      26.209  25.962  -5.003  0.00  0.00     0.121 A 
HETATM    2  C   UNK N   1      26.131  24.624  -4.585  0.00  0.00     0.035 A 
HETATM    3  C   UNK N   1      25.868  23.710  -5.652  0.00  0.00     0.035 A 
HETATM    4  C   UNK N   1      25.723  24.337  -6.891  0.00  0.00     0.121 A 
HETATM    5  S   UNK N   1      25.928  25.959  -6.665  0.00  0.00    -0.063 SA
ENDROOT
BRANCH   4   6
HETATM    6  S   UNK N   1      25.492  23.537  -8.470  0.00  0.00     0.265 S 
HETATM    7  O   UNK N   1      24.787  24.470  -9.469  0.00  0.00    -0.200 OA
HETATM    8  O   UNK N   1      24.490  22.378  -8.368  0.00  0.00    -0.200 OA
BRANCH   6   9
HETATM    9  N   UNK N   1      26.904  22.844  -9.299  0.00  0.00    -0.310 N 
HETATM   10  H   UNK N   1      26.878  22.295 -10.157  0.00  0.00     0.172 HD
BRANCH   9  11
HETATM   11  C   UNK N   1      28.104  23.190  -8.549  0.00  0.00     0.178 C 
BRANCH  11  12
HETATM   12  C   UNK N   1      28.735  21.974  -7.963  0.00  0.00     0.001 A 
HETATM   13  C   UNK N   1      29.621  21.955  -6.891  0.00  0.00     0.017 A 
HETATM   14  C   UNK N   1      30.088  20.644  -6.584  0.00  0.00     0.008 A 
HETATM   15  C   UNK N   1      29.570  19.643  -7.419  0.00  0.00     0.050 A 
HETATM   16  S   UNK N   1      28.568  20.417  -8.492  0.00  0.00    -0.105 SA
ENDBRANCH  11  12
ENDBRANCH   9  11
ENDBRANCH   6   9
ENDBRANCH   4   6
BRANCH   1  17
HETATM   17  S   UNK N   1      26.543  27.355  -3.845  0.00  0.00     0.263 S 
HETATM   18  O   UNK N   1      25.478  27.835  -2.848  0.00  0.00    -0.200 OA
HETATM   19  O   UNK N   1      26.332  26.095  -2.995  0.00  0.00    -0.200 OA
BRANCH  17  20
HETATM   20  N   UNK N   1      25.092  27.657  -4.810  0.00  0.00    -0.324 N 
HETATM   21  H   UNK N   1      24.601  27.784  -5.695  0.00  0.00     0.169 HD
HETATM   22  H   UNK N   1      24.356  27.759  -4.110  0.00  0.00     0.169 HD
ENDBRANCH  17  20
ENDBRANCH   1  17
TORSDOF 6
ENDMDL
MODEL 8
REMARK VINA RESULT:      -5.3      1.669      2.011
REMARK  6 active torsions:
REMARK  status: ('A' for Active; 'I' for Inactive)
REMARK    1  A    between atoms: C_1  and  S_10 
REMARK    2  A    between atoms: C_2  and  C_3 
REMARK    3  A    between atoms: C_2  and  N_18 
REMARK    4  A    between atoms: N_9  and  S_10 
REMARK    5  A    between atoms: C_13  and  S_15 
REMARK    6  A    between atoms: S_15  and  N_18 
ROOT
HETATM    1  C   UNK N   1      35.475  13.010  12.066  0.00  0.00     0.121 A 
HETATM    2  C   UNK N   1      35.197  12.327  10.871  0.00  0.00     0.035 A 
HETATM    3  C   UNK N   1      34.650  13.164   9.850  0.00  0.00     0.035 A 
HETATM    4  C   UNK N   1      34.488  14.491  10.256  0.00  0.00     0.121 A 
HETATM    5  S   UNK N   1      35.014  14.613  11.816  0.00  0.00    -0.063 SA
ENDROOT
BRANCH   4   6
HETATM    6  S   UNK N   1      33.936  15.854   9.244  0.00  0.00     0.265 S 
HETATM    7  O   UNK N   1      34.509  15.757   7.820  0.00  0.00    -0.200 OA
HETATM    8  O   UNK N   1      34.530  17.186   9.727  0.00  0.00    -0.200 OA
BRANCH   6   9
HETATM    9  N   UNK N   1      32.192  16.164   9.093  0.00  0.00    -0.310 N 
HETATM   10  H   UNK N   1      31.449  15.558   9.441  0.00  0.00     0.172 HD
BRANCH   9  11
HETATM   11  C   UNK N   1      31.999  17.424   8.389  0.00  0.00     0.178 C 
BRANCH  11  12
HETATM   12  C   UNK N   1      30.553  17.777   8.315  0.00  0.00     0.001 A 
HETATM   13  C   UNK N   1      29.722  17.571   7.218  0.00  0.00     0.017 A 
HETATM   14  C   UNK N   1      28.397  18.050   7.433  0.00  0.00     0.008 A 
HETATM   15  C   UNK N   1      28.196  18.631   8.694  0.00  0.00     0.050 A 
HETATM   16  S   UNK N   1      29.655  18.530   9.479  0.00  0.00    -0.105 SA
ENDBRANCH  11  12
ENDBRANCH   9  11
ENDBRANCH   6   9
ENDBRANCH   4   6
BRANCH   1  17
HETATM   17  S   UNK N   1      36.190  12.185  13.549  0.00  0.00     0.263 S 
HETATM   18  O   UNK N   1      36.824  12.999  14.685  0.00  0.00    -0.200 OA
HETATM   19  O   UNK N   1      34.997  13.025  14.023  0.00  0.00    -0.200 OA
BRANCH  17  20
HETATM   20  N   UNK N   1      37.374  13.242  12.771  0.00  0.00    -0.324 N 
HETATM   21  H   UNK N   1      37.697  14.148  12.432  0.00  0.00     0.169 HD
HETATM   22  H   UNK N   1      38.141  12.611  12.536  0.00  0.00     0.169 HD
ENDBRANCH  17  20
ENDBRANCH   1  17
TORSDOF 6
ENDMDL
MODEL 9
REMARK VINA RESULT:      -5.2     15.079     17.660
REMARK  6 active torsions:
REMARK  status: ('A' for Active; 'I' for Inactive)
REMARK    1  A    between atoms: C_1  and  S_10 
REMARK    2  A    between atoms: C_2  and  C_3 
REMARK    3  A    between atoms: C_2  and  N_18 
REMARK    4  A    between atoms: N_9  and  S_10 
REMARK    5  A    between atoms: C_13  and  S_15 
REMARK    6  A    between atoms: S_15  and  N_18 
ROOT
HETATM    1  C   UNK N   1      29.234  23.102  -3.321  0.00  0.00     0.121 A 
HETATM    2  C   UNK N   1      28.158  23.236  -2.429  0.00  0.00     0.035 A 
HETATM    3  C   UNK N   1      27.125  24.100  -2.909  0.00  0.00     0.035 A 
HETATM    4  C   UNK N   1      27.405  24.648  -4.163  0.00  0.00     0.121 A 
HETATM    5  S   UNK N   1      28.872  24.071  -4.653  0.00  0.00    -0.063 SA
ENDROOT
BRANCH   4   6
HETATM    6  S   UNK N   1      26.326  25.683  -5.138  0.00  0.00     0.265 S 
HETATM    7  O   UNK N   1      25.203  24.858  -5.790  0.00  0.00    -0.200 OA
HETATM    8  O   UNK N   1      27.052  26.247  -6.368  0.00  0.00    -0.200 OA
BRANCH   6   9
HETATM    9  N   UNK N   1      25.567  27.097  -4.372  0.00  0.00    -0.310 N 
HETATM   10  H   UNK N   1      24.724  27.568  -4.700  0.00  0.00     0.172 HD
BRANCH   9  11
HETATM   11  C   UNK N   1      26.347  27.470  -3.200  0.00  0.00     0.178 C 
BRANCH  11  12
HETATM   12  C   UNK N   1      26.897  28.848  -3.343  0.00  0.00     0.001 A 
HETATM   13  C   UNK N   1      26.733  29.677  -4.448  0.00  0.00     0.017 A 
HETATM   14  C   UNK N   1      27.412  30.923  -4.308  0.00  0.00     0.008 A 
HETATM   15  C   UNK N   1      28.106  31.062  -3.097  0.00  0.00     0.050 A 
HETATM   16  S   UNK N   1      27.855  29.651  -2.262  0.00  0.00    -0.105 SA
ENDBRANCH  11  12
ENDBRANCH   9  11
ENDBRANCH   6   9
ENDBRANCH   4   6
BRANCH   1  17
HETATM   17  S   UNK N   1      30.703  22.049  -2.968  0.00  0.00     0.263 S 
HETATM   18  O   UNK N   1      32.119  22.641  -2.939  0.00  0.00    -0.200 OA
HETATM   19  O   UNK N   1      30.584  23.067  -1.825  0.00  0.00    -0.200 OA
BRANCH  17  20
HETATM   20  N   UNK N   1      30.887  22.912  -4.500  0.00  0.00    -0.324 N 
HETATM   21  H   UNK N   1      31.119  23.735  -5.055  0.00  0.00     0.169 HD
HETATM   22  H   UNK N   1      30.616  22.220  -5.199  0.00  0.00     0.169 HD
ENDBRANCH  17  20
ENDBRANCH   1  17
TORSDOF 6
ENDMDL
