REMARK  6 active torsions:
REMARK  status: ('A' for Active; 'I' for Inactive)
REMARK    1  A    between atoms: C_1  and  S_10 
REMARK    2  A    between atoms: C_2  and  C_3 
REMARK    3  A    between atoms: C_2  and  N_18 
REMARK    4  A    between atoms: N_9  and  S_10 
REMARK    5  A    between atoms: C_13  and  S_15 
REMARK    6  A    between atoms: S_15  and  N_18 
ROOT
HETATM    1  C   UNK N   1      -0.715   4.070   0.509  0.00  0.00     0.121 A 
HETATM    2  C   UNK N   1       0.660   3.894   0.286  0.00  0.00     0.035 A 
HETATM    3  C   UNK N   1       1.027   2.535   0.039  0.00  0.00     0.035 A 
HETATM    4  C   UNK N   1      -0.057   1.655   0.087  0.00  0.00     0.121 A 
HETATM    5  S   UNK N   1      -1.413   2.538   0.412  0.00  0.00    -0.063 SA
ENDROOT
BRANCH   4   6
HETATM    6  S   UNK N   1      -0.025  -0.094  -0.268  0.00  0.00     0.265 S 
HETATM    7  O   UNK N   1       0.228  -0.354  -1.763  0.00  0.00    -0.200 OA
HETATM    8  O   UNK N   1      -1.409  -0.730  -0.073  0.00  0.00    -0.200 OA
BRANCH   6   9
HETATM    9  N   UNK N   1       1.087  -1.138   0.646  0.00  0.00    -0.310 N 
HETATM   10  H   UNK N   1       1.274  -1.074   1.646  0.00  0.00     0.172 HD
BRANCH   9  11
HETATM   11  C   UNK N   1       1.686  -2.099  -0.270  0.00  0.00     0.178 C 
BRANCH  11  12
HETATM   12  C   UNK N   1       1.229  -3.484   0.038  0.00  0.00     0.001 A 
HETATM   13  C   UNK N   1       2.055  -4.573   0.295  0.00  0.00     0.017 A 
HETATM   14  C   UNK N   1       1.326  -5.778   0.516  0.00  0.00     0.008 A 
HETATM   15  C   UNK N   1      -0.066  -5.628   0.428  0.00  0.00     0.050 A 
HETATM   16  S   UNK N   1      -0.331  -4.027   0.081  0.00  0.00    -0.105 SA
ENDBRANCH  11  12
ENDBRANCH   9  11
ENDBRANCH   6   9
ENDBRANCH   4   6
BRANCH   1  17
HETATM   17  S   UNK N   1      -1.473   5.714   0.848  0.00  0.00     0.263 S 
HETATM   18  O   UNK N   1      -2.995   5.911   0.817  0.00  0.00    -0.200 OA
HETATM   19  O   UNK N   1      -1.925   4.763   1.964  0.00  0.00    -0.200 OA
BRANCH  17  20
HETATM   20  N   UNK N   1      -2.002   5.074  -0.713  0.00  0.00    -0.324 N 
HETATM   21  H   UNK N   1      -2.475   5.154  -1.613  0.00  0.00     0.169 HD
HETATM   22  H   UNK N   1      -1.646   4.118  -0.713  0.00  0.00     0.169 HD
ENDBRANCH  17  20
ENDBRANCH   1  17
TORSDOF 6
