MODEL 1
REMARK VINA RESULT:      -6.7      0.000      0.000
REMARK  4 active torsions:
REMARK  status: ('A' for Active; 'I' for Inactive)
REMARK    1  A    between atoms: C_5  and  S_8 
REMARK    2  A    between atoms: S_8  and  N_11 
REMARK    3  A    between atoms: C_15  and  C_16 
REMARK    4  A    between atoms: C_16  and  O_18 
ROOT
HETATM    1  S   UNK N   1      35.848  13.151  11.738  0.00  0.00     0.244 S 
HETATM    2  O   UNK N   1      34.776  14.130  12.248  0.00  0.00    -0.206 OA
HETATM    3  O   UNK N   1      34.912  11.943  11.590  0.00  0.00    -0.206 OA
ENDROOT
BRANCH   1   4
HETATM    4  C   UNK N   1      35.690  13.036  13.563  0.00  0.00     0.074 A 
HETATM    5  C   UNK N   1      34.681  12.239  14.121  0.00  0.00     0.025 A 
HETATM    6  C   UNK N   1      34.493  12.210  15.510  0.00  0.00     0.008 A 
HETATM    7  C   UNK N   1      35.305  12.983  16.351  0.00  0.00    -0.062 A 
HETATM    8  C   UNK N   1      36.303  13.788  15.810  0.00  0.00     0.008 A 
HETATM    9  C   UNK N   1      35.100  12.960  17.823  0.00  0.00     0.048 C 
HETATM   10  C   UNK N   1      36.489  13.828  14.432  0.00  0.00     0.025 A 
ENDBRANCH   1   4
BRANCH   1  11
HETATM   11  N   UNK N   1      35.178  14.009  10.297  0.00  0.00    -0.192 NA
HETATM   12  C   UNK N   1      34.080  13.215   9.754  0.00  0.00     0.109 C 
HETATM   13  C   UNK N   1      33.069  14.175   9.141  0.00  0.00     0.018 C 
HETATM   14  C   UNK N   1      33.676  15.547   9.310  0.00  0.00     0.033 C 
HETATM   15  C   UNK N   1      34.619  15.366  10.477  0.00  0.00     0.172 C 
BRANCH  15  16
HETATM   16  C   UNK N   1      35.692  16.439  10.516  0.00  0.00     0.159 C 
HETATM   17  O   UNK N   1      35.433  17.589  10.191  0.00  0.00    -0.649 OA
BRANCH  16  18
HETATM   18  O   UNK N   1      36.938  16.144  10.932  0.00  0.00    -0.775 OA
HETATM   19  H   UNK N   1      37.275  15.271  10.899  0.00  0.00     0.167 HD
ENDBRANCH  16  18
ENDBRANCH  15  16
ENDBRANCH   1  11
TORSDOF 4
ENDMDL
MODEL 2
REMARK VINA RESULT:      -6.6      2.270      3.134
REMARK  4 active torsions:
REMARK  status: ('A' for Active; 'I' for Inactive)
REMARK    1  A    between atoms: C_5  and  S_8 
REMARK    2  A    between atoms: S_8  and  N_11 
REMARK    3  A    between atoms: C_15  and  C_16 
REMARK    4  A    between atoms: C_16  and  O_18 
ROOT
HETATM    1  S   UNK N   1      35.915  13.615  14.292  0.00  0.00     0.244 S 
HETATM    2  O   UNK N   1      36.914  12.454  14.447  0.00  0.00    -0.206 OA
HETATM    3  O   UNK N   1      36.835  14.703  14.864  0.00  0.00    -0.206 OA
ENDROOT
BRANCH   1   4
HETATM    4  C   UNK N   1      35.778  12.867  15.963  0.00  0.00     0.074 A 
HETATM    5  C   UNK N   1      36.010  11.494  16.128  0.00  0.00     0.025 A 
HETATM    6  C   UNK N   1      35.825  10.893  17.381  0.00  0.00     0.008 A 
HETATM    7  C   UNK N   1      35.399  11.656  18.476  0.00  0.00    -0.062 A 
HETATM    8  C   UNK N   1      35.153  13.018  18.325  0.00  0.00     0.008 A 
HETATM    9  C   UNK N   1      35.192  11.017  19.802  0.00  0.00     0.048 C 
HETATM   10  C   UNK N   1      35.326  13.618  17.082  0.00  0.00     0.025 A 
ENDBRANCH   1   4
BRANCH   1  11
HETATM   11  N   UNK N   1      36.824  13.482  12.738  0.00  0.00    -0.192 NA
HETATM   12  C   UNK N   1      37.284  12.104  12.587  0.00  0.00     0.109 C 
HETATM   13  C   UNK N   1      37.315  11.785  11.097  0.00  0.00     0.018 C 
HETATM   14  C   UNK N   1      36.907  13.066  10.411  0.00  0.00     0.033 C 
HETATM   15  C   UNK N   1      36.120  13.793  11.476  0.00  0.00     0.172 C 
BRANCH  15  16
HETATM   16  C   UNK N   1      36.038  15.285  11.207  0.00  0.00     0.159 C 
HETATM   17  O   UNK N   1      34.975  15.879  11.322  0.00  0.00    -0.649 OA
BRANCH  16  18
HETATM   18  O   UNK N   1      37.138  15.979  10.862  0.00  0.00    -0.775 OA
HETATM   19  H   UNK N   1      37.991  15.592  10.880  0.00  0.00     0.167 HD
ENDBRANCH  16  18
ENDBRANCH  15  16
ENDBRANCH   1  11
TORSDOF 4
ENDMDL
MODEL 3
REMARK VINA RESULT:      -6.6      2.236      3.062
REMARK  4 active torsions:
REMARK  status: ('A' for Active; 'I' for Inactive)
REMARK    1  A    between atoms: C_5  and  S_8 
REMARK    2  A    between atoms: S_8  and  N_11 
REMARK    3  A    between atoms: C_15  and  C_16 
REMARK    4  A    between atoms: C_16  and  O_18 
ROOT
HETATM    1  S   UNK N   1      35.119  15.580  10.135  0.00  0.00     0.244 S 
HETATM    2  O   UNK N   1      33.790  14.945  10.581  0.00  0.00    -0.206 OA
HETATM    3  O   UNK N   1      35.618  14.370   9.331  0.00  0.00    -0.206 OA
ENDROOT
BRANCH   1   4
HETATM    4  C   UNK N   1      35.350  14.629  11.688  0.00  0.00     0.074 A 
HETATM    5  C   UNK N   1      36.122  15.173  12.723  0.00  0.00     0.025 A 
HETATM    6  C   UNK N   1      36.380  14.423  13.880  0.00  0.00     0.008 A 
HETATM    7  C   UNK N   1      35.876  13.123  14.007  0.00  0.00    -0.062 A 
HETATM    8  C   UNK N   1      35.117  12.565  12.982  0.00  0.00     0.008 A 
HETATM    9  C   UNK N   1      36.157  12.324  15.228  0.00  0.00     0.048 C 
HETATM   10  C   UNK N   1      34.865  13.301  11.829  0.00  0.00     0.025 A 
ENDBRANCH   1   4
BRANCH   1  11
HETATM   11  N   UNK N   1      33.871  16.039   8.914  0.00  0.00    -0.192 NA
HETATM   12  C   UNK N   1      32.629  15.341   9.236  0.00  0.00     0.109 C 
HETATM   13  C   UNK N   1      31.470  16.229   8.801  0.00  0.00     0.018 C 
HETATM   14  C   UNK N   1      32.115  17.436   8.164  0.00  0.00     0.033 C 
HETATM   15  C   UNK N   1      33.491  17.462   8.789  0.00  0.00     0.172 C 
BRANCH  15  16
HETATM   16  C   UNK N   1      34.481  18.259   7.958  0.00  0.00     0.159 C 
HETATM   17  O   UNK N   1      34.556  18.089   6.749  0.00  0.00    -0.649 OA
BRANCH  16  18
HETATM   18  O   UNK N   1      35.273  19.181   8.536  0.00  0.00    -0.775 OA
HETATM   19  H   UNK N   1      35.101  20.098   8.457  0.00  0.00     0.167 HD
ENDBRANCH  16  18
ENDBRANCH  15  16
ENDBRANCH   1  11
TORSDOF 4
ENDMDL
MODEL 4
REMARK VINA RESULT:      -6.5      1.364      1.685
REMARK  4 active torsions:
REMARK  status: ('A' for Active; 'I' for Inactive)
REMARK    1  A    between atoms: C_5  and  S_8 
REMARK    2  A    between atoms: S_8  and  N_11 
REMARK    3  A    between atoms: C_15  and  C_16 
REMARK    4  A    between atoms: C_16  and  O_18 
ROOT
HETATM    1  S   UNK N   1      35.258  13.686  12.911  0.00  0.00     0.244 S 
HETATM    2  O   UNK N   1      35.234  12.269  12.310  0.00  0.00    -0.206 OA
HETATM    3  O   UNK N   1      36.780  13.760  13.099  0.00  0.00    -0.206 OA
ENDROOT
BRANCH   1   4
HETATM    4  C   UNK N   1      35.165  12.424  14.242  0.00  0.00     0.074 A 
HETATM    5  C   UNK N   1      34.270  11.353  14.118  0.00  0.00     0.025 A 
HETATM    6  C   UNK N   1      34.126  10.430  15.164  0.00  0.00     0.008 A 
HETATM    7  C   UNK N   1      34.867  10.576  16.343  0.00  0.00    -0.062 A 
HETATM    8  C   UNK N   1      35.752  11.641  16.485  0.00  0.00     0.008 A 
HETATM    9  C   UNK N   1      34.707   9.604  17.456  0.00  0.00     0.048 C 
HETATM   10  C   UNK N   1      35.893  12.565  15.454  0.00  0.00     0.025 A 
ENDBRANCH   1   4
BRANCH   1  11
HETATM   11  N   UNK N   1      35.342  13.865  11.116  0.00  0.00    -0.192 NA
HETATM   12  C   UNK N   1      34.568  12.787  10.507  0.00  0.00     0.109 C 
HETATM   13  C   UNK N   1      33.982  13.315   9.203  0.00  0.00     0.018 C 
HETATM   14  C   UNK N   1      34.510  14.724   9.075  0.00  0.00     0.033 C 
HETATM   15  C   UNK N   1      34.823  15.106  10.503  0.00  0.00     0.172 C 
BRANCH  15  16
HETATM   16  C   UNK N   1      35.813  16.254  10.584  0.00  0.00     0.159 C 
HETATM   17  O   UNK N   1      35.449  17.404  10.379  0.00  0.00    -0.649 OA
BRANCH  16  18
HETATM   18  O   UNK N   1      37.100  16.026  10.903  0.00  0.00    -0.775 OA
HETATM   19  H   UNK N   1      37.472  16.339  11.704  0.00  0.00     0.167 HD
ENDBRANCH  16  18
ENDBRANCH  15  16
ENDBRANCH   1  11
TORSDOF 4
ENDMDL
MODEL 5
REMARK VINA RESULT:      -6.2      8.039     11.590
REMARK  4 active torsions:
REMARK  status: ('A' for Active; 'I' for Inactive)
REMARK    1  A    between atoms: C_5  and  S_8 
REMARK    2  A    between atoms: S_8  and  N_11 
REMARK    3  A    between atoms: C_15  and  C_16 
REMARK    4  A    between atoms: C_16  and  O_18 
ROOT
HETATM    1  S   UNK N   1      28.122  16.953   6.267  0.00  0.00     0.244 S 
HETATM    2  O   UNK N   1      28.674  18.385   6.373  0.00  0.00    -0.206 OA
HETATM    3  O   UNK N   1      28.966  16.539   5.053  0.00  0.00    -0.206 OA
ENDROOT
BRANCH   1   4
HETATM    4  C   UNK N   1      27.160  18.093   5.197  0.00  0.00     0.074 A 
HETATM    5  C   UNK N   1      25.839  17.773   4.856  0.00  0.00     0.025 A 
HETATM    6  C   UNK N   1      25.121  18.589   3.970  0.00  0.00     0.008 A 
HETATM    7  C   UNK N   1      25.721  19.725   3.412  0.00  0.00    -0.062 A 
HETATM    8  C   UNK N   1      27.036  20.049   3.732  0.00  0.00     0.008 A 
HETATM    9  C   UNK N   1      24.964  20.585   2.465  0.00  0.00     0.048 C 
HETATM   10  C   UNK N   1      27.756  19.239   4.603  0.00  0.00     0.025 A 
ENDBRANCH   1   4
BRANCH   1  11
HETATM   11  N   UNK N   1      29.515  16.904   7.414  0.00  0.00    -0.192 NA
HETATM   12  C   UNK N   1      30.731  16.630   6.653  0.00  0.00     0.109 C 
HETATM   13  C   UNK N   1      31.888  17.329   7.357  0.00  0.00     0.018 C 
HETATM   14  C   UNK N   1      31.277  17.963   8.584  0.00  0.00     0.033 C 
HETATM   15  C   UNK N   1      29.822  18.114   8.207  0.00  0.00     0.172 C 
BRANCH  15  16
HETATM   16  C   UNK N   1      28.928  18.254   9.426  0.00  0.00     0.159 C 
HETATM   17  O   UNK N   1      29.413  18.375  10.542  0.00  0.00    -0.649 OA
BRANCH  16  18
HETATM   18  O   UNK N   1      27.589  18.269   9.294  0.00  0.00    -0.775 OA
HETATM   19  H   UNK N   1      27.040  18.747   9.883  0.00  0.00     0.167 HD
ENDBRANCH  16  18
ENDBRANCH  15  16
ENDBRANCH   1  11
TORSDOF 4
ENDMDL
MODEL 6
REMARK VINA RESULT:      -5.9     22.767     24.323
REMARK  4 active torsions:
REMARK  status: ('A' for Active; 'I' for Inactive)
REMARK    1  A    between atoms: C_5  and  S_8 
REMARK    2  A    between atoms: S_8  and  N_11 
REMARK    3  A    between atoms: C_15  and  C_16 
REMARK    4  A    between atoms: C_16  and  O_18 
ROOT
HETATM    1  S   UNK N   1      25.990  25.410  -6.615  0.00  0.00     0.244 S 
HETATM    2  O   UNK N   1      27.483  25.783  -6.620  0.00  0.00    -0.206 OA
HETATM    3  O   UNK N   1      25.644  26.092  -7.946  0.00  0.00    -0.206 OA
ENDROOT
BRANCH   1   4
HETATM    4  C   UNK N   1      26.244  27.059  -5.848  0.00  0.00     0.074 A 
HETATM    5  C   UNK N   1      27.213  27.924  -6.374  0.00  0.00     0.025 A 
HETATM    6  C   UNK N   1      27.478  29.150  -5.747  0.00  0.00     0.008 A 
HETATM    7  C   UNK N   1      26.784  29.516  -4.587  0.00  0.00    -0.062 A 
HETATM    8  C   UNK N   1      25.827  28.662  -4.047  0.00  0.00     0.008 A 
HETATM    9  C   UNK N   1      27.072  30.811  -3.916  0.00  0.00     0.048 C 
HETATM   10  C   UNK N   1      25.566  27.441  -4.659  0.00  0.00     0.025 A 
ENDBRANCH   1   4
BRANCH   1  11
HETATM   11  N   UNK N   1      26.879  24.046  -7.396  0.00  0.00    -0.192 NA
HETATM   12  C   UNK N   1      28.161  23.880  -6.718  0.00  0.00     0.109 C 
HETATM   13  C   UNK N   1      28.529  22.403  -6.774  0.00  0.00     0.018 C 
HETATM   14  C   UNK N   1      27.423  21.751  -7.568  0.00  0.00     0.033 C 
HETATM   15  C   UNK N   1      26.263  22.702  -7.389  0.00  0.00     0.172 C 
BRANCH  15  16
HETATM   16  C   UNK N   1      25.215  22.536  -8.475  0.00  0.00     0.159 C 
HETATM   17  O   UNK N   1      25.490  22.765  -9.645  0.00  0.00    -0.649 OA
BRANCH  16  18
HETATM   18  O   UNK N   1      23.975  22.112  -8.169  0.00  0.00    -0.775 OA
HETATM   19  H   UNK N   1      23.817  21.254  -7.828  0.00  0.00     0.167 HD
ENDBRANCH  16  18
ENDBRANCH  15  16
ENDBRANCH   1  11
TORSDOF 4
ENDMDL
MODEL 7
REMARK VINA RESULT:      -5.9     19.232     21.405
REMARK  4 active torsions:
REMARK  status: ('A' for Active; 'I' for Inactive)
REMARK    1  A    between atoms: C_5  and  S_8 
REMARK    2  A    between atoms: S_8  and  N_11 
REMARK    3  A    between atoms: C_15  and  C_16 
REMARK    4  A    between atoms: C_16  and  O_18 
ROOT
HETATM    1  S   UNK N   1      28.096  24.487  -4.124  0.00  0.00     0.244 S 
HETATM    2  O   UNK N   1      28.512  24.275  -5.590  0.00  0.00    -0.206 OA
HETATM    3  O   UNK N   1      29.295  25.367  -3.738  0.00  0.00    -0.206 OA
ENDROOT
BRANCH   1   4
HETATM    4  C   UNK N   1      29.219  23.041  -4.271  0.00  0.00     0.074 A 
HETATM    5  C   UNK N   1      29.998  22.656  -3.172  0.00  0.00     0.025 A 
HETATM    6  C   UNK N   1      30.923  21.609  -3.296  0.00  0.00     0.008 A 
HETATM    7  C   UNK N   1      31.082  20.946  -4.519  0.00  0.00    -0.062 A 
HETATM    8  C   UNK N   1      30.323  21.326  -5.623  0.00  0.00     0.008 A 
HETATM    9  C   UNK N   1      32.069  19.844  -4.653  0.00  0.00     0.048 C 
HETATM   10  C   UNK N   1      29.410  22.369  -5.509  0.00  0.00     0.025 A 
ENDBRANCH   1   4
BRANCH   1  11
HETATM   11  N   UNK N   1      27.297  25.780  -5.098  0.00  0.00    -0.192 NA
HETATM   12  C   UNK N   1      26.917  25.217  -6.391  0.00  0.00     0.109 C 
HETATM   13  C   UNK N   1      25.654  25.931  -6.856  0.00  0.00     0.018 C 
HETATM   14  C   UNK N   1      25.371  26.964  -5.792  0.00  0.00     0.033 C 
HETATM   15  C   UNK N   1      26.064  26.403  -4.572  0.00  0.00     0.172 C 
BRANCH  15  16
HETATM   16  C   UNK N   1      26.349  27.474  -3.534  0.00  0.00     0.159 C 
HETATM   17  O   UNK N   1      25.445  27.928  -2.846  0.00  0.00    -0.649 OA
BRANCH  16  18
HETATM   18  O   UNK N   1      27.603  27.922  -3.341  0.00  0.00    -0.775 OA
HETATM   19  H   UNK N   1      27.808  28.836  -3.356  0.00  0.00     0.167 HD
ENDBRANCH  16  18
ENDBRANCH  15  16
ENDBRANCH   1  11
TORSDOF 4
ENDMDL
MODEL 8
REMARK VINA RESULT:      -5.9      2.569      3.473
REMARK  4 active torsions:
REMARK  status: ('A' for Active; 'I' for Inactive)
REMARK    1  A    between atoms: C_5  and  S_8 
REMARK    2  A    between atoms: S_8  and  N_11 
REMARK    3  A    between atoms: C_15  and  C_16 
REMARK    4  A    between atoms: C_16  and  O_18 
ROOT
HETATM    1  S   UNK N   1      36.312  13.217  14.139  0.00  0.00     0.244 S 
HETATM    2  O   UNK N   1      34.785  13.169  14.326  0.00  0.00    -0.206 OA
HETATM    3  O   UNK N   1      36.464  11.771  13.645  0.00  0.00    -0.206 OA
ENDROOT
BRANCH   1   4
HETATM    4  C   UNK N   1      35.888  12.590  15.812  0.00  0.00     0.074 A 
HETATM    5  C   UNK N   1      35.372  13.472  16.771  0.00  0.00     0.025 A 
HETATM    6  C   UNK N   1      35.125  13.027  18.078  0.00  0.00     0.008 A 
HETATM    7  C   UNK N   1      35.401  11.702  18.438  0.00  0.00    -0.062 A 
HETATM    8  C   UNK N   1      35.925  10.818  17.499  0.00  0.00     0.008 A 
HETATM    9  C   UNK N   1      35.149  11.232  19.825  0.00  0.00     0.048 C 
HETATM   10  C   UNK N   1      36.180  11.255  16.203  0.00  0.00     0.025 A 
ENDBRANCH   1   4
BRANCH   1  11
HETATM   11  N   UNK N   1      35.567  13.800  12.602  0.00  0.00    -0.192 NA
HETATM   12  C   UNK N   1      35.933  15.201  12.412  0.00  0.00     0.109 C 
HETATM   13  C   UNK N   1      36.027  15.459  10.913  0.00  0.00     0.018 C 
HETATM   14  C   UNK N   1      35.638  14.152  10.264  0.00  0.00     0.033 C 
HETATM   15  C   UNK N   1      35.938  13.131  11.336  0.00  0.00     0.172 C 
BRANCH  15  16
HETATM   16  C   UNK N   1      35.178  11.835  11.118  0.00  0.00     0.159 C 
HETATM   17  O   UNK N   1      35.538  11.040  10.261  0.00  0.00    -0.649 OA
BRANCH  16  18
HETATM   18  O   UNK N   1      34.112  11.531  11.881  0.00  0.00    -0.775 OA
HETATM   19  H   UNK N   1      33.766  12.134  12.509  0.00  0.00     0.167 HD
ENDBRANCH  16  18
ENDBRANCH  15  16
ENDBRANCH   1  11
TORSDOF 4
ENDMDL
MODEL 9
REMARK VINA RESULT:      -5.8      7.605     11.215
REMARK  4 active torsions:
REMARK  status: ('A' for Active; 'I' for Inactive)
REMARK    1  A    between atoms: C_5  and  S_8 
REMARK    2  A    between atoms: S_8  and  N_11 
REMARK    3  A    between atoms: C_15  and  C_16 
REMARK    4  A    between atoms: C_16  and  O_18 
ROOT
HETATM    1  S   UNK N   1      29.240  17.624   6.117  0.00  0.00     0.244 S 
HETATM    2  O   UNK N   1      29.672  17.816   4.653  0.00  0.00    -0.206 OA
HETATM    3  O   UNK N   1      28.514  16.288   5.901  0.00  0.00    -0.206 OA
ENDROOT
BRANCH   1   4
HETATM    4  C   UNK N   1      27.924  18.480   5.165  0.00  0.00     0.074 A 
HETATM    5  C   UNK N   1      27.025  17.727   4.397  0.00  0.00     0.025 A 
HETATM    6  C   UNK N   1      26.070  18.371   3.597  0.00  0.00     0.008 A 
HETATM    7  C   UNK N   1      26.012  19.769   3.552  0.00  0.00    -0.062 A 
HETATM    8  C   UNK N   1      26.905  20.530   4.300  0.00  0.00     0.008 A 
HETATM    9  C   UNK N   1      25.007  20.452   2.696  0.00  0.00     0.048 C 
HETATM   10  C   UNK N   1      27.861  19.897   5.089  0.00  0.00     0.025 A 
ENDBRANCH   1   4
BRANCH   1  11
HETATM   11  N   UNK N   1      30.886  16.904   5.947  0.00  0.00    -0.192 NA
HETATM   12  C   UNK N   1      31.474  17.381   4.699  0.00  0.00     0.109 C 
HETATM   13  C   UNK N   1      32.982  17.470   4.898  0.00  0.00     0.018 C 
HETATM   14  C   UNK N   1      33.225  16.965   6.299  0.00  0.00     0.033 C 
HETATM   15  C   UNK N   1      31.898  17.197   6.985  0.00  0.00     0.172 C 
BRANCH  15  16
HETATM   16  C   UNK N   1      31.735  16.329   8.220  0.00  0.00     0.159 C 
HETATM   17  O   UNK N   1      32.187  15.193   8.246  0.00  0.00    -0.649 OA
BRANCH  16  18
HETATM   18  O   UNK N   1      31.109  16.806   9.312  0.00  0.00    -0.775 OA
HETATM   19  H   UNK N   1      30.748  17.670   9.336  0.00  0.00     0.167 HD
ENDBRANCH  16  18
ENDBRANCH  15  16
ENDBRANCH   1  11
TORSDOF 4
ENDMDL
