MODEL 1
REMARK VINA RESULT:      -7.5      0.000      0.000
REMARK  4 active torsions:
REMARK  status: ('A' for Active; 'I' for Inactive)
REMARK    1  A    between atoms: C_3  and  N_9 
REMARK       I    between atoms: C_6  and  N_14 
REMARK    2  A    between atoms: C_13  and  S_15 
REMARK    3  A    between atoms: S_15  and  C_16 
REMARK    4  A    between atoms: C_19  and  C_22 
ROOT
HETATM    1  C   UNK N   1      34.636  12.052  15.448  0.00  0.00     0.064 A 
HETATM    2  C   UNK N   1      35.429  12.842  14.572  0.00  0.00     0.052 A 
HETATM    3  C   UNK N   1      36.165  13.907  15.162  0.00  0.00     0.128 A 
HETATM    4  N   UNK N   1      36.098  14.112  16.502  0.00  0.00    -0.176 N 
ATOM      5  HN  UNK N   1      36.631  14.878  16.914  1.00  0.00     0.186 HD
HETATM    6  C   UNK N   1      35.345  13.325  17.308  0.00  0.00     0.677 A 
HETATM    7  N   UNK N   1      34.618  12.311  16.779  0.00  0.00    -0.191 N 
ATOM      8  HN  UNK N   1      34.046  11.732  17.394  1.00  0.00     0.184 HD
HETATM    9  C   UNK N   1      33.886  10.985  14.955  0.00  0.00     0.031 A 
HETATM   10  C   UNK N   1      33.913  10.672  13.600  0.00  0.00     0.004 A 
HETATM   11  C   UNK N   1      34.707  11.414  12.727  0.00  0.00     0.020 A 
HETATM   12  C   UNK N   1      35.458  12.506  13.181  0.00  0.00     0.021 A 
HETATM   13  N   UNK N   1      35.321  13.559  18.696  0.00  0.00    -0.234 N 
HETATM   14  H   UNK N   1      35.541  14.436  19.085  0.00  0.00     0.174 HD
HETATM   15  H   UNK N   1      35.077  12.820  19.298  0.00  0.00     0.174 HD
ENDROOT
BRANCH  12  16
HETATM   16  S   UNK N   1      36.586  13.308  12.013  0.00  0.00    -0.090 SA
BRANCH  16  17
HETATM   17  C   UNK N   1      35.560  14.437  11.054  0.00  0.00     0.005 A 
HETATM   18  C   UNK N   1      35.855  15.800  11.135  0.00  0.00     0.019 A 
HETATM   19  C   UNK N   1      35.271  16.707  10.249  0.00  0.00     0.009 A 
HETATM   20  C   UNK N   1      34.385  16.263   9.254  0.00  0.00    -0.051 A 
HETATM   21  C   UNK N   1      34.063  14.894   9.196  0.00  0.00     0.009 A 
HETATM   22  C   UNK N   1      34.663  13.983  10.079  0.00  0.00     0.019 A 
BRANCH  20  23
HETATM   23  C   UNK N   1      33.828  17.223   8.216  0.00  0.00    -0.024 C 
HETATM   24  C   UNK N   1      33.964  16.639   6.824  0.00  0.00     0.019 C 
HETATM   25  C   UNK N   1      34.597  18.532   8.274  0.00  0.00     0.019 C 
HETATM   26  C   UNK N   1      32.357  17.553   8.446  0.00  0.00     0.019 C 
ENDBRANCH  20  23
ENDBRANCH  16  17
ENDBRANCH  12  16
BRANCH   3  27
HETATM   27  N   UNK N   1      36.966  14.779  14.397  0.00  0.00    -0.384 N 
HETATM   28  H   UNK N   1      37.076  14.702  13.422  0.00  0.00     0.157 HD
HETATM   29  H   UNK N   1      37.440  15.506  14.863  0.00  0.00     0.157 HD
ENDBRANCH   3  27
TORSDOF 4
ENDMDL
MODEL 2
REMARK VINA RESULT:      -7.2      3.137      5.479
REMARK  4 active torsions:
REMARK  status: ('A' for Active; 'I' for Inactive)
REMARK    1  A    between atoms: C_3  and  N_9 
REMARK       I    between atoms: C_6  and  N_14 
REMARK    2  A    between atoms: C_13  and  S_15 
REMARK    3  A    between atoms: S_15  and  C_16 
REMARK    4  A    between atoms: C_19  and  C_22 
ROOT
HETATM    1  C   UNK N   1      34.969  13.708  10.472  0.00  0.00     0.064 A 
HETATM    2  C   UNK N   1      34.910  14.984   9.849  0.00  0.00     0.052 A 
HETATM    3  C   UNK N   1      35.437  16.081  10.586  0.00  0.00     0.128 A 
HETATM    4  N   UNK N   1      35.977  15.871  11.813  0.00  0.00    -0.176 N 
ATOM      5  HN  UNK N   1      36.353  16.664  12.332  1.00  0.00     0.186 HD
HETATM    6  C   UNK N   1      36.033  14.635  12.366  0.00  0.00     0.677 A 
HETATM    7  N   UNK N   1      35.526  13.570  11.700  0.00  0.00    -0.191 N 
ATOM      8  HN  UNK N   1      35.564  12.646  12.131  1.00  0.00     0.184 HD
HETATM    9  C   UNK N   1      34.479  12.578   9.818  0.00  0.00     0.031 A 
HETATM   10  C   UNK N   1      33.935  12.682   8.543  0.00  0.00     0.004 A 
HETATM   11  C   UNK N   1      33.894  13.918   7.899  0.00  0.00     0.020 A 
HETATM   12  C   UNK N   1      34.357  15.080   8.531  0.00  0.00     0.021 A 
HETATM   13  N   UNK N   1      36.622  14.459  13.633  0.00  0.00    -0.234 N 
HETATM   14  H   UNK N   1      36.698  15.193  14.284  0.00  0.00     0.174 HD
HETATM   15  H   UNK N   1      36.971  13.570  13.875  0.00  0.00     0.174 HD
ENDROOT
BRANCH  12  16
HETATM   16  S   UNK N   1      34.418  16.610   7.564  0.00  0.00    -0.090 SA
BRANCH  16  17
HETATM   17  C   UNK N   1      32.728  17.236   7.549  0.00  0.00     0.005 A 
HETATM   18  C   UNK N   1      31.892  16.806   6.516  0.00  0.00     0.019 A 
HETATM   19  C   UNK N   1      30.519  17.050   6.566  0.00  0.00     0.009 A 
HETATM   20  C   UNK N   1      29.952  17.723   7.660  0.00  0.00    -0.051 A 
HETATM   21  C   UNK N   1      30.802  18.185   8.684  0.00  0.00     0.009 A 
HETATM   22  C   UNK N   1      32.179  17.925   8.638  0.00  0.00     0.019 A 
BRANCH  20  23
HETATM   23  C   UNK N   1      28.447  17.899   7.779  0.00  0.00    -0.024 C 
HETATM   24  C   UNK N   1      28.010  17.776   9.225  0.00  0.00     0.019 C 
HETATM   25  C   UNK N   1      27.747  16.824   6.964  0.00  0.00     0.019 C 
HETATM   26  C   UNK N   1      27.968  19.247   7.254  0.00  0.00     0.019 C 
ENDBRANCH  20  23
ENDBRANCH  16  17
ENDBRANCH  12  16
BRANCH   3  27
HETATM   27  N   UNK N   1      35.411  17.400  10.089  0.00  0.00    -0.384 N 
HETATM   28  H   UNK N   1      34.829  17.692   9.351  0.00  0.00     0.157 HD
HETATM   29  H   UNK N   1      36.006  18.066  10.505  0.00  0.00     0.157 HD
ENDBRANCH   3  27
TORSDOF 4
ENDMDL
MODEL 3
REMARK VINA RESULT:      -7.2     13.696     16.947
REMARK  4 active torsions:
REMARK  status: ('A' for Active; 'I' for Inactive)
REMARK    1  A    between atoms: C_3  and  N_9 
REMARK       I    between atoms: C_6  and  N_14 
REMARK    2  A    between atoms: C_13  and  S_15 
REMARK    3  A    between atoms: S_15  and  C_16 
REMARK    4  A    between atoms: C_19  and  C_22 
ROOT
HETATM    1  C   UNK N   1      22.296  19.465   3.145  0.00  0.00     0.064 A 
HETATM    2  C   UNK N   1      21.412  18.421   3.530  0.00  0.00     0.052 A 
HETATM    3  C   UNK N   1      20.140  18.394   2.893  0.00  0.00     0.128 A 
HETATM    4  N   UNK N   1      19.835  19.327   1.956  0.00  0.00    -0.176 N 
ATOM      5  HN  UNK N   1      18.920  19.297   1.506  1.00  0.00     0.186 HD
HETATM    6  C   UNK N   1      20.713  20.296   1.602  0.00  0.00     0.677 A 
HETATM    7  N   UNK N   1      21.927  20.363   2.199  0.00  0.00    -0.191 N 
ATOM      8  HN  UNK N   1      22.576  21.103   1.932  1.00  0.00     0.184 HD
HETATM    9  C   UNK N   1      23.565  19.564   3.716  0.00  0.00     0.031 A 
HETATM   10  C   UNK N   1      23.986  18.636   4.663  0.00  0.00     0.004 A 
HETATM   11  C   UNK N   1      23.147  17.587   5.034  0.00  0.00     0.020 A 
HETATM   12  C   UNK N   1      21.857  17.465   4.498  0.00  0.00     0.021 A 
HETATM   13  N   UNK N   1      20.364  21.231   0.609  0.00  0.00    -0.234 N 
HETATM   14  H   UNK N   1      19.427  21.439   0.389  0.00  0.00     0.174 HD
HETATM   15  H   UNK N   1      21.081  21.692   0.117  0.00  0.00     0.174 HD
ENDROOT
BRANCH  12  16
HETATM   16  S   UNK N   1      20.900  15.984   4.910  0.00  0.00    -0.090 SA
BRANCH  16  17
HETATM   17  C   UNK N   1      21.820  15.170   6.228  0.00  0.00     0.005 A 
HETATM   18  C   UNK N   1      21.330  15.301   7.530  0.00  0.00     0.019 A 
HETATM   19  C   UNK N   1      21.839  14.514   8.564  0.00  0.00     0.009 A 
HETATM   20  C   UNK N   1      22.846  13.568   8.311  0.00  0.00    -0.051 A 
HETATM   21  C   UNK N   1      23.361  13.461   7.006  0.00  0.00     0.009 A 
HETATM   22  C   UNK N   1      22.837  14.244   5.966  0.00  0.00     0.019 A 
BRANCH  20  23
HETATM   23  C   UNK N   1      23.332  12.630   9.404  0.00  0.00    -0.024 C 
HETATM   24  C   UNK N   1      24.731  13.009   9.845  0.00  0.00     0.019 C 
HETATM   25  C   UNK N   1      23.355  11.206   8.875  0.00  0.00     0.019 C 
HETATM   26  C   UNK N   1      22.431  12.641  10.634  0.00  0.00     0.019 C 
ENDBRANCH  20  23
ENDBRANCH  16  17
ENDBRANCH  12  16
BRANCH   3  27
HETATM   27  N   UNK N   1      19.164  17.426   3.209  0.00  0.00    -0.384 N 
HETATM   28  H   UNK N   1      18.856  17.243   4.126  0.00  0.00     0.157 HD
HETATM   29  H   UNK N   1      18.769  16.907   2.472  0.00  0.00     0.157 HD
ENDBRANCH   3  27
TORSDOF 4
ENDMDL
MODEL 4
REMARK VINA RESULT:      -6.8      3.734      8.745
REMARK  4 active torsions:
REMARK  status: ('A' for Active; 'I' for Inactive)
REMARK    1  A    between atoms: C_3  and  N_9 
REMARK       I    between atoms: C_6  and  N_14 
REMARK    2  A    between atoms: C_13  and  S_15 
REMARK    3  A    between atoms: S_15  and  C_16 
REMARK    4  A    between atoms: C_19  and  C_22 
ROOT
HETATM    1  C   UNK N   1      35.430  11.644  12.288  0.00  0.00     0.064 A 
HETATM    2  C   UNK N   1      35.535  12.390  13.493  0.00  0.00     0.052 A 
HETATM    3  C   UNK N   1      36.485  13.449  13.509  0.00  0.00     0.128 A 
HETATM    4  N   UNK N   1      37.220  13.712  12.399  0.00  0.00    -0.176 N 
ATOM      5  HN  UNK N   1      37.897  14.474  12.422  1.00  0.00     0.186 HD
HETATM    6  C   UNK N   1      37.078  12.990  11.261  0.00  0.00     0.677 A 
HETATM    7  N   UNK N   1      36.194  11.963  11.215  0.00  0.00    -0.191 N 
ATOM      8  HN  UNK N   1      36.103  11.420  10.356  1.00  0.00     0.184 HD
HETATM    9  C   UNK N   1      34.521  10.591  12.184  0.00  0.00     0.031 A 
HETATM   10  C   UNK N   1      33.698  10.264  13.256  0.00  0.00     0.004 A 
HETATM   11  C   UNK N   1      33.762  11.000  14.438  0.00  0.00     0.020 A 
HETATM   12  C   UNK N   1      34.676  12.051  14.588  0.00  0.00     0.021 A 
HETATM   13  N   UNK N   1      37.845  13.310  10.125  0.00  0.00    -0.234 N 
HETATM   14  H   UNK N   1      38.700  13.794  10.188  0.00  0.00     0.174 HD
HETATM   15  H   UNK N   1      37.515  13.041   9.237  0.00  0.00     0.174 HD
ENDROOT
BRANCH  12  16
HETATM   16  S   UNK N   1      34.578  13.057  16.090  0.00  0.00    -0.090 SA
BRANCH  16  17
HETATM   17  C   UNK N   1      35.429  12.105  17.361  0.00  0.00     0.005 A 
HETATM   18  C   UNK N   1      35.249  12.500  18.689  0.00  0.00     0.019 A 
HETATM   19  C   UNK N   1      35.673  11.681  19.737  0.00  0.00     0.009 A 
HETATM   20  C   UNK N   1      36.279  10.442  19.475  0.00  0.00    -0.051 A 
HETATM   21  C   UNK N   1      36.490  10.062  18.136  0.00  0.00     0.009 A 
HETATM   22  C   UNK N   1      36.050  10.880  17.086  0.00  0.00     0.019 A 
BRANCH  20  23
HETATM   23  C   UNK N   1      36.646   9.495  20.606  0.00  0.00    -0.024 C 
HETATM   24  C   UNK N   1      35.397   8.943  21.263  0.00  0.00     0.019 C 
HETATM   25  C   UNK N   1      37.458  10.244  21.649  0.00  0.00     0.019 C 
HETATM   26  C   UNK N   1      37.491   8.316  20.136  0.00  0.00     0.019 C 
ENDBRANCH  20  23
ENDBRANCH  16  17
ENDBRANCH  12  16
BRANCH   3  27
HETATM   27  N   UNK N   1      36.704  14.243  14.653  0.00  0.00    -0.384 N 
HETATM   28  H   UNK N   1      36.361  14.015  15.547  0.00  0.00     0.157 HD
HETATM   29  H   UNK N   1      37.228  15.070  14.552  0.00  0.00     0.157 HD
ENDBRANCH   3  27
TORSDOF 4
ENDMDL
MODEL 5
REMARK VINA RESULT:      -6.7      3.498      7.475
REMARK  4 active torsions:
REMARK  status: ('A' for Active; 'I' for Inactive)
REMARK    1  A    between atoms: C_3  and  N_9 
REMARK       I    between atoms: C_6  and  N_14 
REMARK    2  A    between atoms: C_13  and  S_15 
REMARK    3  A    between atoms: S_15  and  C_16 
REMARK    4  A    between atoms: C_19  and  C_22 
ROOT
HETATM    1  C   UNK N   1      33.269  14.884   7.782  0.00  0.00     0.064 A 
HETATM    2  C   UNK N   1      34.253  15.343   8.698  0.00  0.00     0.052 A 
HETATM    3  C   UNK N   1      33.994  16.583   9.347  0.00  0.00     0.128 A 
HETATM    4  N   UNK N   1      32.842  17.252   9.087  0.00  0.00    -0.176 N 
ATOM      5  HN  UNK N   1      32.667  18.139   9.559  1.00  0.00     0.186 HD
HETATM    6  C   UNK N   1      31.918  16.772   8.220  0.00  0.00     0.677 A 
HETATM    7  N   UNK N   1      32.138  15.602   7.572  0.00  0.00    -0.191 N 
ATOM      8  HN  UNK N   1      31.440  15.256   6.914  1.00  0.00     0.184 HD
HETATM    9  C   UNK N   1      33.440  13.677   7.105  0.00  0.00     0.031 A 
HETATM   10  C   UNK N   1      34.572  12.900   7.327  0.00  0.00     0.004 A 
HETATM   11  C   UNK N   1      35.537  13.315   8.243  0.00  0.00     0.020 A 
HETATM   12  C   UNK N   1      35.410  14.532   8.927  0.00  0.00     0.021 A 
HETATM   13  N   UNK N   1      30.726  17.488   7.997  0.00  0.00    -0.234 N 
HETATM   14  H   UNK N   1      30.655  18.455   8.163  0.00  0.00     0.174 HD
HETATM   15  H   UNK N   1      29.937  17.003   7.664  0.00  0.00     0.174 HD
ENDROOT
BRANCH  12  16
HETATM   16  S   UNK N   1      36.623  14.914  10.217  0.00  0.00    -0.090 SA
BRANCH  16  17
HETATM   17  C   UNK N   1      35.952  14.202  11.731  0.00  0.00     0.005 A 
HETATM   18  C   UNK N   1      35.250  13.000  11.620  0.00  0.00     0.019 A 
HETATM   19  C   UNK N   1      34.910  12.268  12.759  0.00  0.00     0.009 A 
HETATM   20  C   UNK N   1      35.277  12.722  14.035  0.00  0.00    -0.051 A 
HETATM   21  C   UNK N   1      35.955  13.951  14.147  0.00  0.00     0.009 A 
HETATM   22  C   UNK N   1      36.308  14.677  13.000  0.00  0.00     0.019 A 
BRANCH  20  23
HETATM   23  C   UNK N   1      35.009  11.882  15.274  0.00  0.00    -0.024 C 
HETATM   24  C   UNK N   1      33.882  10.902  15.016  0.00  0.00     0.019 C 
HETATM   25  C   UNK N   1      34.613  12.792  16.425  0.00  0.00     0.019 C 
HETATM   26  C   UNK N   1      36.230  11.088  15.724  0.00  0.00     0.019 C 
ENDBRANCH  20  23
ENDBRANCH  16  17
ENDBRANCH  12  16
BRANCH   3  27
HETATM   27  N   UNK N   1      34.906  17.159  10.256  0.00  0.00    -0.384 N 
HETATM   28  H   UNK N   1      34.772  18.039  10.676  0.00  0.00     0.157 HD
HETATM   29  H   UNK N   1      35.719  16.653  10.482  0.00  0.00     0.157 HD
ENDBRANCH   3  27
TORSDOF 4
ENDMDL
MODEL 6
REMARK VINA RESULT:      -6.7     13.774     16.764
REMARK  4 active torsions:
REMARK  status: ('A' for Active; 'I' for Inactive)
REMARK    1  A    between atoms: C_3  and  N_9 
REMARK       I    between atoms: C_6  and  N_14 
REMARK    2  A    between atoms: C_13  and  S_15 
REMARK    3  A    between atoms: S_15  and  C_16 
REMARK    4  A    between atoms: C_19  and  C_22 
ROOT
HETATM    1  C   UNK N   1      21.472  16.943   3.537  0.00  0.00     0.064 A 
HETATM    2  C   UNK N   1      20.601  16.682   4.629  0.00  0.00     0.052 A 
HETATM    3  C   UNK N   1      19.474  15.854   4.363  0.00  0.00     0.128 A 
HETATM    4  N   UNK N   1      19.291  15.346   3.118  0.00  0.00    -0.176 N 
ATOM      5  HN  UNK N   1      18.480  14.753   2.940  1.00  0.00     0.186 HD
HETATM    6  C   UNK N   1      20.155  15.603   2.107  0.00  0.00     0.677 A 
HETATM    7  N   UNK N   1      21.230  16.400   2.319  0.00  0.00    -0.191 N 
ATOM      8  HN  UNK N   1      21.868  16.595   1.548  1.00  0.00     0.184 HD
HETATM    9  C   UNK N   1      22.603  17.742   3.710  0.00  0.00     0.031 A 
HETATM   10  C   UNK N   1      22.899  18.283   4.957  0.00  0.00     0.004 A 
HETATM   11  C   UNK N   1      22.074  18.016   6.048  0.00  0.00     0.020 A 
HETATM   12  C   UNK N   1      20.918  17.236   5.910  0.00  0.00     0.021 A 
HETATM   13  N   UNK N   1      19.938  15.036   0.837  0.00  0.00    -0.234 N 
HETATM   14  H   UNK N   1      19.047  14.743   0.537  0.00  0.00     0.174 HD
HETATM   15  H   UNK N   1      20.704  14.930   0.227  0.00  0.00     0.174 HD
ENDROOT
BRANCH  12  16
HETATM   16  S   UNK N   1      19.998  16.804   7.409  0.00  0.00    -0.090 SA
BRANCH  16  17
HETATM   17  C   UNK N   1      20.802  15.327   8.055  0.00  0.00     0.005 A 
HETATM   18  C   UNK N   1      21.964  14.893   7.413  0.00  0.00     0.019 A 
HETATM   19  C   UNK N   1      22.771  13.911   7.989  0.00  0.00     0.009 A 
HETATM   20  C   UNK N   1      22.434  13.349   9.231  0.00  0.00    -0.051 A 
HETATM   21  C   UNK N   1      21.244  13.762   9.860  0.00  0.00     0.009 A 
HETATM   22  C   UNK N   1      20.444  14.760   9.285  0.00  0.00     0.019 A 
BRANCH  20  23
HETATM   23  C   UNK N   1      23.359  12.359   9.920  0.00  0.00    -0.024 C 
HETATM   24  C   UNK N   1      23.405  11.053   9.153  0.00  0.00     0.019 C 
HETATM   25  C   UNK N   1      22.848  12.084  11.325  0.00  0.00     0.019 C 
HETATM   26  C   UNK N   1      24.786  12.878  10.052  0.00  0.00     0.019 C 
ENDBRANCH  20  23
ENDBRANCH  16  17
ENDBRANCH  12  16
BRANCH   3  27
HETATM   27  N   UNK N   1      18.521  15.545   5.354  0.00  0.00    -0.384 N 
HETATM   28  H   UNK N   1      17.953  14.741   5.331  0.00  0.00     0.157 HD
HETATM   29  H   UNK N   1      18.418  16.166   6.111  0.00  0.00     0.157 HD
ENDBRANCH   3  27
TORSDOF 4
ENDMDL
MODEL 7
REMARK VINA RESULT:      -6.7     21.412     24.097
REMARK  4 active torsions:
REMARK  status: ('A' for Active; 'I' for Inactive)
REMARK    1  A    between atoms: C_3  and  N_9 
REMARK       I    between atoms: C_6  and  N_14 
REMARK    2  A    between atoms: C_13  and  S_15 
REMARK    3  A    between atoms: S_15  and  C_16 
REMARK    4  A    between atoms: C_19  and  C_22 
ROOT
HETATM    1  C   UNK N   1      27.309  28.089  -6.464  0.00  0.00     0.064 A 
HETATM    2  C   UNK N   1      26.580  26.876  -6.592  0.00  0.00     0.052 A 
HETATM    3  C   UNK N   1      25.680  26.557  -5.537  0.00  0.00     0.128 A 
HETATM    4  N   UNK N   1      25.543  27.407  -4.488  0.00  0.00    -0.176 N 
ATOM      5  HN  UNK N   1      24.894  27.168  -3.738  1.00  0.00     0.186 HD
HETATM    6  C   UNK N   1      26.242  28.564  -4.411  0.00  0.00     0.677 A 
HETATM    7  N   UNK N   1      27.120  28.894  -5.389  0.00  0.00    -0.191 N 
ATOM      8  HN  UNK N   1      27.648  29.763  -5.316  1.00  0.00     0.184 HD
HETATM    9  C   UNK N   1      28.210  28.482  -7.454  0.00  0.00     0.031 A 
HETATM   10  C   UNK N   1      28.398  27.695  -8.586  0.00  0.00     0.004 A 
HETATM   11  C   UNK N   1      27.673  26.516  -8.747  0.00  0.00     0.020 A 
HETATM   12  C   UNK N   1      26.774  26.078  -7.765  0.00  0.00     0.021 A 
HETATM   13  N   UNK N   1      26.052  29.428  -3.315  0.00  0.00    -0.234 N 
HETATM   14  H   UNK N   1      25.705  29.112  -2.450  0.00  0.00     0.174 HD
HETATM   15  H   UNK N   1      26.273  30.382  -3.419  0.00  0.00     0.174 HD
ENDROOT
BRANCH  12  16
HETATM   16  S   UNK N   1      25.755  24.626  -8.130  0.00  0.00    -0.090 SA
BRANCH  16  17
HETATM   17  C   UNK N   1      26.796  23.204  -7.758  0.00  0.00     0.005 A 
HETATM   18  C   UNK N   1      26.778  22.140  -8.664  0.00  0.00     0.019 A 
HETATM   19  C   UNK N   1      27.724  21.118  -8.578  0.00  0.00     0.009 A 
HETATM   20  C   UNK N   1      28.716  21.145  -7.584  0.00  0.00    -0.051 A 
HETATM   21  C   UNK N   1      28.710  22.199  -6.652  0.00  0.00     0.009 A 
HETATM   22  C   UNK N   1      27.767  23.233  -6.750  0.00  0.00     0.019 A 
BRANCH  20  23
HETATM   23  C   UNK N   1      29.815  20.096  -7.546  0.00  0.00    -0.024 C 
HETATM   24  C   UNK N   1      30.592  20.189  -6.248  0.00  0.00     0.019 C 
HETATM   25  C   UNK N   1      30.771  20.323  -8.705  0.00  0.00     0.019 C 
HETATM   26  C   UNK N   1      29.280  18.675  -7.673  0.00  0.00     0.019 C 
ENDBRANCH  20  23
ENDBRANCH  16  17
ENDBRANCH  12  16
BRANCH   3  27
HETATM   27  N   UNK N   1      24.922  25.368  -5.532  0.00  0.00    -0.384 N 
HETATM   28  H   UNK N   1      24.760  24.823  -6.336  0.00  0.00     0.157 HD
HETATM   29  H   UNK N   1      24.533  25.068  -4.679  0.00  0.00     0.157 HD
ENDBRANCH   3  27
TORSDOF 4
ENDMDL
MODEL 8
REMARK VINA RESULT:      -6.6      1.274      1.999
REMARK  4 active torsions:
REMARK  status: ('A' for Active; 'I' for Inactive)
REMARK    1  A    between atoms: C_3  and  N_9 
REMARK       I    between atoms: C_6  and  N_14 
REMARK    2  A    between atoms: C_13  and  S_15 
REMARK    3  A    between atoms: S_15  and  C_16 
REMARK    4  A    between atoms: C_19  and  C_22 
ROOT
HETATM    1  C   UNK N   1      34.656  11.783  13.736  0.00  0.00     0.064 A 
HETATM    2  C   UNK N   1      35.504  12.723  13.092  0.00  0.00     0.052 A 
HETATM    3  C   UNK N   1      36.063  13.745  13.909  0.00  0.00     0.128 A 
HETATM    4  N   UNK N   1      35.787  13.772  15.237  0.00  0.00    -0.176 N 
ATOM      5  HN  UNK N   1      36.194  14.509  15.813  1.00  0.00     0.186 HD
HETATM    6  C   UNK N   1      34.987  12.846  15.819  0.00  0.00     0.677 A 
HETATM    7  N   UNK N   1      34.425  11.868  15.069  0.00  0.00    -0.191 N 
ATOM      8  HN  UNK N   1      33.816  11.182  15.516  1.00  0.00     0.184 HD
HETATM    9  C   UNK N   1      34.069  10.745  13.011  0.00  0.00     0.031 A 
HETATM   10  C   UNK N   1      34.316  10.611  11.649  0.00  0.00     0.004 A 
HETATM   11  C   UNK N   1      35.169  11.503  11.002  0.00  0.00     0.020 A 
HETATM   12  C   UNK N   1      35.760  12.570  11.691  0.00  0.00     0.021 A 
HETATM   13  N   UNK N   1      34.745  12.899  17.205  0.00  0.00    -0.234 N 
HETATM   14  H   UNK N   1      34.838  13.730  17.724  0.00  0.00     0.174 HD
HETATM   15  H   UNK N   1      34.474  12.075  17.672  0.00  0.00     0.174 HD
ENDROOT
BRANCH  12  16
HETATM   16  S   UNK N   1      36.981  13.580  10.813  0.00  0.00    -0.090 SA
BRANCH  16  17
HETATM   17  C   UNK N   1      36.021  14.714   9.794  0.00  0.00     0.005 A 
HETATM   18  C   UNK N   1      35.703  14.302   8.498  0.00  0.00     0.019 A 
HETATM   19  C   UNK N   1      34.771  15.009   7.737  0.00  0.00     0.009 A 
HETATM   20  C   UNK N   1      34.129  16.141   8.264  0.00  0.00    -0.051 A 
HETATM   21  C   UNK N   1      34.477  16.574   9.558  0.00  0.00     0.009 A 
HETATM   22  C   UNK N   1      35.403  15.854  10.325  0.00  0.00     0.019 A 
BRANCH  20  23
HETATM   23  C   UNK N   1      33.035  16.855   7.488  0.00  0.00    -0.024 C 
HETATM   24  C   UNK N   1      32.443  17.978   8.315  0.00  0.00     0.019 C 
HETATM   25  C   UNK N   1      31.932  15.867   7.144  0.00  0.00     0.019 C 
HETATM   26  C   UNK N   1      33.534  17.449   6.176  0.00  0.00     0.019 C 
ENDBRANCH  20  23
ENDBRANCH  16  17
ENDBRANCH  12  16
BRANCH   3  27
HETATM   27  N   UNK N   1      36.897  14.753  13.383  0.00  0.00    -0.384 N 
HETATM   28  H   UNK N   1      37.867  14.795  13.545  0.00  0.00     0.157 HD
HETATM   29  H   UNK N   1      36.487  15.452  12.824  0.00  0.00     0.157 HD
ENDBRANCH   3  27
TORSDOF 4
ENDMDL
MODEL 9
REMARK VINA RESULT:      -6.6     18.187     20.736
REMARK  4 active torsions:
REMARK  status: ('A' for Active; 'I' for Inactive)
REMARK    1  A    between atoms: C_3  and  N_9 
REMARK       I    between atoms: C_6  and  N_14 
REMARK    2  A    between atoms: C_13  and  S_15 
REMARK    3  A    between atoms: S_15  and  C_16 
REMARK    4  A    between atoms: C_19  and  C_22 
ROOT
HETATM    1  C   UNK N   1      31.514  20.554  -6.169  0.00  0.00     0.064 A 
HETATM    2  C   UNK N   1      31.404  21.111  -4.866  0.00  0.00     0.052 A 
HETATM    3  C   UNK N   1      32.461  20.825  -3.957  0.00  0.00     0.128 A 
HETATM    4  N   UNK N   1      33.512  20.068  -4.362  0.00  0.00    -0.176 N 
ATOM      5  HN  UNK N   1      34.264  19.870  -3.702  1.00  0.00     0.186 HD
HETATM    6  C   UNK N   1      33.590  19.569  -5.619  0.00  0.00     0.677 A 
HETATM    7  N   UNK N   1      32.594  19.808  -6.507  0.00  0.00    -0.191 N 
ATOM      8  HN  UNK N   1      32.659  19.419  -7.448  1.00  0.00     0.184 HD
HETATM    9  C   UNK N   1      30.525  20.787  -7.125  0.00  0.00     0.031 A 
HETATM   10  C   UNK N   1      29.423  21.579  -6.818  0.00  0.00     0.004 A 
HETATM   11  C   UNK N   1      29.309  22.161  -5.557  0.00  0.00     0.020 A 
HETATM   12  C   UNK N   1      30.271  21.932  -4.564  0.00  0.00     0.021 A 
HETATM   13  N   UNK N   1      34.709  18.806  -6.004  0.00  0.00    -0.234 N 
HETATM   14  H   UNK N   1      35.273  18.334  -5.351  0.00  0.00     0.174 HD
HETATM   15  H   UNK N   1      34.935  18.744  -6.961  0.00  0.00     0.174 HD
ENDROOT
BRANCH  12  16
HETATM   16  S   UNK N   1      30.131  22.857  -3.013  0.00  0.00    -0.090 SA
BRANCH  16  17
HETATM   17  C   UNK N   1      28.979  24.199  -3.358  0.00  0.00     0.005 A 
HETATM   18  C   UNK N   1      29.476  25.316  -4.034  0.00  0.00     0.019 A 
HETATM   19  C   UNK N   1      28.608  26.282  -4.546  0.00  0.00     0.009 A 
HETATM   20  C   UNK N   1      27.219  26.142  -4.399  0.00  0.00    -0.051 A 
HETATM   21  C   UNK N   1      26.722  25.033  -3.688  0.00  0.00     0.009 A 
HETATM   22  C   UNK N   1      27.596  24.058  -3.187  0.00  0.00     0.019 A 
BRANCH  20  23
HETATM   23  C   UNK N   1      26.260  27.129  -5.045  0.00  0.00    -0.024 C 
HETATM   24  C   UNK N   1      25.624  28.017  -3.994  0.00  0.00     0.019 C 
HETATM   25  C   UNK N   1      25.162  26.366  -5.769  0.00  0.00     0.019 C 
HETATM   26  C   UNK N   1      26.940  28.026  -6.072  0.00  0.00     0.019 C 
ENDBRANCH  20  23
ENDBRANCH  16  17
ENDBRANCH  12  16
BRANCH   3  27
HETATM   27  N   UNK N   1      32.455  21.295  -2.628  0.00  0.00    -0.384 N 
HETATM   28  H   UNK N   1      31.647  21.622  -2.170  0.00  0.00     0.157 HD
HETATM   29  H   UNK N   1      33.305  21.297  -2.131  0.00  0.00     0.157 HD
ENDBRANCH   3  27
TORSDOF 4
ENDMDL
