MODEL 1
REMARK VINA RESULT:      -7.5      0.000      0.000
REMARK  4 active torsions:
REMARK  status: ('A' for Active; 'I' for Inactive)
REMARK    1  A    between atoms: C_1  and  N_14 
REMARK       I    between atoms: C_4  and  N_13 
REMARK    2  A    between atoms: C_8  and  S_15 
REMARK    3  A    between atoms: S_15  and  C_16 
REMARK    4  A    between atoms: C_19  and  N_24 
ROOT
HETATM    1  C   UNK N   1      31.140  16.461   6.529  0.00  0.00     0.128 A 
HETATM    2  N   UNK N   1      32.067  15.797   7.263  0.00  0.00    -0.176 N 
ATOM      3  HN  UNK N   1      32.774  15.240   6.784  1.00  0.00     0.186 HD
HETATM    4  C   UNK N   1      32.078  15.851   8.618  0.00  0.00     0.677 A 
HETATM    5  N   UNK N   1      31.156  16.593   9.275  0.00  0.00    -0.191 N 
ATOM      6  HN  UNK N   1      31.179  16.635  10.294  1.00  0.00     0.184 HD
HETATM    7  C   UNK N   1      28.162  18.653   7.287  0.00  0.00     0.020 A 
HETATM    8  C   UNK N   1      29.097  17.946   6.519  0.00  0.00     0.021 A 
HETATM    9  C   UNK N   1      30.145  17.237   7.185  0.00  0.00     0.052 A 
HETATM   10  C   UNK N   1      30.201  17.282   8.604  0.00  0.00     0.064 A 
HETATM   11  C   UNK N   1      29.264  18.018   9.329  0.00  0.00     0.031 A 
HETATM   12  C   UNK N   1      28.252  18.706   8.673  0.00  0.00     0.004 A 
HETATM   13  N   UNK N   1      33.043  15.126   9.343  0.00  0.00    -0.234 N 
HETATM   14  H   UNK N   1      33.075  15.118  10.326  0.00  0.00     0.174 HD
HETATM   15  H   UNK N   1      33.714  14.607   8.844  0.00  0.00     0.174 HD
ENDROOT
BRANCH   8  16
HETATM   16  S   UNK N   1      28.833  17.854   4.726  0.00  0.00    -0.090 SA
BRANCH  16  17
HETATM   17  C   UNK N   1      27.106  18.334   4.579  0.00  0.00     0.005 A 
HETATM   18  C   UNK N   1      26.087  17.413   4.832  0.00  0.00     0.021 A 
HETATM   19  C   UNK N   1      24.759  17.737   4.561  0.00  0.00     0.030 A 
HETATM   20  C   UNK N   1      24.430  18.977   3.991  0.00  0.00     0.030 A 
HETATM   21  C   UNK N   1      25.459  19.902   3.739  0.00  0.00     0.030 A 
HETATM   22  C   UNK N   1      26.789  19.581   4.033  0.00  0.00     0.021 A 
BRANCH  20  23
HETATM   23  N   UNK N   1      23.085  19.247   3.591  0.00  0.00    -0.377 N 
HETATM   24  C   UNK N   1      22.010  18.399   4.102  0.00  0.00     0.149 C 
HETATM   25  C   UNK N   1      20.619  18.959   3.790  0.00  0.00     0.187 C 
HETATM   26  O   UNK N   1      20.646  20.356   3.842  0.00  0.00    -0.388 OA
HETATM   27  C   UNK N   1      21.311  20.721   2.669  0.00  0.00     0.187 C 
HETATM   28  C   UNK N   1      22.806  20.473   2.845  0.00  0.00     0.149 C 
ENDBRANCH  20  23
ENDBRANCH  16  17
ENDBRANCH   8  16
BRANCH   1  29
HETATM   29  N   UNK N   1      31.204  16.356   5.125  0.00  0.00    -0.384 N 
HETATM   30  H   UNK N   1      30.990  17.107   4.524  0.00  0.00     0.157 HD
HETATM   31  H   UNK N   1      31.473  15.497   4.728  0.00  0.00     0.157 HD
ENDBRANCH   1  29
TORSDOF 4
ENDMDL
MODEL 2
REMARK VINA RESULT:      -7.5      8.287     11.760
REMARK  4 active torsions:
REMARK  status: ('A' for Active; 'I' for Inactive)
REMARK    1  A    between atoms: C_1  and  N_14 
REMARK       I    between atoms: C_4  and  N_13 
REMARK    2  A    between atoms: C_8  and  S_15 
REMARK    3  A    between atoms: S_15  and  C_16 
REMARK    4  A    between atoms: C_19  and  N_24 
ROOT
HETATM    1  C   UNK N   1      36.370  13.734  15.423  0.00  0.00     0.128 A 
HETATM    2  N   UNK N   1      36.168  14.160  16.695  0.00  0.00    -0.176 N 
ATOM      3  HN  UNK N   1      36.717  14.944  17.049  1.00  0.00     0.186 HD
HETATM    4  C   UNK N   1      35.259  13.571  17.509  0.00  0.00     0.677 A 
HETATM    5  N   UNK N   1      34.511  12.537  17.056  0.00  0.00    -0.191 N 
ATOM      6  HN  UNK N   1      33.822  12.108  17.674  1.00  0.00     0.184 HD
HETATM    7  C   UNK N   1      34.980  10.982  13.246  0.00  0.00     0.020 A 
HETATM    8  C   UNK N   1      35.770  12.081  13.611  0.00  0.00     0.021 A 
HETATM    9  C   UNK N   1      35.616  12.639  14.918  0.00  0.00     0.052 A 
HETATM   10  C   UNK N   1      34.661  12.061  15.797  0.00  0.00     0.064 A 
HETATM   11  C   UNK N   1      33.878  10.983  15.384  0.00  0.00     0.031 A 
HETATM   12  C   UNK N   1      34.032  10.449  14.112  0.00  0.00     0.004 A 
HETATM   13  N   UNK N   1      35.098  14.029  18.831  0.00  0.00    -0.234 N 
HETATM   14  H   UNK N   1      34.467  13.617  19.464  0.00  0.00     0.174 HD
HETATM   15  H   UNK N   1      35.639  14.793  19.133  0.00  0.00     0.174 HD
ENDROOT
BRANCH   8  16
HETATM   16  S   UNK N   1      37.047  12.637  12.448  0.00  0.00    -0.090 SA
BRANCH  16  17
HETATM   17  C   UNK N   1      36.070  13.484  11.198  0.00  0.00     0.005 A 
HETATM   18  C   UNK N   1      36.344  13.310   9.840  0.00  0.00     0.021 A 
HETATM   19  C   UNK N   1      35.697  14.089   8.883  0.00  0.00     0.030 A 
HETATM   20  C   UNK N   1      34.789  15.087   9.272  0.00  0.00     0.030 A 
HETATM   21  C   UNK N   1      34.514  15.258  10.641  0.00  0.00     0.030 A 
HETATM   22  C   UNK N   1      35.150  14.459  11.597  0.00  0.00     0.021 A 
BRANCH  20  23
HETATM   23  N   UNK N   1      34.235  15.970   8.295  0.00  0.00    -0.377 N 
HETATM   24  C   UNK N   1      33.593  17.206   8.739  0.00  0.00     0.149 C 
HETATM   25  C   UNK N   1      33.277  18.155   7.580  0.00  0.00     0.187 C 
HETATM   26  O   UNK N   1      34.274  18.063   6.603  0.00  0.00    -0.388 OA
HETATM   27  C   UNK N   1      34.017  16.840   5.978  0.00  0.00     0.187 C 
HETATM   28  C   UNK N   1      34.497  15.708   6.880  0.00  0.00     0.149 C 
ENDBRANCH  20  23
ENDBRANCH  16  17
ENDBRANCH   8  16
BRANCH   1  29
HETATM   29  N   UNK N   1      37.331  14.406  14.641  0.00  0.00    -0.384 N 
HETATM   30  H   UNK N   1      38.163  13.978  14.335  0.00  0.00     0.157 HD
HETATM   31  H   UNK N   1      37.163  15.343  14.390  0.00  0.00     0.157 HD
ENDBRANCH   1  29
TORSDOF 4
ENDMDL
MODEL 3
REMARK VINA RESULT:      -7.4      2.052      3.295
REMARK  4 active torsions:
REMARK  status: ('A' for Active; 'I' for Inactive)
REMARK    1  A    between atoms: C_1  and  N_14 
REMARK       I    between atoms: C_4  and  N_13 
REMARK    2  A    between atoms: C_8  and  S_15 
REMARK    3  A    between atoms: S_15  and  C_16 
REMARK    4  A    between atoms: C_19  and  N_24 
ROOT
HETATM    1  C   UNK N   1      27.947  19.128   7.808  0.00  0.00     0.128 A 
HETATM    2  N   UNK N   1      28.250  18.677   9.051  0.00  0.00    -0.176 N 
ATOM      3  HN  UNK N   1      27.903  19.188   9.862  1.00  0.00     0.186 HD
HETATM    4  C   UNK N   1      29.003  17.566   9.244  0.00  0.00     0.677 A 
HETATM    5  N   UNK N   1      29.463  16.865   8.181  0.00  0.00    -0.191 N 
ATOM      6  HN  UNK N   1      30.020  16.025   8.338  1.00  0.00     0.184 HD
HETATM    7  C   UNK N   1      28.762  18.065   4.279  0.00  0.00     0.020 A 
HETATM    8  C   UNK N   1      28.207  18.831   5.313  0.00  0.00     0.021 A 
HETATM    9  C   UNK N   1      28.429  18.429   6.667  0.00  0.00     0.052 A 
HETATM   10  C   UNK N   1      29.199  17.259   6.912  0.00  0.00     0.064 A 
HETATM   11  C   UNK N   1      29.712  16.512   5.852  0.00  0.00     0.031 A 
HETATM   12  C   UNK N   1      29.489  16.909   4.540  0.00  0.00     0.004 A 
HETATM   13  N   UNK N   1      29.313  17.145  10.551  0.00  0.00    -0.234 N 
HETATM   14  H   UNK N   1      29.875  16.359  10.738  0.00  0.00     0.174 HD
HETATM   15  H   UNK N   1      28.953  17.660  11.309  0.00  0.00     0.174 HD
ENDROOT
BRANCH   8  16
HETATM   16  S   UNK N   1      27.363  20.375   4.873  0.00  0.00    -0.090 SA
BRANCH  16  17
HETATM   17  C   UNK N   1      25.749  19.780   4.348  0.00  0.00     0.005 A 
HETATM   18  C   UNK N   1      24.980  20.511   3.439  0.00  0.00     0.021 A 
HETATM   19  C   UNK N   1      23.668  20.134   3.160  0.00  0.00     0.030 A 
HETATM   20  C   UNK N   1      23.086  19.039   3.818  0.00  0.00     0.030 A 
HETATM   21  C   UNK N   1      23.863  18.305   4.732  0.00  0.00     0.030 A 
HETATM   22  C   UNK N   1      25.187  18.673   4.993  0.00  0.00     0.021 A 
BRANCH  20  23
HETATM   23  N   UNK N   1      21.701  18.744   3.627  0.00  0.00    -0.377 N 
HETATM   24  C   UNK N   1      20.829  19.770   3.059  0.00  0.00     0.149 C 
HETATM   25  C   UNK N   1      19.446  19.228   2.686  0.00  0.00     0.187 C 
HETATM   26  O   UNK N   1      19.559  17.912   2.226  0.00  0.00    -0.388 OA
HETATM   27  C   UNK N   1      19.792  17.172   3.388  0.00  0.00     0.187 C 
HETATM   28  C   UNK N   1      21.241  17.370   3.823  0.00  0.00     0.149 C 
ENDBRANCH  20  23
ENDBRANCH  16  17
ENDBRANCH   8  16
BRANCH   1  29
HETATM   29  N   UNK N   1      27.154  20.288   7.696  0.00  0.00    -0.384 N 
HETATM   30  H   UNK N   1      26.904  20.680   6.828  0.00  0.00     0.157 HD
HETATM   31  H   UNK N   1      26.838  20.724   8.519  0.00  0.00     0.157 HD
ENDBRANCH   1  29
TORSDOF 4
ENDMDL
MODEL 4
REMARK VINA RESULT:      -7.4      3.386      9.127
REMARK  4 active torsions:
REMARK  status: ('A' for Active; 'I' for Inactive)
REMARK    1  A    between atoms: C_1  and  N_14 
REMARK       I    between atoms: C_4  and  N_13 
REMARK    2  A    between atoms: C_8  and  S_15 
REMARK    3  A    between atoms: S_15  and  C_16 
REMARK    4  A    between atoms: C_19  and  N_24 
ROOT
HETATM    1  C   UNK N   1      23.235  18.042   4.794  0.00  0.00     0.128 A 
HETATM    2  N   UNK N   1      22.002  18.452   4.405  0.00  0.00    -0.176 N 
ATOM      3  HN  UNK N   1      21.181  17.952   4.748  1.00  0.00     0.186 HD
HETATM    4  C   UNK N   1      21.830  19.509   3.573  0.00  0.00     0.677 A 
HETATM    5  N   UNK N   1      22.904  20.195   3.116  0.00  0.00    -0.191 N 
ATOM      6  HN  UNK N   1      22.763  20.994   2.499  1.00  0.00     0.184 HD
HETATM    7  C   UNK N   1      26.784  19.104   4.073  0.00  0.00     0.020 A 
HETATM    8  C   UNK N   1      25.734  18.360   4.629  0.00  0.00     0.021 A 
HETATM    9  C   UNK N   1      24.388  18.726   4.320  0.00  0.00     0.052 A 
HETATM   10  C   UNK N   1      24.164  19.838   3.464  0.00  0.00     0.064 A 
HETATM   11  C   UNK N   1      25.238  20.567   2.952  0.00  0.00     0.031 A 
HETATM   12  C   UNK N   1      26.542  20.206   3.260  0.00  0.00     0.004 A 
HETATM   13  N   UNK N   1      20.533  19.887   3.176  0.00  0.00    -0.234 N 
HETATM   14  H   UNK N   1      20.362  20.632   2.556  0.00  0.00     0.174 HD
HETATM   15  H   UNK N   1      19.766  19.386   3.534  0.00  0.00     0.174 HD
ENDROOT
BRANCH   8  16
HETATM   16  S   UNK N   1      26.155  16.881   5.593  0.00  0.00    -0.090 SA
BRANCH  16  17
HETATM   17  C   UNK N   1      27.907  17.130   5.912  0.00  0.00     0.005 A 
HETATM   18  C   UNK N   1      28.871  16.591   5.057  0.00  0.00     0.021 A 
HETATM   19  C   UNK N   1      30.222  16.645   5.391  0.00  0.00     0.030 A 
HETATM   20  C   UNK N   1      30.632  17.206   6.611  0.00  0.00     0.030 A 
HETATM   21  C   UNK N   1      29.659  17.750   7.469  0.00  0.00     0.030 A 
HETATM   22  C   UNK N   1      28.305  17.713   7.119  0.00  0.00     0.021 A 
BRANCH  20  23
HETATM   23  N   UNK N   1      32.003  17.134   7.007  0.00  0.00    -0.377 N 
HETATM   24  C   UNK N   1      32.949  16.410   6.160  0.00  0.00     0.149 C 
HETATM   25  C   UNK N   1      34.405  16.632   6.578  0.00  0.00     0.187 C 
HETATM   26  O   UNK N   1      34.571  17.940   7.047  0.00  0.00    -0.388 OA
HETATM   27  C   UNK N   1      33.968  17.921   8.308  0.00  0.00     0.187 C 
HETATM   28  C   UNK N   1      32.453  17.947   8.136  0.00  0.00     0.149 C 
ENDBRANCH  20  23
ENDBRANCH  16  17
ENDBRANCH   8  16
BRANCH   1  29
HETATM   29  N   UNK N   1      23.324  16.938   5.666  0.00  0.00    -0.384 N 
HETATM   30  H   UNK N   1      24.157  16.692   6.129  0.00  0.00     0.157 HD
HETATM   31  H   UNK N   1      22.520  16.391   5.818  0.00  0.00     0.157 HD
ENDBRANCH   1  29
TORSDOF 4
ENDMDL
MODEL 5
REMARK VINA RESULT:      -7.2      3.135      4.950
REMARK  4 active torsions:
REMARK  status: ('A' for Active; 'I' for Inactive)
REMARK    1  A    between atoms: C_1  and  N_14 
REMARK       I    between atoms: C_4  and  N_13 
REMARK    2  A    between atoms: C_8  and  S_15 
REMARK    3  A    between atoms: S_15  and  C_16 
REMARK    4  A    between atoms: C_19  and  N_24 
ROOT
HETATM    1  C   UNK N   1      33.419  14.180   8.549  0.00  0.00     0.128 A 
HETATM    2  N   UNK N   1      33.686  13.682   9.782  0.00  0.00    -0.176 N 
ATOM      3  HN  UNK N   1      33.454  12.709   9.985  1.00  0.00     0.186 HD
HETATM    4  C   UNK N   1      34.250  14.441  10.753  0.00  0.00     0.677 A 
HETATM    5  N   UNK N   1      34.577  15.731  10.502  0.00  0.00    -0.191 N 
ATOM      6  HN  UNK N   1      35.011  16.290  11.236  1.00  0.00     0.184 HD
HETATM    7  C   UNK N   1      33.796  17.531   6.854  0.00  0.00     0.020 A 
HETATM    8  C   UNK N   1      33.461  16.179   7.006  0.00  0.00     0.021 A 
HETATM    9  C   UNK N   1      33.731  15.536   8.254  0.00  0.00     0.052 A 
HETATM   10  C   UNK N   1      34.338  16.293   9.292  0.00  0.00     0.064 A 
HETATM   11  C   UNK N   1      34.678  17.631   9.090  0.00  0.00     0.031 A 
HETATM   12  C   UNK N   1      34.414  18.246   7.874  0.00  0.00     0.004 A 
HETATM   13  N   UNK N   1      34.488  13.891  12.027  0.00  0.00    -0.234 N 
HETATM   14  H   UNK N   1      34.874  14.411  12.768  0.00  0.00     0.174 HD
HETATM   15  H   UNK N   1      34.259  12.947  12.182  0.00  0.00     0.174 HD
ENDROOT
BRANCH   8  16
HETATM   16  S   UNK N   1      32.566  15.365   5.654  0.00  0.00    -0.090 SA
BRANCH  16  17
HETATM   17  C   UNK N   1      30.999  16.247   5.659  0.00  0.00     0.005 A 
HETATM   18  C   UNK N   1      30.623  17.038   4.571  0.00  0.00     0.021 A 
HETATM   19  C   UNK N   1      29.491  17.847   4.643  0.00  0.00     0.030 A 
HETATM   20  C   UNK N   1      28.735  17.911   5.824  0.00  0.00     0.030 A 
HETATM   21  C   UNK N   1      29.116  17.112   6.918  0.00  0.00     0.030 A 
HETATM   22  C   UNK N   1      30.241  16.285   6.833  0.00  0.00     0.021 A 
BRANCH  20  23
HETATM   23  N   UNK N   1      27.659  18.843   5.935  0.00  0.00    -0.377 N 
HETATM   24  C   UNK N   1      27.723  19.882   6.961  0.00  0.00     0.149 C 
HETATM   25  C   UNK N   1      26.634  20.945   6.794  0.00  0.00     0.187 C 
HETATM   26  O   UNK N   1      26.383  21.160   5.435  0.00  0.00    -0.388 OA
HETATM   27  C   UNK N   1      25.664  20.028   5.045  0.00  0.00     0.187 C 
HETATM   28  C   UNK N   1      26.626  18.852   4.900  0.00  0.00     0.149 C 
ENDBRANCH  20  23
ENDBRANCH  16  17
ENDBRANCH   8  16
BRANCH   1  29
HETATM   29  N   UNK N   1      32.837  13.321   7.596  0.00  0.00    -0.384 N 
HETATM   30  H   UNK N   1      32.378  12.485   7.842  0.00  0.00     0.157 HD
HETATM   31  H   UNK N   1      32.890  13.567   6.644  0.00  0.00     0.157 HD
ENDBRANCH   1  29
TORSDOF 4
ENDMDL
MODEL 6
REMARK VINA RESULT:      -7.2      6.416     11.026
REMARK  4 active torsions:
REMARK  status: ('A' for Active; 'I' for Inactive)
REMARK    1  A    between atoms: C_1  and  N_14 
REMARK       I    between atoms: C_4  and  N_13 
REMARK    2  A    between atoms: C_8  and  S_15 
REMARK    3  A    between atoms: S_15  and  C_16 
REMARK    4  A    between atoms: C_19  and  N_24 
ROOT
HETATM    1  C   UNK N   1      32.409  16.855   5.108  0.00  0.00     0.128 A 
HETATM    2  N   UNK N   1      31.716  16.641   3.961  0.00  0.00    -0.176 N 
ATOM      3  HN  UNK N   1      32.225  16.387   3.114  1.00  0.00     0.186 HD
HETATM    4  C   UNK N   1      30.366  16.755   3.910  0.00  0.00     0.677 A 
HETATM    5  N   UNK N   1      29.670  17.078   5.026  0.00  0.00    -0.191 N 
ATOM      6  HN  UNK N   1      28.654  17.152   4.978  1.00  0.00     0.184 HD
HETATM    7  C   UNK N   1      31.537  17.870   8.637  0.00  0.00     0.020 A 
HETATM    8  C   UNK N   1      32.339  17.501   7.548  0.00  0.00     0.021 A 
HETATM    9  C   UNK N   1      31.713  17.214   6.295  0.00  0.00     0.052 A 
HETATM   10  C   UNK N   1      30.298  17.306   6.204  0.00  0.00     0.064 A 
HETATM   11  C   UNK N   1      29.536  17.653   7.320  0.00  0.00     0.031 A 
HETATM   12  C   UNK N   1      30.152  17.928   8.533  0.00  0.00     0.004 A 
HETATM   13  N   UNK N   1      29.689  16.547   2.694  0.00  0.00    -0.234 N 
HETATM   14  H   UNK N   1      28.713  16.642   2.604  0.00  0.00     0.174 HD
HETATM   15  H   UNK N   1      30.213  16.296   1.900  0.00  0.00     0.174 HD
ENDROOT
BRANCH   8  16
HETATM   16  S   UNK N   1      34.140  17.555   7.758  0.00  0.00    -0.090 SA
BRANCH  16  17
HETATM   17  C   UNK N   1      34.371  16.563   9.240  0.00  0.00     0.005 A 
HETATM   18  C   UNK N   1      35.220  16.994  10.262  0.00  0.00     0.021 A 
HETATM   19  C   UNK N   1      35.524  16.154  11.330  0.00  0.00     0.030 A 
HETATM   20  C   UNK N   1      35.015  14.846  11.377  0.00  0.00     0.030 A 
HETATM   21  C   UNK N   1      34.158  14.415  10.346  0.00  0.00     0.030 A 
HETATM   22  C   UNK N   1      33.838  15.271   9.287  0.00  0.00     0.021 A 
BRANCH  20  23
HETATM   23  N   UNK N   1      35.440  13.948  12.402  0.00  0.00    -0.377 N 
HETATM   24  C   UNK N   1      36.220  14.469  13.523  0.00  0.00     0.149 C 
HETATM   25  C   UNK N   1      36.384  13.449  14.653  0.00  0.00     0.187 C 
HETATM   26  O   UNK N   1      35.227  12.670  14.761  0.00  0.00    -0.388 OA
HETATM   27  C   UNK N   1      35.299  11.811  13.662  0.00  0.00     0.187 C 
HETATM   28  C   UNK N   1      34.919  12.581  12.402  0.00  0.00     0.149 C 
ENDBRANCH  20  23
ENDBRANCH  16  17
ENDBRANCH   8  16
BRANCH   1  29
HETATM   29  N   UNK N   1      33.810  16.709   5.076  0.00  0.00    -0.384 N 
HETATM   30  H   UNK N   1      34.427  17.426   5.351  0.00  0.00     0.157 HD
HETATM   31  H   UNK N   1      34.189  15.854   4.765  0.00  0.00     0.157 HD
ENDBRANCH   1  29
TORSDOF 4
ENDMDL
MODEL 7
REMARK VINA RESULT:      -7.1      4.490      7.042
REMARK  4 active torsions:
REMARK  status: ('A' for Active; 'I' for Inactive)
REMARK    1  A    between atoms: C_1  and  N_14 
REMARK       I    between atoms: C_4  and  N_13 
REMARK    2  A    between atoms: C_8  and  S_15 
REMARK    3  A    between atoms: S_15  and  C_16 
REMARK    4  A    between atoms: C_19  and  N_24 
ROOT
HETATM    1  C   UNK N   1      35.590  15.956  10.597  0.00  0.00     0.128 A 
HETATM    2  N   UNK N   1      36.166  15.331  11.654  0.00  0.00    -0.176 N 
ATOM      3  HN  UNK N   1      36.306  15.849  12.521  1.00  0.00     0.186 HD
HETATM    4  C   UNK N   1      36.563  14.036  11.588  0.00  0.00     0.677 A 
HETATM    5  N   UNK N   1      36.377  13.326  10.451  0.00  0.00    -0.191 N 
ATOM      6  HN  UNK N   1      36.670  12.350  10.416  1.00  0.00     0.184 HD
HETATM    7  C   UNK N   1      34.722  15.010   7.048  0.00  0.00     0.020 A 
HETATM    8  C   UNK N   1      34.835  15.813   8.191  0.00  0.00     0.021 A 
HETATM    9  C   UNK N   1      35.394  15.248   9.380  0.00  0.00     0.052 A 
HETATM   10  C   UNK N   1      35.808  13.888   9.357  0.00  0.00     0.064 A 
HETATM   11  C   UNK N   1      35.654  13.118   8.205  0.00  0.00     0.031 A 
HETATM   12  C   UNK N   1      35.107  13.675   7.056  0.00  0.00     0.004 A 
HETATM   13  N   UNK N   1      37.179  13.433  12.701  0.00  0.00    -0.234 N 
HETATM   14  H   UNK N   1      37.503  12.504  12.692  0.00  0.00     0.174 HD
HETATM   15  H   UNK N   1      37.288  13.963  13.523  0.00  0.00     0.174 HD
ENDROOT
BRANCH   8  16
HETATM   16  S   UNK N   1      34.399  17.568   8.048  0.00  0.00    -0.090 SA
BRANCH  16  17
HETATM   17  C   UNK N   1      33.012  17.515   6.905  0.00  0.00     0.005 A 
HETATM   18  C   UNK N   1      31.732  17.177   7.352  0.00  0.00     0.021 A 
HETATM   19  C   UNK N   1      30.696  16.978   6.442  0.00  0.00     0.030 A 
HETATM   20  C   UNK N   1      30.931  17.074   5.061  0.00  0.00     0.030 A 
HETATM   21  C   UNK N   1      32.221  17.417   4.615  0.00  0.00     0.030 A 
HETATM   22  C   UNK N   1      33.253  17.637   5.533  0.00  0.00     0.021 A 
BRANCH  20  23
HETATM   23  N   UNK N   1      29.899  16.735   4.134  0.00  0.00    -0.377 N 
HETATM   24  C   UNK N   1      30.160  15.711   3.124  0.00  0.00     0.149 C 
HETATM   25  C   UNK N   1      28.895  15.284   2.377  0.00  0.00     0.187 C 
HETATM   26  O   UNK N   1      27.798  15.306   3.245  0.00  0.00    -0.388 OA
HETATM   27  C   UNK N   1      27.526  16.668   3.402  0.00  0.00     0.187 C 
HETATM   28  C   UNK N   1      28.557  17.277   4.346  0.00  0.00     0.149 C 
ENDBRANCH  20  23
ENDBRANCH  16  17
ENDBRANCH   8  16
BRANCH   1  29
HETATM   29  N   UNK N   1      35.201  17.302  10.751  0.00  0.00    -0.384 N 
HETATM   30  H   UNK N   1      34.924  17.867   9.994  0.00  0.00     0.157 HD
HETATM   31  H   UNK N   1      35.206  17.694  11.654  0.00  0.00     0.157 HD
ENDBRANCH   1  29
TORSDOF 4
ENDMDL
MODEL 8
REMARK VINA RESULT:      -7.0      3.525      6.233
REMARK  4 active torsions:
REMARK  status: ('A' for Active; 'I' for Inactive)
REMARK    1  A    between atoms: C_1  and  N_14 
REMARK       I    between atoms: C_4  and  N_13 
REMARK    2  A    between atoms: C_8  and  S_15 
REMARK    3  A    between atoms: S_15  and  C_16 
REMARK    4  A    between atoms: C_19  and  N_24 
ROOT
HETATM    1  C   UNK N   1      35.323  15.856  10.946  0.00  0.00     0.128 A 
HETATM    2  N   UNK N   1      36.146  15.335  11.889  0.00  0.00    -0.176 N 
ATOM      3  HN  UNK N   1      36.687  15.967  12.480  1.00  0.00     0.186 HD
HETATM    4  C   UNK N   1      36.271  13.997  12.068  0.00  0.00     0.677 A 
HETATM    5  N   UNK N   1      35.554  13.140  11.303  0.00  0.00    -0.191 N 
ATOM      6  HN  UNK N   1      35.648  12.135  11.453  1.00  0.00     0.184 HD
HETATM    7  C   UNK N   1      33.032  14.457   8.293  0.00  0.00     0.020 A 
HETATM    8  C   UNK N   1      33.700  15.420   9.060  0.00  0.00     0.021 A 
HETATM    9  C   UNK N   1      34.567  14.987  10.111  0.00  0.00     0.052 A 
HETATM   10  C   UNK N   1      34.713  13.592  10.342  0.00  0.00     0.064 A 
HETATM   11  C   UNK N   1      34.010  12.668   9.569  0.00  0.00     0.031 A 
HETATM   12  C   UNK N   1      33.167  13.098   8.553  0.00  0.00     0.004 A 
HETATM   13  N   UNK N   1      37.155  13.497  13.043  0.00  0.00    -0.234 N 
HETATM   14  H   UNK N   1      37.295  12.535  13.191  0.00  0.00     0.174 HD
HETATM   15  H   UNK N   1      37.653  14.138  13.599  0.00  0.00     0.174 HD
ENDROOT
BRANCH   8  16
HETATM   16  S   UNK N   1      33.536  17.161   8.576  0.00  0.00    -0.090 SA
BRANCH  16  17
HETATM   17  C   UNK N   1      31.941  17.167   7.744  0.00  0.00     0.005 A 
HETATM   18  C   UNK N   1      31.863  17.076   6.352  0.00  0.00     0.021 A 
HETATM   19  C   UNK N   1      30.643  17.245   5.701  0.00  0.00     0.030 A 
HETATM   20  C   UNK N   1      29.482  17.548   6.429  0.00  0.00     0.030 A 
HETATM   21  C   UNK N   1      29.564  17.637   7.831  0.00  0.00     0.030 A 
HETATM   22  C   UNK N   1      30.787  17.445   8.483  0.00  0.00     0.021 A 
BRANCH  20  23
HETATM   23  N   UNK N   1      28.266  17.853   5.744  0.00  0.00    -0.377 N 
HETATM   24  C   UNK N   1      28.237  18.988   4.823  0.00  0.00     0.149 C 
HETATM   25  C   UNK N   1      26.956  19.035   3.985  0.00  0.00     0.187 C 
HETATM   26  O   UNK N   1      26.536  17.734   3.685  0.00  0.00    -0.388 OA
HETATM   27  C   UNK N   1      26.007  17.268   4.891  0.00  0.00     0.187 C 
HETATM   28  C   UNK N   1      27.152  16.910   5.833  0.00  0.00     0.149 C 
ENDBRANCH  20  23
ENDBRANCH  16  17
ENDBRANCH   8  16
BRANCH   1  29
HETATM   29  N   UNK N   1      35.247  17.259  10.830  0.00  0.00    -0.384 N 
HETATM   30  H   UNK N   1      34.674  17.811  11.410  0.00  0.00     0.157 HD
HETATM   31  H   UNK N   1      35.790  17.705  10.141  0.00  0.00     0.157 HD
ENDBRANCH   1  29
TORSDOF 4
ENDMDL
MODEL 9
REMARK VINA RESULT:      -7.0      4.860     10.159
REMARK  4 active torsions:
REMARK  status: ('A' for Active; 'I' for Inactive)
REMARK    1  A    between atoms: C_1  and  N_14 
REMARK       I    between atoms: C_4  and  N_13 
REMARK    2  A    between atoms: C_8  and  S_15 
REMARK    3  A    between atoms: S_15  and  C_16 
REMARK    4  A    between atoms: C_19  and  N_24 
ROOT
HETATM    1  C   UNK N   1      29.013  17.952   5.233  0.00  0.00     0.128 A 
HETATM    2  N   UNK N   1      27.835  18.468   4.803  0.00  0.00    -0.176 N 
ATOM      3  HN  UNK N   1      27.626  18.465   3.804  1.00  0.00     0.186 HD
HETATM    4  C   UNK N   1      26.926  18.989   5.663  0.00  0.00     0.677 A 
HETATM    5  N   UNK N   1      27.176  18.992   6.994  0.00  0.00    -0.191 N 
ATOM      6  HN  UNK N   1      26.481  19.378   7.634  1.00  0.00     0.184 HD
HETATM    7  C   UNK N   1      30.728  17.561   8.572  0.00  0.00     0.020 A 
HETATM    8  C   UNK N   1      30.542  17.476   7.186  0.00  0.00     0.021 A 
HETATM    9  C   UNK N   1      29.319  17.955   6.622  0.00  0.00     0.052 A 
HETATM   10  C   UNK N   1      28.333  18.494   7.493  0.00  0.00     0.064 A 
HETATM   11  C   UNK N   1      28.549  18.537   8.870  0.00  0.00     0.031 A 
HETATM   12  C   UNK N   1      29.739  18.067   9.409  0.00  0.00     0.004 A 
HETATM   13  N   UNK N   1      25.725  19.536   5.173  0.00  0.00    -0.234 N 
HETATM   14  H   UNK N   1      25.048  19.945   5.757  0.00  0.00     0.174 HD
HETATM   15  H   UNK N   1      25.556  19.506   4.203  0.00  0.00     0.174 HD
ENDROOT
BRANCH   8  16
HETATM   16  S   UNK N   1      31.931  16.896   6.173  0.00  0.00    -0.090 SA
BRANCH  16  17
HETATM   17  C   UNK N   1      32.959  16.064   7.392  0.00  0.00     0.005 A 
HETATM   18  C   UNK N   1      32.579  14.828   7.920  0.00  0.00     0.021 A 
HETATM   19  C   UNK N   1      33.288  14.265   8.978  0.00  0.00     0.030 A 
HETATM   20  C   UNK N   1      34.370  14.948   9.556  0.00  0.00     0.030 A 
HETATM   21  C   UNK N   1      34.750  16.192   9.020  0.00  0.00     0.030 A 
HETATM   22  C   UNK N   1      34.049  16.744   7.943  0.00  0.00     0.021 A 
BRANCH  20  23
HETATM   23  N   UNK N   1      35.004  14.427  10.725  0.00  0.00    -0.377 N 
HETATM   24  C   UNK N   1      35.590  15.357  11.689  0.00  0.00     0.149 C 
HETATM   25  C   UNK N   1      36.003  14.672  12.994  0.00  0.00     0.187 C 
HETATM   26  O   UNK N   1      35.101  13.647  13.300  0.00  0.00    -0.388 OA
HETATM   27  C   UNK N   1      35.426  12.635  12.394  0.00  0.00     0.187 C 
HETATM   28  C   UNK N   1      34.875  13.000  11.019  0.00  0.00     0.149 C 
ENDBRANCH  20  23
ENDBRANCH  16  17
ENDBRANCH   8  16
BRANCH   1  29
HETATM   29  N   UNK N   1      29.899  17.425   4.272  0.00  0.00    -0.384 N 
HETATM   30  H   UNK N   1      30.284  16.521   4.342  0.00  0.00     0.157 HD
HETATM   31  H   UNK N   1      30.143  17.983   3.499  0.00  0.00     0.157 HD
ENDBRANCH   1  29
TORSDOF 4
ENDMDL
