REMARK  3 active torsions:
REMARK  status: ('A' for Active; 'I' for Inactive)
REMARK       I    between atoms: C_1  and  N_17 
REMARK    1  A    between atoms: C_2  and  N_19 
REMARK    2  A    between atoms: C_4  and  C_7 
REMARK    3  A    between atoms: C_7  and  N_22 
ROOT
HETATM    1  C   UNK N   1       1.471   4.425   0.206  0.00  0.00     0.274 C 
HETATM    2  C   UNK N   1      -0.891   3.947   0.357  0.00  0.00     0.179 C 
HETATM    3  C   UNK N   1      -0.775   2.624  -0.418  0.00  0.00     0.050 C 
HETATM    4  C   UNK N   1      -1.387   0.149  -0.438  0.00  0.00     0.014 C 
HETATM    5  C   UNK N   1      -0.156   0.090  -1.369  0.00  0.00     0.008 C 
HETATM    6  C   UNK N   1       0.729   2.307  -0.691  0.00  0.00     0.088 C 
HETATM    7  N   UNK N   1       1.576   2.954   0.313  0.00  0.00    -0.382 N 
HETATM    8  N   UNK N   1       2.415   4.909  -0.787  0.00  0.00    -0.395 N 
HETATM    9  N   UNK N   1       0.108   4.885  -0.156  0.00  0.00    -0.366 N 
HETATM   10  C   UNK N   1      -1.461   1.478   0.345  0.00  0.00     0.017 C 
HETATM   11  C   UNK N   1       1.023   0.807  -0.734  0.00  0.00     0.026 C 
HETATM   12  H   UNK N   1       2.157   2.459   0.991  0.00  0.00     0.157 HD
HETATM   13  H   UNK N   1       3.040   4.505  -1.485  0.00  0.00     0.153 HD
HETATM   14  H   UNK N   1       2.466   5.928  -0.787  0.00  0.00     0.153 HD
HETATM   15  H   UNK N   1      -0.102   5.731  -0.685  0.00  0.00     0.159 HD
ENDROOT
BRANCH   4  16
HETATM   16  C   UNK N   1      -1.368  -1.011   0.557  0.00  0.00     0.277 C 
BRANCH  16  17
HETATM   17  N   UNK N   1      -1.084  -2.261  -0.143  0.00  0.00     0.093 N 
HETATM   18  C   UNK N   1      -2.195  -3.210  -0.030  0.00  0.00     0.273 C 
HETATM   19  C   UNK N   1      -1.572  -4.613   0.077  0.00  0.00     0.037 C 
HETATM   20  C   UNK N   1      -0.096  -4.346  -0.117  0.00  0.00     0.021 C 
HETATM   21  C   UNK N   1       0.033  -2.967   0.466  0.00  0.00     0.227 C 
HETATM   22  C   UNK N   1       0.851  -5.323   0.580  0.00  0.00     0.007 C 
HETATM   23  C   UNK N   1       1.401  -2.367   0.118  0.00  0.00     0.036 C 
HETATM   24  C   UNK N   1       2.532  -3.415   0.104  0.00  0.00     0.002 C 
HETATM   25  C   UNK N   1       2.215  -4.682   0.916  0.00  0.00     0.001 C 
ENDBRANCH  16  17
ENDBRANCH   4  16
BRANCH   2  26
HETATM   26  N   UNK N   1      -2.225   4.507   0.212  0.00  0.00    -0.410 N 
HETATM   27  H   UNK N   1      -2.353   5.514   0.111  0.00  0.00     0.151 HD
HETATM   28  H   UNK N   1      -3.037   3.889   0.212  0.00  0.00     0.151 HD
ENDBRANCH   2  26
TORSDOF 3
