MODEL 1
REMARK VINA RESULT:      -6.8      0.000      0.000
REMARK  3 active torsions:
REMARK  status: ('A' for Active; 'I' for Inactive)
REMARK       I    between atoms: C_1  and  N_17 
REMARK    1  A    between atoms: C_2  and  N_19 
REMARK    2  A    between atoms: C_4  and  C_7 
REMARK    3  A    between atoms: C_7  and  N_22 
ROOT
HETATM    1  C   UNK N   1      34.819  16.981   9.100  0.00  0.00     0.274 C 
HETATM    2  C   UNK N   1      33.929  15.449   7.459  0.00  0.00     0.179 C 
HETATM    3  C   UNK N   1      32.471  15.861   7.719  0.00  0.00     0.050 C 
HETATM    4  C   UNK N   1      30.274  16.578   6.640  0.00  0.00     0.014 C 
HETATM    5  C   UNK N   1      30.047  17.176   8.046  0.00  0.00     0.008 C 
HETATM    6  C   UNK N   1      32.435  17.065   8.712  0.00  0.00     0.088 C 
HETATM    7  N   UNK N   1      33.689  17.818   8.644  0.00  0.00    -0.382 N 
HETATM    8  N   UNK N   1      34.938  17.068  10.545  0.00  0.00    -0.395 N 
HETATM    9  N   UNK N   1      34.681  15.556   8.710  0.00  0.00    -0.366 N 
HETATM   10  C   UNK N   1      31.752  16.199   6.401  0.00  0.00     0.017 C 
HETATM   11  C   UNK N   1      31.250  18.000   8.472  0.00  0.00     0.026 C 
HETATM   12  H   UNK N   1      33.771  18.785   8.327  0.00  0.00     0.157 HD
HETATM   13  H   UNK N   1      34.399  17.460  11.318  0.00  0.00     0.153 HD
HETATM   14  H   UNK N   1      35.789  16.615  10.878  0.00  0.00     0.153 HD
HETATM   15  H   UNK N   1      35.055  14.767   9.236  0.00  0.00     0.159 HD
ENDROOT
BRANCH   4  16
HETATM   16  C   UNK N   1      29.835  17.563   5.557  0.00  0.00     0.277 C 
BRANCH  16  17
HETATM   17  N   UNK N   1      28.376  17.619   5.499  0.00  0.00     0.093 N 
HETATM   18  C   UNK N   1      27.857  16.977   4.288  0.00  0.00     0.273 C 
HETATM   19  C   UNK N   1      26.634  17.797   3.841  0.00  0.00     0.037 C 
HETATM   20  C   UNK N   1      26.477  18.809   4.954  0.00  0.00     0.021 C 
HETATM   21  C   UNK N   1      27.903  18.990   5.391  0.00  0.00     0.227 C 
HETATM   22  C   UNK N   1      25.857  20.147   4.550  0.00  0.00     0.007 C 
HETATM   23  C   UNK N   1      27.961  19.765   6.713  0.00  0.00     0.036 C 
HETATM   24  C   UNK N   1      26.873  20.853   6.822  0.00  0.00     0.002 C 
HETATM   25  C   UNK N   1      26.310  21.306   5.464  0.00  0.00     0.001 C 
ENDBRANCH  16  17
ENDBRANCH   4  16
BRANCH   2  26
HETATM   26  N   UNK N   1      33.992  14.088   6.952  0.00  0.00    -0.410 N 
HETATM   27  H   UNK N   1      33.760  13.301   7.559  0.00  0.00     0.151 HD
HETATM   28  H   UNK N   1      34.269  13.919   5.985  0.00  0.00     0.151 HD
ENDBRANCH   2  26
TORSDOF 3
ENDMDL
MODEL 2
REMARK VINA RESULT:      -6.7     11.303     13.509
REMARK  3 active torsions:
REMARK  status: ('A' for Active; 'I' for Inactive)
REMARK       I    between atoms: C_1  and  N_17 
REMARK    1  A    between atoms: C_2  and  N_19 
REMARK    2  A    between atoms: C_4  and  C_7 
REMARK    3  A    between atoms: C_7  and  N_22 
ROOT
HETATM    1  C   UNK N   1      32.905  20.502  -4.612  0.00  0.00     0.274 C 
HETATM    2  C   UNK N   1      30.844  20.940  -5.791  0.00  0.00     0.179 C 
HETATM    3  C   UNK N   1      30.154  21.553  -4.561  0.00  0.00     0.050 C 
HETATM    4  C   UNK N   1      28.800  23.529  -3.689  0.00  0.00     0.014 C 
HETATM    5  C   UNK N   1      29.396  23.047  -2.348  0.00  0.00     0.008 C 
HETATM    6  C   UNK N   1      31.179  21.671  -3.390  0.00  0.00     0.088 C 
HETATM    7  N   UNK N   1      32.543  21.755  -3.914  0.00  0.00    -0.382 N 
HETATM    8  N   UNK N   1      33.418  19.540  -3.651  0.00  0.00    -0.395 N 
HETATM    9  N   UNK N   1      31.767  19.896  -5.345  0.00  0.00    -0.366 N 
HETATM   10  C   UNK N   1      29.531  22.917  -4.903  0.00  0.00     0.017 C 
HETATM   11  C   UNK N   1      30.899  22.862  -2.472  0.00  0.00     0.026 C 
HETATM   12  H   UNK N   1      33.158  22.563  -3.812  0.00  0.00     0.157 HD
HETATM   13  H   UNK N   1      33.495  19.465  -2.637  0.00  0.00     0.153 HD
HETATM   14  H   UNK N   1      33.804  18.719  -4.116  0.00  0.00     0.153 HD
HETATM   15  H   UNK N   1      31.645  18.897  -5.512  0.00  0.00     0.159 HD
ENDROOT
BRANCH   4  16
HETATM   16  C   UNK N   1      28.862  25.053  -3.790  0.00  0.00     0.277 C 
BRANCH  16  17
HETATM   17  N   UNK N   1      27.569  25.575  -4.224  0.00  0.00     0.093 N 
HETATM   18  C   UNK N   1      26.495  24.597  -4.023  0.00  0.00     0.273 C 
HETATM   19  C   UNK N   1      25.521  24.758  -5.203  0.00  0.00     0.037 C 
HETATM   20  C   UNK N   1      26.080  25.952  -5.945  0.00  0.00     0.021 C 
HETATM   21  C   UNK N   1      27.548  25.816  -5.658  0.00  0.00     0.227 C 
HETATM   22  C   UNK N   1      25.819  25.976  -7.452  0.00  0.00     0.007 C 
HETATM   23  C   UNK N   1      28.293  27.090  -6.077  0.00  0.00     0.036 C 
HETATM   24  C   UNK N   1      27.712  27.736  -7.350  0.00  0.00     0.002 C 
HETATM   25  C   UNK N   1      26.898  26.767  -8.223  0.00  0.00     0.001 C 
ENDBRANCH  16  17
ENDBRANCH   4  16
BRANCH   2  26
HETATM   26  N   UNK N   1      29.859  20.381  -6.703  0.00  0.00    -0.410 N 
HETATM   27  H   UNK N   1      29.698  20.811  -7.614  0.00  0.00     0.151 HD
HETATM   28  H   UNK N   1      29.326  19.556  -6.429  0.00  0.00     0.151 HD
ENDBRANCH   2  26
TORSDOF 3
ENDMDL
MODEL 3
REMARK VINA RESULT:      -6.5      1.719      2.765
REMARK  3 active torsions:
REMARK  status: ('A' for Active; 'I' for Inactive)
REMARK       I    between atoms: C_1  and  N_17 
REMARK    1  A    between atoms: C_2  and  N_19 
REMARK    2  A    between atoms: C_4  and  C_7 
REMARK    3  A    between atoms: C_7  and  N_22 
ROOT
HETATM    1  C   UNK N   1      32.378  14.679   8.901  0.00  0.00     0.274 C 
HETATM    2  C   UNK N   1      31.061  16.690   8.673  0.00  0.00     0.179 C 
HETATM    3  C   UNK N   1      31.488  16.925   7.215  0.00  0.00     0.050 C 
HETATM    4  C   UNK N   1      30.675  17.431   4.852  0.00  0.00     0.014 C 
HETATM    5  C   UNK N   1      32.027  16.774   4.495  0.00  0.00     0.008 C 
HETATM    6  C   UNK N   1      32.340  15.715   6.718  0.00  0.00     0.088 C 
HETATM    7  N   UNK N   1      32.007  14.510   7.480  0.00  0.00    -0.382 N 
HETATM    8  N   UNK N   1      33.772  14.315   9.087  0.00  0.00    -0.395 N 
HETATM    9  N   UNK N   1      32.168  16.062   9.395  0.00  0.00    -0.366 N 
HETATM   10  C   UNK N   1      30.262  17.156   6.314  0.00  0.00     0.017 C 
HETATM   11  C   UNK N   1      32.179  15.448   5.221  0.00  0.00     0.026 C 
HETATM   12  H   UNK N   1      31.579  13.671   7.085  0.00  0.00     0.157 HD
HETATM   13  H   UNK N   1      34.569  14.079   8.495  0.00  0.00     0.153 HD
HETATM   14  H   UNK N   1      34.022  14.288  10.075  0.00  0.00     0.153 HD
HETATM   15  H   UNK N   1      32.716  16.509  10.130  0.00  0.00     0.159 HD
ENDROOT
BRANCH   4  16
HETATM   16  C   UNK N   1      29.569  16.930   3.923  0.00  0.00     0.277 C 
BRANCH  16  17
HETATM   17  N   UNK N   1      28.271  17.067   4.578  0.00  0.00     0.093 N 
HETATM   18  C   UNK N   1      27.427  15.889   4.359  0.00  0.00     0.273 C 
HETATM   19  C   UNK N   1      25.981  16.398   4.220  0.00  0.00     0.037 C 
HETATM   20  C   UNK N   1      26.112  17.877   4.508  0.00  0.00     0.021 C 
HETATM   21  C   UNK N   1      27.498  18.155   3.999  0.00  0.00     0.227 C 
HETATM   22  C   UNK N   1      25.087  18.779   3.819  0.00  0.00     0.007 C 
HETATM   23  C   UNK N   1      27.963  19.545   4.449  0.00  0.00     0.036 C 
HETATM   24  C   UNK N   1      26.822  20.582   4.476  0.00  0.00     0.002 C 
HETATM   25  C   UNK N   1      25.623  20.209   3.589  0.00  0.00     0.001 C 
ENDBRANCH  16  17
ENDBRANCH   4  16
BRANCH   2  26
HETATM   26  N   UNK N   1      30.700  17.949   9.307  0.00  0.00    -0.410 N 
HETATM   27  H   UNK N   1      29.847  18.020   9.861  0.00  0.00     0.151 HD
HETATM   28  H   UNK N   1      31.304  18.764   9.195  0.00  0.00     0.151 HD
ENDBRANCH   2  26
TORSDOF 3
ENDMDL
MODEL 4
REMARK VINA RESULT:      -6.5      9.741     12.368
REMARK  3 active torsions:
REMARK  status: ('A' for Active; 'I' for Inactive)
REMARK       I    between atoms: C_1  and  N_17 
REMARK    1  A    between atoms: C_2  and  N_19 
REMARK    2  A    between atoms: C_4  and  C_7 
REMARK    3  A    between atoms: C_7  and  N_22 
ROOT
HETATM    1  C   UNK N   1      20.062  16.956   0.809  0.00  0.00     0.274 C 
HETATM    2  C   UNK N   1      20.490  18.292   2.774  0.00  0.00     0.179 C 
HETATM    3  C   UNK N   1      19.930  17.234   3.739  0.00  0.00     0.050 C 
HETATM    4  C   UNK N   1      20.360  15.915   5.878  0.00  0.00     0.014 C 
HETATM    5  C   UNK N   1      19.348  14.955   5.215  0.00  0.00     0.008 C 
HETATM    6  C   UNK N   1      19.583  15.934   2.947  0.00  0.00     0.088 C 
HETATM    7  N   UNK N   1      20.394  15.848   1.730  0.00  0.00    -0.382 N 
HETATM    8  N   UNK N   1      18.926  16.579  -0.016  0.00  0.00    -0.395 N 
HETATM    9  N   UNK N   1      19.749  18.223   1.514  0.00  0.00    -0.366 N 
HETATM   10  C   UNK N   1      20.923  16.949   4.878  0.00  0.00     0.017 C 
HETATM   11  C   UNK N   1      19.756  14.664   3.781  0.00  0.00     0.026 C 
HETATM   12  H   UNK N   1      21.090  15.125   1.545  0.00  0.00     0.157 HD
HETATM   13  H   UNK N   1      18.251  15.815  -0.056  0.00  0.00     0.153 HD
HETATM   14  H   UNK N   1      18.759  17.263  -0.754  0.00  0.00     0.153 HD
HETATM   15  H   UNK N   1      19.111  18.941   1.171  0.00  0.00     0.159 HD
ENDROOT
BRANCH   4  16
HETATM   16  C   UNK N   1      21.522  15.135   6.491  0.00  0.00     0.277 C 
BRANCH  16  17
HETATM   17  N   UNK N   1      21.017  14.183   7.476  0.00  0.00     0.093 N 
HETATM   18  C   UNK N   1      20.273  14.854   8.546  0.00  0.00     0.273 C 
HETATM   19  C   UNK N   1      20.577  14.088   9.846  0.00  0.00     0.037 C 
HETATM   20  C   UNK N   1      21.408  12.919   9.367  0.00  0.00     0.021 C 
HETATM   21  C   UNK N   1      22.105  13.520   8.179  0.00  0.00     0.227 C 
HETATM   22  C   UNK N   1      22.420  12.369  10.372  0.00  0.00     0.007 C 
HETATM   23  C   UNK N   1      22.792  12.425   7.353  0.00  0.00     0.036 C 
HETATM   24  C   UNK N   1      23.374  11.292   8.222  0.00  0.00     0.002 C 
HETATM   25  C   UNK N   1      23.628  11.697   9.683  0.00  0.00     0.001 C 
ENDBRANCH  16  17
ENDBRANCH   4  16
BRANCH   2  26
HETATM   26  N   UNK N   1      20.372  19.621   3.352  0.00  0.00    -0.410 N 
HETATM   27  H   UNK N   1      21.104  19.984   3.963  0.00  0.00     0.151 HD
HETATM   28  H   UNK N   1      19.553  20.193   3.145  0.00  0.00     0.151 HD
ENDBRANCH   2  26
TORSDOF 3
ENDMDL
MODEL 5
REMARK VINA RESULT:      -6.4      1.943      7.892
REMARK  3 active torsions:
REMARK  status: ('A' for Active; 'I' for Inactive)
REMARK       I    between atoms: C_1  and  N_17 
REMARK    1  A    between atoms: C_2  and  N_19 
REMARK    2  A    between atoms: C_4  and  C_7 
REMARK    3  A    between atoms: C_7  and  N_22 
ROOT
HETATM    1  C   UNK N   1      27.565  19.607   5.052  0.00  0.00     0.274 C 
HETATM    2  C   UNK N   1      28.138  18.950   7.304  0.00  0.00     0.179 C 
HETATM    3  C   UNK N   1      28.781  17.625   6.861  0.00  0.00     0.050 C 
HETATM    4  C   UNK N   1      30.829  16.120   7.066  0.00  0.00     0.014 C 
HETATM    5  C   UNK N   1      30.299  15.605   5.710  0.00  0.00     0.008 C 
HETATM    6  C   UNK N   1      28.826  17.561   5.302  0.00  0.00     0.088 C 
HETATM    7  N   UNK N   1      28.831  18.911   4.736  0.00  0.00    -0.382 N 
HETATM    8  N   UNK N   1      26.566  19.277   4.050  0.00  0.00    -0.395 N 
HETATM    9  N   UNK N   1      27.036  19.268   6.396  0.00  0.00    -0.366 N 
HETATM   10  C   UNK N   1      30.184  17.464   7.471  0.00  0.00     0.017 C 
HETATM   11  C   UNK N   1      30.023  16.769   4.773  0.00  0.00     0.026 C 
HETATM   12  H   UNK N   1      29.600  19.315   4.199  0.00  0.00     0.157 HD
HETATM   13  H   UNK N   1      26.476  18.629   3.267  0.00  0.00     0.153 HD
HETATM   14  H   UNK N   1      25.726  19.846   4.160  0.00  0.00     0.153 HD
HETATM   15  H   UNK N   1      26.049  19.258   6.649  0.00  0.00     0.159 HD
ENDROOT
BRANCH   4  16
HETATM   16  C   UNK N   1      32.347  16.293   7.023  0.00  0.00     0.277 C 
BRANCH  16  17
HETATM   17  N   UNK N   1      32.894  16.211   8.375  0.00  0.00     0.093 N 
HETATM   18  C   UNK N   1      33.668  17.407   8.719  0.00  0.00     0.273 C 
HETATM   19  C   UNK N   1      34.850  16.937   9.585  0.00  0.00     0.037 C 
HETATM   20  C   UNK N   1      34.570  15.463   9.774  0.00  0.00     0.021 C 
HETATM   21  C   UNK N   1      33.862  15.131   8.490  0.00  0.00     0.227 C 
HETATM   22  C   UNK N   1      35.799  14.574   9.964  0.00  0.00     0.007 C 
HETATM   23  C   UNK N   1      33.222  13.740   8.578  0.00  0.00     0.036 C 
HETATM   24  C   UNK N   1      34.069  12.738   9.389  0.00  0.00     0.002 C 
HETATM   25  C   UNK N   1      35.554  13.123   9.495  0.00  0.00     0.001 C 
ENDBRANCH  16  17
ENDBRANCH   4  16
BRANCH   2  26
HETATM   26  N   UNK N   1      27.649  18.848   8.669  0.00  0.00    -0.410 N 
HETATM   27  H   UNK N   1      26.890  19.449   8.991  0.00  0.00     0.151 HD
HETATM   28  H   UNK N   1      28.068  18.171   9.308  0.00  0.00     0.151 HD
ENDBRANCH   2  26
TORSDOF 3
ENDMDL
MODEL 6
REMARK VINA RESULT:      -6.3      3.401      5.190
REMARK  3 active torsions:
REMARK  status: ('A' for Active; 'I' for Inactive)
REMARK       I    between atoms: C_1  and  N_17 
REMARK    1  A    between atoms: C_2  and  N_19 
REMARK    2  A    between atoms: C_4  and  C_7 
REMARK    3  A    between atoms: C_7  and  N_22 
ROOT
HETATM    1  C   UNK N   1      38.353  13.556  10.032  0.00  0.00     0.274 C 
HETATM    2  C   UNK N   1      36.870  13.428   8.131  0.00  0.00     0.179 C 
HETATM    3  C   UNK N   1      35.738  14.194   8.835  0.00  0.00     0.050 C 
HETATM    4  C   UNK N   1      34.062  16.105   8.633  0.00  0.00     0.014 C 
HETATM    5  C   UNK N   1      34.130  16.020  10.174  0.00  0.00     0.008 C 
HETATM    6  C   UNK N   1      36.239  14.712  10.220  0.00  0.00     0.088 C 
HETATM    7  N   UNK N   1      37.695  14.868  10.209  0.00  0.00    -0.382 N 
HETATM    8  N   UNK N   1      38.511  12.913  11.325  0.00  0.00    -0.395 N 
HETATM    9  N   UNK N   1      37.605  12.649   9.127  0.00  0.00    -0.366 N 
HETATM   10  C   UNK N   1      35.225  15.348   7.956  0.00  0.00     0.017 C 
HETATM   11  C   UNK N   1      35.576  16.025  10.640  0.00  0.00     0.026 C 
HETATM   12  H   UNK N   1      38.186  15.758  10.309  0.00  0.00     0.157 HD
HETATM   13  H   UNK N   1      38.204  13.075  12.284  0.00  0.00     0.153 HD
HETATM   14  H   UNK N   1      39.083  12.071  11.255  0.00  0.00     0.153 HD
HETATM   15  H   UNK N   1      37.604  11.631   9.191  0.00  0.00     0.159 HD
ENDROOT
BRANCH   4  16
HETATM   16  C   UNK N   1      34.084  17.562   8.171  0.00  0.00     0.277 C 
BRANCH  16  17
HETATM   17  N   UNK N   1      32.816  17.898   7.528  0.00  0.00     0.093 N 
HETATM   18  C   UNK N   1      31.672  17.593   8.392  0.00  0.00     0.273 C 
HETATM   19  C   UNK N   1      30.542  17.095   7.474  0.00  0.00     0.037 C 
HETATM   20  C   UNK N   1      31.120  17.283   6.089  0.00  0.00     0.021 C 
HETATM   21  C   UNK N   1      32.585  17.074   6.350  0.00  0.00     0.227 C 
HETATM   22  C   UNK N   1      30.613  16.312   5.022  0.00  0.00     0.007 C 
HETATM   23  C   UNK N   1      33.410  17.503   5.131  0.00  0.00     0.036 C 
HETATM   24  C   UNK N   1      32.712  17.190   3.792  0.00  0.00     0.002 C 
HETATM   25  C   UNK N   1      31.640  16.092   3.891  0.00  0.00     0.001 C 
ENDBRANCH  16  17
ENDBRANCH   4  16
BRANCH   2  26
HETATM   26  N   UNK N   1      36.329  12.549   7.107  0.00  0.00    -0.410 N 
HETATM   27  H   UNK N   1      36.427  12.786   6.119  0.00  0.00     0.151 HD
HETATM   28  H   UNK N   1      35.849  11.690   7.378  0.00  0.00     0.151 HD
ENDBRANCH   2  26
TORSDOF 3
ENDMDL
MODEL 7
REMARK VINA RESULT:      -6.3      4.539      7.544
REMARK  3 active torsions:
REMARK  status: ('A' for Active; 'I' for Inactive)
REMARK       I    between atoms: C_1  and  N_17 
REMARK    1  A    between atoms: C_2  and  N_19 
REMARK    2  A    between atoms: C_4  and  C_7 
REMARK    3  A    between atoms: C_7  and  N_22 
ROOT
HETATM    1  C   UNK N   1      36.514  11.312  13.759  0.00  0.00     0.274 C 
HETATM    2  C   UNK N   1      36.451  13.725  13.695  0.00  0.00     0.179 C 
HETATM    3  C   UNK N   1      36.726  13.792  12.184  0.00  0.00     0.050 C 
HETATM    4  C   UNK N   1      35.984  14.803   9.964  0.00  0.00     0.014 C 
HETATM    5  C   UNK N   1      36.714  13.556   9.418  0.00  0.00     0.008 C 
HETATM    6  C   UNK N   1      36.726  12.350  11.587  0.00  0.00     0.088 C 
HETATM    7  N   UNK N   1      35.914  11.456  12.415  0.00  0.00    -0.382 N 
HETATM    8  N   UNK N   1      37.512  10.256  13.736  0.00  0.00    -0.395 N 
HETATM    9  N   UNK N   1      37.144  12.562  14.251  0.00  0.00    -0.366 N 
HETATM   10  C   UNK N   1      35.699  14.693  11.478  0.00  0.00     0.017 C 
HETATM   11  C   UNK N   1      36.238  12.306  10.138  0.00  0.00     0.026 C 
HETATM   12  H   UNK N   1      35.056  10.997  12.108  0.00  0.00     0.157 HD
HETATM   13  H   UNK N   1      37.969   9.674  13.034  0.00  0.00     0.153 HD
HETATM   14  H   UNK N   1      37.845  10.037  14.675  0.00  0.00     0.153 HD
HETATM   15  H   UNK N   1      37.942  12.605  14.884  0.00  0.00     0.159 HD
ENDROOT
BRANCH   4  16
HETATM   16  C   UNK N   1      34.663  15.022   9.226  0.00  0.00     0.277 C 
BRANCH  16  17
HETATM   17  N   UNK N   1      34.784  16.160   8.319  0.00  0.00     0.093 N 
HETATM   18  C   UNK N   1      34.256  17.389   8.917  0.00  0.00     0.273 C 
HETATM   19  C   UNK N   1      33.589  18.185   7.782  0.00  0.00     0.037 C 
HETATM   20  C   UNK N   1      33.916  17.365   6.554  0.00  0.00     0.021 C 
HETATM   21  C   UNK N   1      33.966  15.978   7.130  0.00  0.00     0.227 C 
HETATM   22  C   UNK N   1      32.900  17.446   5.414  0.00  0.00     0.007 C 
HETATM   23  C   UNK N   1      34.569  15.000   6.114  0.00  0.00     0.036 C 
HETATM   24  C   UNK N   1      34.174  15.324   4.659  0.00  0.00     0.002 C 
HETATM   25  C   UNK N   1      32.899  16.176   4.536  0.00  0.00     0.001 C 
ENDBRANCH  16  17
ENDBRANCH   4  16
BRANCH   2  26
HETATM   26  N   UNK N   1      36.907  14.940  14.351  0.00  0.00    -0.410 N 
HETATM   27  H   UNK N   1      37.905  15.132  14.444  0.00  0.00     0.151 HD
HETATM   28  H   UNK N   1      36.225  15.604  14.720  0.00  0.00     0.151 HD
ENDBRANCH   2  26
TORSDOF 3
ENDMDL
MODEL 8
REMARK VINA RESULT:      -6.3      4.056      6.116
REMARK  3 active torsions:
REMARK  status: ('A' for Active; 'I' for Inactive)
REMARK       I    between atoms: C_1  and  N_17 
REMARK    1  A    between atoms: C_2  and  N_19 
REMARK    2  A    between atoms: C_4  and  C_7 
REMARK    3  A    between atoms: C_7  and  N_22 
ROOT
HETATM    1  C   UNK N   1      36.747  13.244  12.846  0.00  0.00     0.274 C 
HETATM    2  C   UNK N   1      35.099  12.420  11.286  0.00  0.00     0.179 C 
HETATM    3  C   UNK N   1      34.690  13.827  10.820  0.00  0.00     0.050 C 
HETATM    4  C   UNK N   1      34.263  15.320   8.798  0.00  0.00     0.014 C 
HETATM    5  C   UNK N   1      34.559  16.421   9.840  0.00  0.00     0.008 C 
HETATM    6  C   UNK N   1      35.632  14.888  11.470  0.00  0.00     0.088 C 
HETATM    7  N   UNK N   1      36.922  14.284  11.810  0.00  0.00    -0.382 N 
HETATM    8  N   UNK N   1      36.778  13.859  14.162  0.00  0.00    -0.395 N 
HETATM    9  N   UNK N   1      35.483  12.482  12.697  0.00  0.00    -0.366 N 
HETATM   10  C   UNK N   1      34.709  13.924   9.285  0.00  0.00     0.017 C 
HETATM   11  C   UNK N   1      35.848  16.115  10.583  0.00  0.00     0.026 C 
HETATM   12  H   UNK N   1      37.816  14.544  11.390  0.00  0.00     0.157 HD
HETATM   13  H   UNK N   1      36.784  14.804  14.547  0.00  0.00     0.153 HD
HETATM   14  H   UNK N   1      36.799  13.156  14.901  0.00  0.00     0.153 HD
HETATM   15  H   UNK N   1      34.959  12.063  13.465  0.00  0.00     0.159 HD
ENDROOT
BRANCH   4  16
HETATM   16  C   UNK N   1      34.962  15.628   7.474  0.00  0.00     0.277 C 
BRANCH  16  17
HETATM   17  N   UNK N   1      34.211  15.040   6.368  0.00  0.00     0.093 N 
HETATM   18  C   UNK N   1      35.040  14.128   5.574  0.00  0.00     0.273 C 
HETATM   19  C   UNK N   1      34.600  14.290   4.108  0.00  0.00     0.037 C 
HETATM   20  C   UNK N   1      33.421  15.232   4.208  0.00  0.00     0.021 C 
HETATM   21  C   UNK N   1      33.801  16.053   5.408  0.00  0.00     0.227 C 
HETATM   22  C   UNK N   1      33.181  16.124   2.990  0.00  0.00     0.007 C 
HETATM   23  C   UNK N   1      32.608  16.896   5.876  0.00  0.00     0.036 C 
HETATM   24  C   UNK N   1      31.738  17.408   4.711  0.00  0.00     0.002 C 
HETATM   25  C   UNK N   1      32.469  17.444   3.359  0.00  0.00     0.001 C 
ENDBRANCH  16  17
ENDBRANCH   4  16
BRANCH   2  26
HETATM   26  N   UNK N   1      33.999  11.485  11.108  0.00  0.00    -0.410 N 
HETATM   27  H   UNK N   1      33.120  11.796  10.694  0.00  0.00     0.151 HD
HETATM   28  H   UNK N   1      34.108  10.513  11.399  0.00  0.00     0.151 HD
ENDBRANCH   2  26
TORSDOF 3
ENDMDL
MODEL 9
REMARK VINA RESULT:      -6.2      5.710     10.680
REMARK  3 active torsions:
REMARK  status: ('A' for Active; 'I' for Inactive)
REMARK       I    between atoms: C_1  and  N_17 
REMARK    1  A    between atoms: C_2  and  N_19 
REMARK    2  A    between atoms: C_4  and  C_7 
REMARK    3  A    between atoms: C_7  and  N_22 
ROOT
HETATM    1  C   UNK N   1      33.368  16.515   8.297  0.00  0.00     0.274 C 
HETATM    2  C   UNK N   1      34.904  14.735   7.749  0.00  0.00     0.179 C 
HETATM    3  C   UNK N   1      35.617  14.796   9.110  0.00  0.00     0.050 C 
HETATM    4  C   UNK N   1      36.457  13.434  11.095  0.00  0.00     0.014 C 
HETATM    5  C   UNK N   1      36.330  14.806  11.793  0.00  0.00     0.008 C 
HETATM    6  C   UNK N   1      34.873  15.799  10.047  0.00  0.00     0.088 C 
HETATM    7  N   UNK N   1      33.470  15.922   9.648  0.00  0.00    -0.382 N 
HETATM    8  N   UNK N   1      33.384  17.965   8.400  0.00  0.00    -0.395 N 
HETATM    9  N   UNK N   1      34.457  16.081   7.389  0.00  0.00    -0.366 N 
HETATM   10  C   UNK N   1      35.710  13.397   9.744  0.00  0.00     0.017 C 
HETATM   11  C   UNK N   1      34.964  15.413  11.524  0.00  0.00     0.026 C 
HETATM   12  H   UNK N   1      32.674  15.639  10.222  0.00  0.00     0.157 HD
HETATM   13  H   UNK N   1      33.547  18.662   9.127  0.00  0.00     0.153 HD
HETATM   14  H   UNK N   1      33.177  18.404   7.502  0.00  0.00     0.153 HD
HETATM   15  H   UNK N   1      34.838  16.639   6.625  0.00  0.00     0.159 HD
ENDROOT
BRANCH   4  16
HETATM   16  C   UNK N   1      35.916  12.320  11.991  0.00  0.00     0.277 C 
BRANCH  16  17
HETATM   17  N   UNK N   1      36.775  12.163  13.161  0.00  0.00     0.093 N 
HETATM   18  C   UNK N   1      37.658  11.000  13.033  0.00  0.00     0.273 C 
HETATM   19  C   UNK N   1      37.792  10.386  14.438  0.00  0.00     0.037 C 
HETATM   20  C   UNK N   1      37.039  11.366  15.311  0.00  0.00     0.021 C 
HETATM   21  C   UNK N   1      35.996  11.871  14.355  0.00  0.00     0.227 C 
HETATM   22  C   UNK N   1      36.391  10.775  16.563  0.00  0.00     0.007 C 
HETATM   23  C   UNK N   1      35.286  13.098  14.940  0.00  0.00     0.036 C 
HETATM   24  C   UNK N   1      35.098  13.014  16.468  0.00  0.00     0.002 C 
HETATM   25  C   UNK N   1      35.157  11.580  17.023  0.00  0.00     0.001 C 
ENDBRANCH  16  17
ENDBRANCH   4  16
BRANCH   2  26
HETATM   26  N   UNK N   1      35.799  14.215   6.728  0.00  0.00    -0.410 N 
HETATM   27  H   UNK N   1      36.689  13.791   6.990  0.00  0.00     0.151 HD
HETATM   28  H   UNK N   1      35.535  14.275   5.744  0.00  0.00     0.151 HD
ENDBRANCH   2  26
TORSDOF 3
ENDMDL
