REMARK  6 active torsions:
REMARK  status: ('A' for Active; 'I' for Inactive)
REMARK       I    between atoms: C_2  and  N_3 
REMARK    1  A    between atoms: C_6  and  N_7 
REMARK    2  A    between atoms: C_8  and  C_10 
REMARK    3  A    between atoms: C_10  and  C_11 
REMARK    4  A    between atoms: C_13  and  O_17 
REMARK    5  A    between atoms: C_14  and  O_18 
REMARK    6  A    between atoms: C_15  and  O_19 
ROOT
HETATM    1  N   UNK N   1       3.735   0.779  -0.821  0.00  0.00    -0.202 N 
HETATM    2  C   UNK N   1       4.591   0.289   0.111  0.00  0.00     0.677 A 
HETATM    3  N   UNK N   1       5.757   1.010   0.439  0.00  0.00    -0.234 N 
HETATM    4  N   UNK N   1       4.325  -0.888   0.735  0.00  0.00    -0.177 N 
ATOM      5  HN  UNK N   1       4.986  -1.255   1.420  1.00  0.00     0.185 HD
HETATM    6  C   UNK N   1       3.189  -1.584   0.460  0.00  0.00     0.122 A 
HETATM    7  C   UNK N   1       2.277  -1.081  -0.475  0.00  0.00     0.006 A 
HETATM    8  C   UNK N   1       2.591   0.115  -1.128  0.00  0.00     0.117 A 
HETATM    9  H   UNK N   1       3.945   1.624  -1.280  0.00  0.00     0.183 HD
HETATM   10  H   UNK N   1       6.600   0.557   0.669  0.00  0.00     0.174 HD
HETATM   11  H   UNK N   1       5.727   1.994   0.439  0.00  0.00     0.174 HD
ENDROOT
BRANCH   7  12
HETATM   12  C   UNK N   1       0.967  -1.780  -0.738  0.00  0.00     0.082 C 
BRANCH  12  13
HETATM   13  C   UNK N   1      -0.241  -0.948  -0.373  0.00  0.00    -0.048 A 
HETATM   14  C   UNK N   1      -1.508  -1.530  -0.372  0.00  0.00     0.047 A 
HETATM   15  C   UNK N   1      -2.653  -0.770  -0.052  0.00  0.00     0.104 A 
HETATM   16  C   UNK N   1      -2.511   0.613   0.258  0.00  0.00     0.135 A 
HETATM   17  C   UNK N   1      -1.230   1.187   0.264  0.00  0.00     0.104 A 
HETATM   18  C   UNK N   1      -0.117   0.404  -0.045  0.00  0.00     0.047 A 
BRANCH  15  19
HETATM   19  O   UNK N   1      -3.878  -1.353  -0.035  0.00  0.00    -0.353 OA
HETATM   20  C   UNK N   1      -4.087  -2.694  -0.266  0.00  0.00     0.210 C 
ENDBRANCH  15  19
BRANCH  16  21
HETATM   21  O   UNK N   1      -3.564   1.424   0.553  0.00  0.00    -0.351 OA
HETATM   22  C   UNK N   1      -4.892   1.068   0.505  0.00  0.00     0.210 C 
ENDBRANCH  16  21
BRANCH  17  23
HETATM   23  O   UNK N   1      -1.090   2.502   0.565  0.00  0.00    -0.353 OA
HETATM   24  C   UNK N   1       0.129   3.146   0.584  0.00  0.00     0.210 C 
ENDBRANCH  17  23
ENDBRANCH  12  13
ENDBRANCH   7  12
BRANCH   6  25
HETATM   25  N   UNK N   1       2.931  -2.794   1.138  0.00  0.00    -0.385 N 
HETATM   26  H   UNK N   1       2.110  -3.061   1.611  0.00  0.00     0.157 HD
HETATM   27  H   UNK N   1       3.663  -3.453   1.138  0.00  0.00     0.157 HD
ENDBRANCH   6  25
TORSDOF 6
