MODEL 1
REMARK VINA RESULT:      -6.3      0.000      0.000
REMARK  6 active torsions:
REMARK  status: ('A' for Active; 'I' for Inactive)
REMARK       I    between atoms: C_2  and  N_3 
REMARK    1  A    between atoms: C_6  and  N_7 
REMARK    2  A    between atoms: C_8  and  C_10 
REMARK    3  A    between atoms: C_10  and  C_11 
REMARK    4  A    between atoms: C_13  and  O_17 
REMARK    5  A    between atoms: C_14  and  O_18 
REMARK    6  A    between atoms: C_15  and  O_19 
ROOT
HETATM    1  N   UNK N   1      26.829  20.352   7.211  0.00  0.00    -0.202 N 
HETATM    2  C   UNK N   1      27.786  19.396   7.320  0.00  0.00     0.677 A 
HETATM    3  N   UNK N   1      28.310  19.071   8.587  0.00  0.00    -0.234 N 
HETATM    4  N   UNK N   1      28.235  18.746   6.214  0.00  0.00    -0.177 N 
ATOM      5  HN  UNK N   1      28.968  18.043   6.307  1.00  0.00     0.185 HD
HETATM    6  C   UNK N   1      27.719  19.019   4.985  0.00  0.00     0.122 A 
HETATM    7  C   UNK N   1      26.709  19.979   4.855  0.00  0.00     0.006 A 
HETATM    8  C   UNK N   1      26.289  20.658   6.003  0.00  0.00     0.117 A 
HETATM    9  H   UNK N   1      26.523  20.830   8.015  0.00  0.00     0.183 HD
HETATM   10  H   UNK N   1      29.253  18.818   8.709  0.00  0.00     0.174 HD
HETATM   11  H   UNK N   1      27.716  19.096   9.372  0.00  0.00     0.174 HD
ENDROOT
BRANCH   7  12
HETATM   12  C   UNK N   1      26.053  20.242   3.523  0.00  0.00     0.082 C 
BRANCH  12  13
HETATM   13  C   UNK N   1      24.600  19.830   3.478  0.00  0.00    -0.048 A 
HETATM   14  C   UNK N   1      23.668  20.645   2.836  0.00  0.00     0.047 A 
HETATM   15  C   UNK N   1      22.303  20.291   2.795  0.00  0.00     0.104 A 
HETATM   16  C   UNK N   1      21.872  19.092   3.433  0.00  0.00     0.135 A 
HETATM   17  C   UNK N   1      22.819  18.274   4.068  0.00  0.00     0.104 A 
HETATM   18  C   UNK N   1      24.163  18.647   4.079  0.00  0.00     0.047 A 
BRANCH  15  19
HETATM   19  O   UNK N   1      21.410  21.083   2.150  0.00  0.00    -0.353 OA
HETATM   20  C   UNK N   1      20.992  20.863   0.857  0.00  0.00     0.210 C 
ENDBRANCH  15  19
BRANCH  16  21
HETATM   21  O   UNK N   1      20.572  18.689   3.464  0.00  0.00    -0.351 OA
HETATM   22  C   UNK N   1      19.956  17.886   2.532  0.00  0.00     0.210 C 
ENDBRANCH  16  21
BRANCH  17  23
HETATM   23  O   UNK N   1      22.413  17.129   4.671  0.00  0.00    -0.353 OA
HETATM   24  C   UNK N   1      22.342  16.981   6.040  0.00  0.00     0.210 C 
ENDBRANCH  17  23
ENDBRANCH  12  13
ENDBRANCH   7  12
BRANCH   6  25
HETATM   25  N   UNK N   1      28.192  18.314   3.859  0.00  0.00    -0.385 N 
HETATM   26  H   UNK N   1      27.740  17.596   3.359  0.00  0.00     0.157 HD
HETATM   27  H   UNK N   1      29.084  18.572   3.531  0.00  0.00     0.157 HD
ENDBRANCH   6  25
TORSDOF 6
ENDMDL
MODEL 2
REMARK VINA RESULT:      -6.1      0.420      2.708
REMARK  6 active torsions:
REMARK  status: ('A' for Active; 'I' for Inactive)
REMARK       I    between atoms: C_2  and  N_3 
REMARK    1  A    between atoms: C_6  and  N_7 
REMARK    2  A    between atoms: C_8  and  C_10 
REMARK    3  A    between atoms: C_10  and  C_11 
REMARK    4  A    between atoms: C_13  and  O_17 
REMARK    5  A    between atoms: C_14  and  O_18 
REMARK    6  A    between atoms: C_15  and  O_19 
ROOT
HETATM    1  N   UNK N   1      27.011  20.212   7.132  0.00  0.00    -0.202 N 
HETATM    2  C   UNK N   1      27.942  19.226   7.178  0.00  0.00     0.677 A 
HETATM    3  N   UNK N   1      28.525  18.871   8.412  0.00  0.00    -0.234 N 
HETATM    4  N   UNK N   1      28.307  18.573   6.044  0.00  0.00    -0.177 N 
ATOM      5  HN  UNK N   1      29.022  17.847   6.090  1.00  0.00     0.185 HD
HETATM    6  C   UNK N   1      27.733  18.875   4.849  0.00  0.00     0.122 A 
HETATM    7  C   UNK N   1      26.748  19.867   4.783  0.00  0.00     0.006 A 
HETATM    8  C   UNK N   1      26.415  20.547   5.959  0.00  0.00     0.117 A 
HETATM    9  H   UNK N   1      26.765  20.691   7.956  0.00  0.00     0.183 HD
HETATM   10  H   UNK N   1      29.465  18.588   8.479  0.00  0.00     0.174 HD
HETATM   11  H   UNK N   1      27.977  18.907   9.228  0.00  0.00     0.174 HD
ENDROOT
BRANCH   7  12
HETATM   12  C   UNK N   1      26.027  20.164   3.492  0.00  0.00     0.082 C 
BRANCH  12  13
HETATM   13  C   UNK N   1      24.552  19.838   3.539  0.00  0.00    -0.048 A 
HETATM   14  C   UNK N   1      24.109  18.740   4.275  0.00  0.00     0.047 A 
HETATM   15  C   UNK N   1      22.739  18.405   4.321  0.00  0.00     0.104 A 
HETATM   16  C   UNK N   1      21.802  19.191   3.591  0.00  0.00     0.135 A 
HETATM   17  C   UNK N   1      22.257  20.300   2.861  0.00  0.00     0.104 A 
HETATM   18  C   UNK N   1      23.617  20.611   2.848  0.00  0.00     0.047 A 
BRANCH  15  19
HETATM   19  O   UNK N   1      22.318  17.345   5.057  0.00  0.00    -0.353 OA
HETATM   20  C   UNK N   1      22.591  16.036   4.733  0.00  0.00     0.210 C 
ENDBRANCH  15  19
BRANCH  16  21
HETATM   21  O   UNK N   1      20.467  18.923   3.560  0.00  0.00    -0.351 OA
HETATM   22  C   UNK N   1      19.862  17.932   2.821  0.00  0.00     0.210 C 
ENDBRANCH  16  21
BRANCH  17  23
HETATM   23  O   UNK N   1      21.366  21.055   2.171  0.00  0.00    -0.353 OA
HETATM   24  C   UNK N   1      20.986  20.776   0.875  0.00  0.00     0.210 C 
ENDBRANCH  17  23
ENDBRANCH  12  13
ENDBRANCH   7  12
BRANCH   6  25
HETATM   25  N   UNK N   1      28.120  18.167   3.691  0.00  0.00    -0.385 N 
HETATM   26  H   UNK N   1      28.409  17.228   3.622  0.00  0.00     0.157 HD
HETATM   27  H   UNK N   1      28.097  18.675   2.847  0.00  0.00     0.157 HD
ENDBRANCH   6  25
TORSDOF 6
ENDMDL
MODEL 3
REMARK VINA RESULT:      -5.9      5.498      7.761
REMARK  6 active torsions:
REMARK  status: ('A' for Active; 'I' for Inactive)
REMARK       I    between atoms: C_2  and  N_3 
REMARK    1  A    between atoms: C_6  and  N_7 
REMARK    2  A    between atoms: C_8  and  C_10 
REMARK    3  A    between atoms: C_10  and  C_11 
REMARK    4  A    between atoms: C_13  and  O_17 
REMARK    5  A    between atoms: C_14  and  O_18 
REMARK    6  A    between atoms: C_15  and  O_19 
ROOT
HETATM    1  N   UNK N   1      21.814  11.979  12.048  0.00  0.00    -0.202 N 
HETATM    2  C   UNK N   1      23.119  12.093  12.403  0.00  0.00     0.677 A 
HETATM    3  N   UNK N   1      23.501  11.885  13.744  0.00  0.00    -0.234 N 
HETATM    4  N   UNK N   1      24.059  12.397  11.471  0.00  0.00    -0.177 N 
ATOM      5  HN  UNK N   1      25.034  12.497  11.754  1.00  0.00     0.185 HD
HETATM    6  C   UNK N   1      23.719  12.568  10.165  0.00  0.00     0.122 A 
HETATM    7  C   UNK N   1      22.383  12.424   9.772  0.00  0.00     0.006 A 
HETATM    8  C   UNK N   1      21.430  12.145  10.756  0.00  0.00     0.117 A 
HETATM    9  H   UNK N   1      21.137  11.776  12.734  0.00  0.00     0.183 HD
HETATM   10  H   UNK N   1      24.230  12.397  14.161  0.00  0.00     0.174 HD
HETATM   11  H   UNK N   1      23.025  11.207  14.277  0.00  0.00     0.174 HD
ENDROOT
BRANCH   7  12
HETATM   12  C   UNK N   1      21.985  12.519   8.320  0.00  0.00     0.082 C 
BRANCH  12  13
HETATM   13  C   UNK N   1      21.939  13.937   7.801  0.00  0.00    -0.048 A 
HETATM   14  C   UNK N   1      22.739  14.305   6.719  0.00  0.00     0.047 A 
HETATM   15  C   UNK N   1      22.727  15.627   6.228  0.00  0.00     0.104 A 
HETATM   16  C   UNK N   1      21.900  16.601   6.857  0.00  0.00     0.135 A 
HETATM   17  C   UNK N   1      21.091  16.219   7.939  0.00  0.00     0.104 A 
HETATM   18  C   UNK N   1      21.117  14.899   8.393  0.00  0.00     0.047 A 
BRANCH  15  19
HETATM   19  O   UNK N   1      23.494  15.967   5.162  0.00  0.00    -0.353 OA
HETATM   20  C   UNK N   1      24.813  16.349   5.263  0.00  0.00     0.210 C 
ENDBRANCH  15  19
BRANCH  16  21
HETATM   21  O   UNK N   1      21.847  17.903   6.463  0.00  0.00    -0.351 OA
HETATM   22  C   UNK N   1      21.146  18.390   5.384  0.00  0.00     0.210 C 
ENDBRANCH  16  21
BRANCH  17  23
HETATM   23  O   UNK N   1      20.297  17.141   8.537  0.00  0.00    -0.353 OA
HETATM   24  C   UNK N   1      18.947  16.954   8.745  0.00  0.00     0.210 C 
ENDBRANCH  17  23
ENDBRANCH  12  13
ENDBRANCH   7  12
BRANCH   6  25
HETATM   25  N   UNK N   1      24.720  12.864   9.216  0.00  0.00    -0.385 N 
HETATM   26  H   UNK N   1      25.050  12.294   8.484  0.00  0.00     0.157 HD
HETATM   27  H   UNK N   1      25.141  13.751   9.297  0.00  0.00     0.157 HD
ENDBRANCH   6  25
TORSDOF 6
ENDMDL
MODEL 4
REMARK VINA RESULT:      -5.8      6.968      9.899
REMARK  6 active torsions:
REMARK  status: ('A' for Active; 'I' for Inactive)
REMARK       I    between atoms: C_2  and  N_3 
REMARK    1  A    between atoms: C_6  and  N_7 
REMARK    2  A    between atoms: C_8  and  C_10 
REMARK    3  A    between atoms: C_10  and  C_11 
REMARK    4  A    between atoms: C_13  and  O_17 
REMARK    5  A    between atoms: C_14  and  O_18 
REMARK    6  A    between atoms: C_15  and  O_19 
ROOT
HETATM    1  N   UNK N   1      28.873  17.156   7.856  0.00  0.00    -0.202 N 
HETATM    2  C   UNK N   1      28.114  18.280   7.807  0.00  0.00     0.677 A 
HETATM    3  N   UNK N   1      27.452  18.730   8.968  0.00  0.00    -0.234 N 
HETATM    4  N   UNK N   1      27.997  18.978   6.648  0.00  0.00    -0.177 N 
ATOM      5  HN  UNK N   1      27.408  19.811   6.619  1.00  0.00     0.185 HD
HETATM    6  C   UNK N   1      28.654  18.583   5.524  0.00  0.00     0.122 A 
HETATM    7  C   UNK N   1      29.467  17.444   5.561  0.00  0.00     0.006 A 
HETATM    8  C   UNK N   1      29.544  16.724   6.758  0.00  0.00     0.117 A 
HETATM    9  H   UNK N   1      28.938  16.648   8.697  0.00  0.00     0.183 HD
HETATM   10  H   UNK N   1      26.569  19.162   8.927  0.00  0.00     0.174 HD
HETATM   11  H   UNK N   1      27.886  18.609   9.843  0.00  0.00     0.174 HD
ENDROOT
BRANCH   7  12
HETATM   12  C   UNK N   1      30.280  17.029   4.360  0.00  0.00     0.082 C 
BRANCH  12  13
HETATM   13  C   UNK N   1      31.694  16.623   4.704  0.00  0.00    -0.048 A 
HETATM   14  C   UNK N   1      32.197  15.406   4.244  0.00  0.00     0.047 A 
HETATM   15  C   UNK N   1      33.508  14.997   4.567  0.00  0.00     0.104 A 
HETATM   16  C   UNK N   1      34.321  15.832   5.386  0.00  0.00     0.135 A 
HETATM   17  C   UNK N   1      33.809  17.060   5.836  0.00  0.00     0.104 A 
HETATM   18  C   UNK N   1      32.512  17.440   5.488  0.00  0.00     0.047 A 
BRANCH  15  19
HETATM   19  O   UNK N   1      33.993  13.820   4.096  0.00  0.00    -0.353 OA
HETATM   20  C   UNK N   1      34.463  13.648   2.814  0.00  0.00     0.210 C 
ENDBRANCH  15  19
BRANCH  16  21
HETATM   21  O   UNK N   1      35.586  15.503   5.765  0.00  0.00    -0.351 OA
HETATM   22  C   UNK N   1      35.923  14.634   6.777  0.00  0.00     0.210 C 
ENDBRANCH  16  21
BRANCH  17  23
HETATM   23  O   UNK N   1      34.582  17.861   6.611  0.00  0.00    -0.353 OA
HETATM   24  C   UNK N   1      34.353  18.058   7.956  0.00  0.00     0.210 C 
ENDBRANCH  17  23
ENDBRANCH  12  13
ENDBRANCH   7  12
BRANCH   6  25
HETATM   25  N   UNK N   1      28.528  19.338   4.340  0.00  0.00    -0.385 N 
HETATM   26  H   UNK N   1      28.537  20.318   4.241  0.00  0.00     0.157 HD
HETATM   27  H   UNK N   1      28.416  18.822   3.508  0.00  0.00     0.157 HD
ENDBRANCH   6  25
TORSDOF 6
ENDMDL
MODEL 5
REMARK VINA RESULT:      -5.8      5.516      7.827
REMARK  6 active torsions:
REMARK  status: ('A' for Active; 'I' for Inactive)
REMARK       I    between atoms: C_2  and  N_3 
REMARK    1  A    between atoms: C_6  and  N_7 
REMARK    2  A    between atoms: C_8  and  C_10 
REMARK    3  A    between atoms: C_10  and  C_11 
REMARK    4  A    between atoms: C_13  and  O_17 
REMARK    5  A    between atoms: C_14  and  O_18 
REMARK    6  A    between atoms: C_15  and  O_19 
ROOT
HETATM    1  N   UNK N   1      21.849  11.973  12.112  0.00  0.00    -0.202 N 
HETATM    2  C   UNK N   1      23.156  12.099  12.453  0.00  0.00     0.677 A 
HETATM    3  N   UNK N   1      23.551  11.912  13.794  0.00  0.00    -0.234 N 
HETATM    4  N   UNK N   1      24.086  12.397  11.509  0.00  0.00    -0.177 N 
ATOM      5  HN  UNK N   1      25.063  12.508  11.782  1.00  0.00     0.185 HD
HETATM    6  C   UNK N   1      23.734  12.548  10.204  0.00  0.00     0.122 A 
HETATM    7  C   UNK N   1      22.396  12.390   9.824  0.00  0.00     0.006 A 
HETATM    8  C   UNK N   1      21.453  12.118  10.821  0.00  0.00     0.117 A 
HETATM    9  H   UNK N   1      21.180  11.774  12.806  0.00  0.00     0.183 HD
HETATM   10  H   UNK N   1      24.280  12.435  14.198  0.00  0.00     0.174 HD
HETATM   11  H   UNK N   1      23.084  11.239  14.340  0.00  0.00     0.174 HD
ENDROOT
BRANCH   7  12
HETATM   12  C   UNK N   1      21.984  12.462   8.375  0.00  0.00     0.082 C 
BRANCH  12  13
HETATM   13  C   UNK N   1      21.968  13.870   7.825  0.00  0.00    -0.048 A 
HETATM   14  C   UNK N   1      21.192  14.847   8.447  0.00  0.00     0.047 A 
HETATM   15  C   UNK N   1      21.146  16.164   7.942  0.00  0.00     0.104 A 
HETATM   16  C   UNK N   1      21.891  16.491   6.772  0.00  0.00     0.135 A 
HETATM   17  C   UNK N   1      22.677  15.503   6.160  0.00  0.00     0.104 A 
HETATM   18  C   UNK N   1      22.709  14.213   6.692  0.00  0.00     0.047 A 
BRANCH  15  19
HETATM   19  O   UNK N   1      20.403  17.111   8.567  0.00  0.00    -0.353 OA
HETATM   20  C   UNK N   1      19.029  17.069   8.652  0.00  0.00     0.210 C 
ENDBRANCH  15  19
BRANCH  16  21
HETATM   21  O   UNK N   1      21.884  17.729   6.205  0.00  0.00    -0.351 OA
HETATM   22  C   UNK N   1      21.070  18.136   5.173  0.00  0.00     0.210 C 
ENDBRANCH  16  21
BRANCH  17  23
HETATM   23  O   UNK N   1      23.393  15.812   5.050  0.00  0.00    -0.353 OA
HETATM   24  C   UNK N   1      23.161  15.238   3.818  0.00  0.00     0.210 C 
ENDBRANCH  17  23
ENDBRANCH  12  13
ENDBRANCH   7  12
BRANCH   6  25
HETATM   25  N   UNK N   1      24.725  12.838   9.243  0.00  0.00    -0.385 N 
HETATM   26  H   UNK N   1      24.654  12.781   8.263  0.00  0.00     0.157 HD
HETATM   27  H   UNK N   1      25.595  13.134   9.597  0.00  0.00     0.157 HD
ENDBRANCH   6  25
TORSDOF 6
ENDMDL
MODEL 6
REMARK VINA RESULT:      -5.8      5.688      7.687
REMARK  6 active torsions:
REMARK  status: ('A' for Active; 'I' for Inactive)
REMARK       I    between atoms: C_2  and  N_3 
REMARK    1  A    between atoms: C_6  and  N_7 
REMARK    2  A    between atoms: C_8  and  C_10 
REMARK    3  A    between atoms: C_10  and  C_11 
REMARK    4  A    between atoms: C_13  and  O_17 
REMARK    5  A    between atoms: C_14  and  O_18 
REMARK    6  A    between atoms: C_15  and  O_19 
ROOT
HETATM    1  N   UNK N   1      19.540  17.460   2.047  0.00  0.00    -0.202 N 
HETATM    2  C   UNK N   1      19.739  16.637   0.987  0.00  0.00     0.677 A 
HETATM    3  N   UNK N   1      18.930  16.764  -0.160  0.00  0.00    -0.234 N 
HETATM    4  N   UNK N   1      20.720  15.697   1.024  0.00  0.00    -0.177 N 
ATOM      5  HN  UNK N   1      20.847  15.072   0.228  1.00  0.00     0.185 HD
HETATM    6  C   UNK N   1      21.535  15.579   2.106  0.00  0.00     0.122 A 
HETATM    7  C   UNK N   1      21.367  16.439   3.198  0.00  0.00     0.006 A 
HETATM    8  C   UNK N   1      20.329  17.375   3.149  0.00  0.00     0.117 A 
HETATM    9  H   UNK N   1      18.815  18.126   2.018  0.00  0.00     0.183 HD
HETATM   10  H   UNK N   1      18.663  15.982  -0.696  0.00  0.00     0.174 HD
HETATM   11  H   UNK N   1      18.625  17.659  -0.434  0.00  0.00     0.174 HD
ENDROOT
BRANCH   7  12
HETATM   12  C   UNK N   1      22.309  16.396   4.375  0.00  0.00     0.082 C 
BRANCH  12  13
HETATM   13  C   UNK N   1      21.689  15.799   5.617  0.00  0.00    -0.048 A 
HETATM   14  C   UNK N   1      21.396  16.618   6.707  0.00  0.00     0.047 A 
HETATM   15  C   UNK N   1      20.834  16.082   7.885  0.00  0.00     0.104 A 
HETATM   16  C   UNK N   1      20.578  14.683   7.964  0.00  0.00     0.135 A 
HETATM   17  C   UNK N   1      20.866  13.868   6.858  0.00  0.00     0.104 A 
HETATM   18  C   UNK N   1      21.410  14.433   5.703  0.00  0.00     0.047 A 
BRANCH  15  19
HETATM   19  O   UNK N   1      20.535  16.892   8.931  0.00  0.00    -0.353 OA
HETATM   20  C   UNK N   1      19.467  17.761   8.942  0.00  0.00     0.210 C 
ENDBRANCH  15  19
BRANCH  16  21
HETATM   21  O   UNK N   1      20.061  14.080   9.070  0.00  0.00    -0.351 OA
HETATM   22  C   UNK N   1      20.787  13.525  10.098  0.00  0.00     0.210 C 
ENDBRANCH  16  21
BRANCH  17  23
HETATM   23  O   UNK N   1      20.617  12.537   6.927  0.00  0.00    -0.353 OA
HETATM   24  C   UNK N   1      21.538  11.578   6.562  0.00  0.00     0.210 C 
ENDBRANCH  17  23
ENDBRANCH  12  13
ENDBRANCH   7  12
BRANCH   6  25
HETATM   25  N   UNK N   1      22.557  14.607   2.107  0.00  0.00    -0.385 N 
HETATM   26  H   UNK N   1      22.479  13.645   2.303  0.00  0.00     0.157 HD
HETATM   27  H   UNK N   1      23.460  14.930   1.884  0.00  0.00     0.157 HD
ENDBRANCH   6  25
TORSDOF 6
ENDMDL
MODEL 7
REMARK VINA RESULT:      -5.7      6.538      9.089
REMARK  6 active torsions:
REMARK  status: ('A' for Active; 'I' for Inactive)
REMARK       I    between atoms: C_2  and  N_3 
REMARK    1  A    between atoms: C_6  and  N_7 
REMARK    2  A    between atoms: C_8  and  C_10 
REMARK    3  A    between atoms: C_10  and  C_11 
REMARK    4  A    between atoms: C_13  and  O_17 
REMARK    5  A    between atoms: C_14  and  O_18 
REMARK    6  A    between atoms: C_15  and  O_19 
ROOT
HETATM    1  N   UNK N   1      34.955  14.971   9.734  0.00  0.00    -0.202 N 
HETATM    2  C   UNK N   1      35.428  15.958  10.536  0.00  0.00     0.677 A 
HETATM    3  N   UNK N   1      36.014  15.632  11.776  0.00  0.00    -0.234 N 
HETATM    4  N   UNK N   1      35.346  17.257  10.147  0.00  0.00    -0.177 N 
ATOM      5  HN  UNK N   1      35.688  17.991  10.767  1.00  0.00     0.185 HD
HETATM    6  C   UNK N   1      34.816  17.592   8.940  0.00  0.00     0.122 A 
HETATM    7  C   UNK N   1      34.351  16.588   8.083  0.00  0.00     0.006 A 
HETATM    8  C   UNK N   1      34.415  15.262   8.522  0.00  0.00     0.117 A 
HETATM    9  H   UNK N   1      35.003  14.034  10.033  0.00  0.00     0.183 HD
HETATM   10  H   UNK N   1      35.914  16.211  12.566  0.00  0.00     0.174 HD
HETATM   11  H   UNK N   1      36.539  14.803  11.854  0.00  0.00     0.174 HD
ENDROOT
BRANCH   7  12
HETATM   12  C   UNK N   1      33.841  16.917   6.703  0.00  0.00     0.082 C 
BRANCH  12  13
HETATM   13  C   UNK N   1      32.338  17.073   6.640  0.00  0.00    -0.048 A 
HETATM   14  C   UNK N   1      31.604  17.188   7.820  0.00  0.00     0.047 A 
HETATM   15  C   UNK N   1      30.199  17.317   7.788  0.00  0.00     0.104 A 
HETATM   16  C   UNK N   1      29.524  17.312   6.534  0.00  0.00     0.135 A 
HETATM   17  C   UNK N   1      30.273  17.206   5.352  0.00  0.00     0.104 A 
HETATM   18  C   UNK N   1      31.663  17.093   5.418  0.00  0.00     0.047 A 
BRANCH  15  19
HETATM   19  O   UNK N   1      29.499  17.448   8.943  0.00  0.00    -0.353 OA
HETATM   20  C   UNK N   1      29.564  18.561   9.751  0.00  0.00     0.210 C 
ENDBRANCH  15  19
BRANCH  16  21
HETATM   21  O   UNK N   1      28.171  17.406   6.414  0.00  0.00    -0.351 OA
HETATM   22  C   UNK N   1      27.275  16.377   6.587  0.00  0.00     0.210 C 
ENDBRANCH  16  21
BRANCH  17  23
HETATM   23  O   UNK N   1      29.635  17.208   4.156  0.00  0.00    -0.353 OA
HETATM   24  C   UNK N   1      29.958  16.349   3.126  0.00  0.00     0.210 C 
ENDBRANCH  17  23
ENDBRANCH  12  13
ENDBRANCH   7  12
BRANCH   6  25
HETATM   25  N   UNK N   1      34.762  18.949   8.555  0.00  0.00    -0.385 N 
HETATM   26  H   UNK N   1      35.260  19.707   8.935  0.00  0.00     0.157 HD
HETATM   27  H   UNK N   1      34.149  19.162   7.814  0.00  0.00     0.157 HD
ENDBRANCH   6  25
TORSDOF 6
ENDMDL
MODEL 8
REMARK VINA RESULT:      -5.7      5.621      7.868
REMARK  6 active torsions:
REMARK  status: ('A' for Active; 'I' for Inactive)
REMARK       I    between atoms: C_2  and  N_3 
REMARK    1  A    between atoms: C_6  and  N_7 
REMARK    2  A    between atoms: C_8  and  C_10 
REMARK    3  A    between atoms: C_10  and  C_11 
REMARK    4  A    between atoms: C_13  and  O_17 
REMARK    5  A    between atoms: C_14  and  O_18 
REMARK    6  A    between atoms: C_15  and  O_19 
ROOT
HETATM    1  N   UNK N   1      19.476  17.464   2.141  0.00  0.00    -0.202 N 
HETATM    2  C   UNK N   1      19.744  16.640   1.096  0.00  0.00     0.677 A 
HETATM    3  N   UNK N   1      18.956  16.710  -0.071  0.00  0.00    -0.234 N 
HETATM    4  N   UNK N   1      20.772  15.755   1.167  0.00  0.00    -0.177 N 
ATOM      5  HN  UNK N   1      20.951  15.128   0.382  1.00  0.00     0.185 HD
HETATM    6  C   UNK N   1      21.566  15.693   2.269  0.00  0.00     0.122 A 
HETATM    7  C   UNK N   1      21.327  16.555   3.346  0.00  0.00     0.006 A 
HETATM    8  C   UNK N   1      20.242  17.433   3.261  0.00  0.00     0.117 A 
HETATM    9  H   UNK N   1      18.718  18.090   2.087  0.00  0.00     0.183 HD
HETATM   10  H   UNK N   1      18.744  15.910  -0.603  0.00  0.00     0.174 HD
HETATM   11  H   UNK N   1      18.610  17.584  -0.363  0.00  0.00     0.174 HD
ENDROOT
BRANCH   7  12
HETATM   12  C   UNK N   1      22.242  16.576   4.544  0.00  0.00     0.082 C 
BRANCH  12  13
HETATM   13  C   UNK N   1      21.635  15.938   5.773  0.00  0.00    -0.048 A 
HETATM   14  C   UNK N   1      21.423  14.561   5.805  0.00  0.00     0.047 A 
HETATM   15  C   UNK N   1      20.842  13.944   6.934  0.00  0.00     0.104 A 
HETATM   16  C   UNK N   1      20.454  14.744   8.046  0.00  0.00     0.135 A 
HETATM   17  C   UNK N   1      20.681  16.129   8.008  0.00  0.00     0.104 A 
HETATM   18  C   UNK N   1      21.269  16.705   6.881  0.00  0.00     0.047 A 
BRANCH  15  19
HETATM   19  O   UNK N   1      20.660  12.600   6.961  0.00  0.00    -0.353 OA
HETATM   20  C   UNK N   1      21.688  11.689   6.868  0.00  0.00     0.210 C 
ENDBRANCH  15  19
BRANCH  16  21
HETATM   21  O   UNK N   1      19.864  14.235   9.163  0.00  0.00    -0.351 OA
HETATM   22  C   UNK N   1      20.506  13.556  10.173  0.00  0.00     0.210 C 
ENDBRANCH  16  21
BRANCH  17  23
HETATM   23  O   UNK N   1      20.318  16.894   9.068  0.00  0.00    -0.353 OA
HETATM   24  C   UNK N   1      19.565  18.042   8.947  0.00  0.00     0.210 C 
ENDBRANCH  17  23
ENDBRANCH  12  13
ENDBRANCH   7  12
BRANCH   6  25
HETATM   25  N   UNK N   1      22.638  14.776   2.306  0.00  0.00    -0.385 N 
HETATM   26  H   UNK N   1      23.550  14.923   2.647  0.00  0.00     0.157 HD
HETATM   27  H   UNK N   1      22.451  13.879   1.946  0.00  0.00     0.157 HD
ENDBRANCH   6  25
TORSDOF 6
ENDMDL
MODEL 9
REMARK VINA RESULT:      -5.7      5.977      8.605
REMARK  6 active torsions:
REMARK  status: ('A' for Active; 'I' for Inactive)
REMARK       I    between atoms: C_2  and  N_3 
REMARK    1  A    between atoms: C_6  and  N_7 
REMARK    2  A    between atoms: C_8  and  C_10 
REMARK    3  A    between atoms: C_10  and  C_11 
REMARK    4  A    between atoms: C_13  and  O_17 
REMARK    5  A    between atoms: C_14  and  O_18 
REMARK    6  A    between atoms: C_15  and  O_19 
ROOT
HETATM    1  N   UNK N   1      34.417  14.934   9.767  0.00  0.00    -0.202 N 
HETATM    2  C   UNK N   1      34.968  15.886  10.561  0.00  0.00     0.677 A 
HETATM    3  N   UNK N   1      35.481  15.532  11.826  0.00  0.00    -0.234 N 
HETATM    4  N   UNK N   1      35.036  17.176  10.140  0.00  0.00    -0.177 N 
ATOM      5  HN  UNK N   1      35.435  17.886  10.755  1.00  0.00     0.185 HD
HETATM    6  C   UNK N   1      34.579  17.535   8.910  0.00  0.00     0.122 A 
HETATM    7  C   UNK N   1      34.035  16.563   8.062  0.00  0.00     0.006 A 
HETATM    8  C   UNK N   1      33.946  15.249   8.533  0.00  0.00     0.117 A 
HETATM    9  H   UNK N   1      34.357  14.006  10.088  0.00  0.00     0.183 HD
HETATM   10  H   UNK N   1      35.420  16.139  12.599  0.00  0.00     0.174 HD
HETATM   11  H   UNK N   1      35.913  14.655  11.939  0.00  0.00     0.174 HD
ENDROOT
BRANCH   7  12
HETATM   12  C   UNK N   1      33.602  16.909   6.660  0.00  0.00     0.082 C 
BRANCH  12  13
HETATM   13  C   UNK N   1      32.110  17.108   6.525  0.00  0.00    -0.048 A 
HETATM   14  C   UNK N   1      31.517  17.067   5.263  0.00  0.00     0.047 A 
HETATM   15  C   UNK N   1      30.129  17.268   5.109  0.00  0.00     0.104 A 
HETATM   16  C   UNK N   1      29.328  17.531   6.257  0.00  0.00     0.135 A 
HETATM   17  C   UNK N   1      29.933  17.561   7.524  0.00  0.00     0.104 A 
HETATM   18  C   UNK N   1      31.307  17.346   7.642  0.00  0.00     0.047 A 
BRANCH  15  19
HETATM   19  O   UNK N   1      29.561  17.205   3.878  0.00  0.00    -0.353 OA
HETATM   20  C   UNK N   1      29.625  16.096   3.065  0.00  0.00     0.210 C 
ENDBRANCH  15  19
BRANCH  16  21
HETATM   21  O   UNK N   1      27.988  17.761   6.196  0.00  0.00    -0.351 OA
HETATM   22  C   UNK N   1      27.390  18.967   5.912  0.00  0.00     0.210 C 
ENDBRANCH  16  21
BRANCH  17  23
HETATM   23  O   UNK N   1      29.173  17.805   8.620  0.00  0.00    -0.353 OA
HETATM   24  C   UNK N   1      29.631  18.507   9.715  0.00  0.00     0.210 C 
ENDBRANCH  17  23
ENDBRANCH  12  13
ENDBRANCH   7  12
BRANCH   6  25
HETATM   25  N   UNK N   1      34.680  18.879   8.493  0.00  0.00    -0.385 N 
HETATM   26  H   UNK N   1      35.331  19.557   8.785  0.00  0.00     0.157 HD
HETATM   27  H   UNK N   1      34.016  19.175   7.829  0.00  0.00     0.157 HD
ENDBRANCH   6  25
TORSDOF 6
ENDMDL
