MODEL 1
REMARK VINA RESULT:      -6.1      0.000      0.000
REMARK  13 active torsions:
REMARK  status: ('A' for Active; 'I' for Inactive)
REMARK    1  A    between atoms: O_2  and  C_3 
REMARK    2  A    between atoms: C_3  and  C_4 
REMARK    3  A    between atoms: C_4  and  O_5 
REMARK    4  A    between atoms: O_5  and  C_6 
REMARK    5  A    between atoms: C_6  and  C_7 
REMARK    6  A    between atoms: C_7  and  O_8 
REMARK    7  A    between atoms: O_8  and  C_9 
REMARK    8  A    between atoms: C_9  and  C_10 
REMARK    9  A    between atoms: C_10  and  O_11 
REMARK   10  A    between atoms: O_11  and  C_12 
REMARK   11  A    between atoms: C_17  and  C_18 
REMARK   12  A    between atoms: C_18  and  C_21 
REMARK   13  A    between atoms: C_21  and  C_22 
ROOT
HETATM    1  C   UNK N   1      34.750  12.301  15.466  0.00  0.00     0.068 A 
HETATM    2  C   UNK N   1      35.019  13.032  16.627  0.00  0.00     0.037 A 
HETATM    3  C   UNK N   1      35.200  12.378  17.850  0.00  0.00     0.011 A 
HETATM    4  C   UNK N   1      34.656  10.903  15.544  0.00  0.00     0.037 A 
HETATM    5  C   UNK N   1      34.837  10.253  16.765  0.00  0.00     0.011 A 
HETATM    6  C   UNK N   1      35.109  10.980  17.937  0.00  0.00    -0.050 A 
ENDROOT
BRANCH   1   7
HETATM    7  O   UNK N   1      34.608  12.953  14.286  0.00  0.00    -0.349 OA
BRANCH   7   8
HETATM    8  C   UNK N   1      35.598  13.743  13.736  0.00  0.00     0.201 C 
BRANCH   8   9
HETATM    9  C   UNK N   1      35.460  13.782  12.223  0.00  0.00     0.194 C 
BRANCH   9  10
HETATM   10  O   UNK N   1      34.296  14.472  11.880  0.00  0.00    -0.387 OA
BRANCH  10  11
HETATM   11  C   UNK N   1      34.628  15.228  10.757  0.00  0.00     0.193 C 
BRANCH  11  12
HETATM   12  C   UNK N   1      35.303  16.519  11.192  0.00  0.00     0.193 C 
BRANCH  12  13
HETATM   13  O   UNK N   1      35.661  17.275  10.073  0.00  0.00    -0.387 OA
BRANCH  13  14
HETATM   14  C   UNK N   1      34.615  17.097   9.163  0.00  0.00     0.193 C 
BRANCH  14  15
HETATM   15  C   UNK N   1      34.488  18.322   8.274  0.00  0.00     0.193 C 
BRANCH  15  16
HETATM   16  O   UNK N   1      34.487  17.934   6.934  0.00  0.00    -0.394 OA
HETATM   17  C   UNK N   1      33.192  17.471   6.705  0.00  0.00     0.201 C 
ENDBRANCH  15  16
ENDBRANCH  14  15
ENDBRANCH  13  14
ENDBRANCH  12  13
ENDBRANCH  11  12
ENDBRANCH  10  11
ENDBRANCH   9  10
ENDBRANCH   8   9
ENDBRANCH   7   8
ENDBRANCH   1   7
BRANCH   6  18
HETATM   18  C   UNK N   1      35.334  10.226  19.238  0.00  0.00    -0.020 C 
HETATM   19  C   UNK N   1      36.326  11.031  20.060  0.00  0.00     0.020 C 
HETATM   20  C   UNK N   1      35.996   8.887  18.948  0.00  0.00     0.020 C 
BRANCH  18  21
HETATM   21  C   UNK N   1      34.107  10.030  20.170  0.00  0.00     0.022 C 
BRANCH  21  22
HETATM   22  C   UNK N   1      33.370   8.680  20.333  0.00  0.00    -0.050 C 
HETATM   23  C   UNK N   1      33.530   7.759  19.138  0.00  0.00     0.014 C 
HETATM   24  C   UNK N   1      33.990   7.981  21.524  0.00  0.00     0.014 C 
HETATM   25  C   UNK N   1      31.898   8.853  20.631  0.00  0.00     0.014 C 
ENDBRANCH  21  22
ENDBRANCH  18  21
ENDBRANCH   6  18
TORSDOF 13
ENDMDL
MODEL 2
REMARK VINA RESULT:      -5.9      2.229      4.421
REMARK  13 active torsions:
REMARK  status: ('A' for Active; 'I' for Inactive)
REMARK    1  A    between atoms: O_2  and  C_3 
REMARK    2  A    between atoms: C_3  and  C_4 
REMARK    3  A    between atoms: C_4  and  O_5 
REMARK    4  A    between atoms: O_5  and  C_6 
REMARK    5  A    between atoms: C_6  and  C_7 
REMARK    6  A    between atoms: C_7  and  O_8 
REMARK    7  A    between atoms: O_8  and  C_9 
REMARK    8  A    between atoms: C_9  and  C_10 
REMARK    9  A    between atoms: C_10  and  O_11 
REMARK   10  A    between atoms: O_11  and  C_12 
REMARK   11  A    between atoms: C_17  and  C_18 
REMARK   12  A    between atoms: C_18  and  C_21 
REMARK   13  A    between atoms: C_21  and  C_22 
ROOT
HETATM    1  C   UNK N   1      35.873  14.499  12.473  0.00  0.00     0.068 A 
HETATM    2  C   UNK N   1      36.383  14.518  13.775  0.00  0.00     0.037 A 
HETATM    3  C   UNK N   1      36.738  13.326  14.415  0.00  0.00     0.011 A 
HETATM    4  C   UNK N   1      35.716  13.267  11.818  0.00  0.00     0.037 A 
HETATM    5  C   UNK N   1      36.070  12.080  12.458  0.00  0.00     0.011 A 
HETATM    6  C   UNK N   1      36.584  12.091  13.767  0.00  0.00    -0.050 A 
ENDROOT
BRANCH   1   7
HETATM    7  O   UNK N   1      35.564  15.668  11.862  0.00  0.00    -0.349 OA
BRANCH   7   8
HETATM    8  C   UNK N   1      35.924  15.958  10.560  0.00  0.00     0.201 C 
BRANCH   8   9
HETATM    9  C   UNK N   1      34.802  16.704   9.857  0.00  0.00     0.194 C 
BRANCH   9  10
HETATM   10  O   UNK N   1      35.271  17.945   9.423  0.00  0.00    -0.387 OA
BRANCH  10  11
HETATM   11  C   UNK N   1      34.520  18.250   8.288  0.00  0.00     0.193 C 
BRANCH  11  12
HETATM   12  C   UNK N   1      33.334  17.304   8.192  0.00  0.00     0.193 C 
BRANCH  12  13
HETATM   13  O   UNK N   1      32.663  17.498   6.981  0.00  0.00    -0.387 OA
BRANCH  13  14
HETATM   14  C   UNK N   1      33.650  17.395   5.996  0.00  0.00     0.193 C 
BRANCH  14  15
HETATM   15  C   UNK N   1      33.007  17.138   4.645  0.00  0.00     0.193 C 
BRANCH  15  16
HETATM   16  O   UNK N   1      31.764  17.768   4.586  0.00  0.00    -0.394 OA
HETATM   17  C   UNK N   1      30.927  16.835   3.977  0.00  0.00     0.201 C 
ENDBRANCH  15  16
ENDBRANCH  14  15
ENDBRANCH  13  14
ENDBRANCH  12  13
ENDBRANCH  11  12
ENDBRANCH  10  11
ENDBRANCH   9  10
ENDBRANCH   8   9
ENDBRANCH   7   8
ENDBRANCH   1   7
BRANCH   6  18
HETATM   18  C   UNK N   1      36.991  10.774  14.411  0.00  0.00    -0.020 C 
HETATM   19  C   UNK N   1      38.510  10.731  14.429  0.00  0.00     0.020 C 
HETATM   20  C   UNK N   1      36.534   9.613  13.541  0.00  0.00     0.020 C 
BRANCH  18  21
HETATM   21  C   UNK N   1      36.565  10.542  15.887  0.00  0.00     0.022 C 
BRANCH  21  22
HETATM   22  C   UNK N   1      35.135  10.806  16.412  0.00  0.00    -0.050 C 
HETATM   23  C   UNK N   1      34.078  10.770  15.323  0.00  0.00     0.014 C 
HETATM   24  C   UNK N   1      34.812   9.694  17.387  0.00  0.00     0.014 C 
HETATM   25  C   UNK N   1      35.024  12.111  17.167  0.00  0.00     0.014 C 
ENDBRANCH  21  22
ENDBRANCH  18  21
ENDBRANCH   6  18
TORSDOF 13
ENDMDL
MODEL 3
REMARK VINA RESULT:      -5.8     20.695     24.765
REMARK  13 active torsions:
REMARK  status: ('A' for Active; 'I' for Inactive)
REMARK    1  A    between atoms: O_2  and  C_3 
REMARK    2  A    between atoms: C_3  and  C_4 
REMARK    3  A    between atoms: C_4  and  O_5 
REMARK    4  A    between atoms: O_5  and  C_6 
REMARK    5  A    between atoms: C_6  and  C_7 
REMARK    6  A    between atoms: C_7  and  O_8 
REMARK    7  A    between atoms: O_8  and  C_9 
REMARK    8  A    between atoms: C_9  and  C_10 
REMARK    9  A    between atoms: C_10  and  O_11 
REMARK   10  A    between atoms: O_11  and  C_12 
REMARK   11  A    between atoms: C_17  and  C_18 
REMARK   12  A    between atoms: C_18  and  C_21 
REMARK   13  A    between atoms: C_21  and  C_22 
ROOT
HETATM    1  C   UNK N   1      28.354  23.905  -3.522  0.00  0.00     0.068 A 
HETATM    2  C   UNK N   1      27.084  24.377  -3.177  0.00  0.00     0.037 A 
HETATM    3  C   UNK N   1      26.454  25.352  -3.959  0.00  0.00     0.011 A 
HETATM    4  C   UNK N   1      28.992  24.425  -4.659  0.00  0.00     0.037 A 
HETATM    5  C   UNK N   1      28.362  25.397  -5.436  0.00  0.00     0.011 A 
HETATM    6  C   UNK N   1      27.085  25.877  -5.096  0.00  0.00    -0.050 A 
ENDROOT
BRANCH   1   7
HETATM    7  O   UNK N   1      28.933  22.939  -2.768  0.00  0.00    -0.349 OA
BRANCH   7   8
HETATM    8  C   UNK N   1      30.234  23.017  -2.311  0.00  0.00     0.201 C 
BRANCH   8   9
HETATM    9  C   UNK N   1      31.086  21.939  -2.960  0.00  0.00     0.194 C 
BRANCH   9  10
HETATM   10  O   UNK N   1      32.246  21.748  -2.206  0.00  0.00    -0.387 OA
BRANCH  10  11
HETATM   11  C   UNK N   1      33.117  21.044  -3.037  0.00  0.00     0.193 C 
BRANCH  11  12
HETATM   12  C   UNK N   1      32.355  20.509  -4.239  0.00  0.00     0.193 C 
BRANCH  12  13
HETATM   13  O   UNK N   1      33.223  19.816  -5.087  0.00  0.00    -0.387 OA
BRANCH  13  14
HETATM   14  C   UNK N   1      33.907  18.922  -4.259  0.00  0.00     0.193 C 
BRANCH  14  15
HETATM   15  C   UNK N   1      34.881  18.096  -5.082  0.00  0.00     0.193 C 
BRANCH  15  16
HETATM   16  O   UNK N   1      36.170  18.241  -4.570  0.00  0.00    -0.394 OA
HETATM   17  C   UNK N   1      36.825  19.051  -5.496  0.00  0.00     0.201 C 
ENDBRANCH  15  16
ENDBRANCH  14  15
ENDBRANCH  13  14
ENDBRANCH  12  13
ENDBRANCH  11  12
ENDBRANCH  10  11
ENDBRANCH   9  10
ENDBRANCH   8   9
ENDBRANCH   7   8
ENDBRANCH   1   7
BRANCH   6  18
HETATM   18  C   UNK N   1      26.422  26.911  -5.994  0.00  0.00    -0.020 C 
HETATM   19  C   UNK N   1      24.959  26.987  -5.590  0.00  0.00     0.020 C 
HETATM   20  C   UNK N   1      26.449  26.430  -7.438  0.00  0.00     0.020 C 
BRANCH  18  21
HETATM   21  C   UNK N   1      26.941  28.372  -5.903  0.00  0.00     0.022 C 
BRANCH  21  22
HETATM   22  C   UNK N   1      27.332  29.054  -4.571  0.00  0.00    -0.050 C 
HETATM   23  C   UNK N   1      28.609  28.503  -3.965  0.00  0.00     0.014 C 
HETATM   24  C   UNK N   1      27.576  30.516  -4.880  0.00  0.00     0.014 C 
HETATM   25  C   UNK N   1      26.228  28.993  -3.540  0.00  0.00     0.014 C 
ENDBRANCH  21  22
ENDBRANCH  18  21
ENDBRANCH   6  18
TORSDOF 13
ENDMDL
MODEL 4
REMARK VINA RESULT:      -5.8      1.675      2.816
REMARK  13 active torsions:
REMARK  status: ('A' for Active; 'I' for Inactive)
REMARK    1  A    between atoms: O_2  and  C_3 
REMARK    2  A    between atoms: C_3  and  C_4 
REMARK    3  A    between atoms: C_4  and  O_5 
REMARK    4  A    between atoms: O_5  and  C_6 
REMARK    5  A    between atoms: C_6  and  C_7 
REMARK    6  A    between atoms: C_7  and  O_8 
REMARK    7  A    between atoms: O_8  and  C_9 
REMARK    8  A    between atoms: C_9  and  C_10 
REMARK    9  A    between atoms: C_10  and  O_11 
REMARK   10  A    between atoms: O_11  and  C_12 
REMARK   11  A    between atoms: C_17  and  C_18 
REMARK   12  A    between atoms: C_18  and  C_21 
REMARK   13  A    between atoms: C_21  and  C_22 
ROOT
HETATM    1  C   UNK N   1      34.739  12.389  14.285  0.00  0.00     0.068 A 
HETATM    2  C   UNK N   1      35.623  12.916  15.232  0.00  0.00     0.037 A 
HETATM    3  C   UNK N   1      35.861  12.238  16.433  0.00  0.00     0.011 A 
HETATM    4  C   UNK N   1      34.087  11.176  14.558  0.00  0.00     0.037 A 
HETATM    5  C   UNK N   1      34.325  10.503  15.756  0.00  0.00     0.011 A 
HETATM    6  C   UNK N   1      35.214  11.026  16.713  0.00  0.00    -0.050 A 
ENDROOT
BRANCH   1   7
HETATM    7  O   UNK N   1      34.545  13.046  13.116  0.00  0.00    -0.349 OA
BRANCH   7   8
HETATM    8  C   UNK N   1      35.577  13.392  12.265  0.00  0.00     0.201 C 
BRANCH   8   9
HETATM    9  C   UNK N   1      35.751  14.902  12.235  0.00  0.00     0.194 C 
BRANCH   9  10
HETATM   10  O   UNK N   1      36.232  15.289  10.983  0.00  0.00    -0.387 OA
BRANCH  10  11
HETATM   11  C   UNK N   1      35.681  14.382  10.077  0.00  0.00     0.193 C 
BRANCH  11  12
HETATM   12  C   UNK N   1      34.907  15.136   9.009  0.00  0.00     0.193 C 
BRANCH  12  13
HETATM   13  O   UNK N   1      33.791  15.759   9.574  0.00  0.00    -0.387 OA
BRANCH  13  14
HETATM   14  C   UNK N   1      33.452  16.781   8.683  0.00  0.00     0.193 C 
BRANCH  14  15
HETATM   15  C   UNK N   1      34.646  17.694   8.466  0.00  0.00     0.193 C 
BRANCH  15  16
HETATM   16  O   UNK N   1      34.533  18.330   7.230  0.00  0.00    -0.394 OA
HETATM   17  C   UNK N   1      33.630  17.546   6.514  0.00  0.00     0.201 C 
ENDBRANCH  15  16
ENDBRANCH  14  15
ENDBRANCH  13  14
ENDBRANCH  12  13
ENDBRANCH  11  12
ENDBRANCH  10  11
ENDBRANCH   9  10
ENDBRANCH   8   9
ENDBRANCH   7   8
ENDBRANCH   1   7
BRANCH   6  18
HETATM   18  C   UNK N   1      35.471  10.239  17.989  0.00  0.00    -0.020 C 
HETATM   19  C   UNK N   1      34.294   9.298  18.184  0.00  0.00     0.020 C 
HETATM   20  C   UNK N   1      35.475  11.182  19.183  0.00  0.00     0.020 C 
BRANCH  18  21
HETATM   21  C   UNK N   1      36.726   9.323  18.021  0.00  0.00     0.022 C 
BRANCH  21  22
HETATM   22  C   UNK N   1      37.135   8.400  16.850  0.00  0.00    -0.050 C 
HETATM   23  C   UNK N   1      37.659   9.155  15.643  0.00  0.00     0.014 C 
HETATM   24  C   UNK N   1      38.262   7.523  17.354  0.00  0.00     0.014 C 
HETATM   25  C   UNK N   1      36.015   7.483  16.414  0.00  0.00     0.014 C 
ENDBRANCH  21  22
ENDBRANCH  18  21
ENDBRANCH   6  18
TORSDOF 13
ENDMDL
MODEL 5
REMARK VINA RESULT:      -5.8     11.702     16.145
REMARK  13 active torsions:
REMARK  status: ('A' for Active; 'I' for Inactive)
REMARK    1  A    between atoms: O_2  and  C_3 
REMARK    2  A    between atoms: C_3  and  C_4 
REMARK    3  A    between atoms: C_4  and  O_5 
REMARK    4  A    between atoms: O_5  and  C_6 
REMARK    5  A    between atoms: C_6  and  C_7 
REMARK    6  A    between atoms: C_7  and  O_8 
REMARK    7  A    between atoms: O_8  and  C_9 
REMARK    8  A    between atoms: C_9  and  C_10 
REMARK    9  A    between atoms: C_10  and  O_11 
REMARK   10  A    between atoms: O_11  and  C_12 
REMARK   11  A    between atoms: C_17  and  C_18 
REMARK   12  A    between atoms: C_18  and  C_21 
REMARK   13  A    between atoms: C_21  and  C_22 
ROOT
HETATM    1  C   UNK N   1      26.211  19.203   3.459  0.00  0.00     0.068 A 
HETATM    2  C   UNK N   1      27.325  19.926   3.897  0.00  0.00     0.037 A 
HETATM    3  C   UNK N   1      28.337  19.294   4.628  0.00  0.00     0.011 A 
HETATM    4  C   UNK N   1      26.116  17.837   3.769  0.00  0.00     0.037 A 
HETATM    5  C   UNK N   1      27.126  17.210   4.498  0.00  0.00     0.011 A 
HETATM    6  C   UNK N   1      28.250  17.929   4.941  0.00  0.00    -0.050 A 
ENDROOT
BRANCH   1   7
HETATM    7  O   UNK N   1      25.257  19.828   2.727  0.00  0.00    -0.349 OA
BRANCH   7   8
HETATM    8  C   UNK N   1      24.279  20.627   3.286  0.00  0.00     0.201 C 
BRANCH   8   9
HETATM    9  C   UNK N   1      22.906  20.014   3.062  0.00  0.00     0.194 C 
BRANCH   9  10
HETATM   10  O   UNK N   1      21.997  21.020   2.729  0.00  0.00    -0.387 OA
BRANCH  10  11
HETATM   11  C   UNK N   1      20.759  20.568   3.185  0.00  0.00     0.193 C 
BRANCH  11  12
HETATM   12  C   UNK N   1      20.210  19.528   2.223  0.00  0.00     0.193 C 
BRANCH  12  13
HETATM   13  O   UNK N   1      19.393  18.625   2.907  0.00  0.00    -0.387 OA
BRANCH  13  14
HETATM   14  C   UNK N   1      20.139  17.445   2.986  0.00  0.00     0.193 C 
BRANCH  14  15
HETATM   15  C   UNK N   1      20.276  17.015   4.436  0.00  0.00     0.193 C 
BRANCH  15  16
HETATM   16  O   UNK N   1      21.575  17.262   4.879  0.00  0.00    -0.394 OA
HETATM   17  C   UNK N   1      21.419  18.139   5.951  0.00  0.00     0.201 C 
ENDBRANCH  15  16
ENDBRANCH  14  15
ENDBRANCH  13  14
ENDBRANCH  12  13
ENDBRANCH  11  12
ENDBRANCH  10  11
ENDBRANCH   9  10
ENDBRANCH   8   9
ENDBRANCH   7   8
ENDBRANCH   1   7
BRANCH   6  18
HETATM   18  C   UNK N   1      29.343  17.194   5.702  0.00  0.00    -0.020 C 
HETATM   19  C   UNK N   1      30.627  17.345   4.904  0.00  0.00     0.020 C 
HETATM   20  C   UNK N   1      29.030  15.706   5.743  0.00  0.00     0.020 C 
BRANCH  18  21
HETATM   21  C   UNK N   1      29.692  17.711   7.124  0.00  0.00     0.022 C 
BRANCH  21  22
HETATM   22  C   UNK N   1      28.649  17.851   8.258  0.00  0.00    -0.050 C 
HETATM   23  C   UNK N   1      29.255  17.765   9.647  0.00  0.00     0.014 C 
HETATM   24  C   UNK N   1      28.032  19.227   8.122  0.00  0.00     0.014 C 
HETATM   25  C   UNK N   1      27.528  16.843   8.144  0.00  0.00     0.014 C 
ENDBRANCH  21  22
ENDBRANCH  18  21
ENDBRANCH   6  18
TORSDOF 13
ENDMDL
MODEL 6
REMARK VINA RESULT:      -5.8      3.488     11.806
REMARK  13 active torsions:
REMARK  status: ('A' for Active; 'I' for Inactive)
REMARK    1  A    between atoms: O_2  and  C_3 
REMARK    2  A    between atoms: C_3  and  C_4 
REMARK    3  A    between atoms: C_4  and  O_5 
REMARK    4  A    between atoms: O_5  and  C_6 
REMARK    5  A    between atoms: C_6  and  C_7 
REMARK    6  A    between atoms: C_7  and  O_8 
REMARK    7  A    between atoms: O_8  and  C_9 
REMARK    8  A    between atoms: C_9  and  C_10 
REMARK    9  A    between atoms: C_10  and  O_11 
REMARK   10  A    between atoms: O_11  and  C_12 
REMARK   11  A    between atoms: C_17  and  C_18 
REMARK   12  A    between atoms: C_18  and  C_21 
REMARK   13  A    between atoms: C_21  and  C_22 
ROOT
HETATM    1  C   UNK N   1      34.260  17.169   8.778  0.00  0.00     0.068 A 
HETATM    2  C   UNK N   1      34.390  17.864   7.572  0.00  0.00     0.037 A 
HETATM    3  C   UNK N   1      33.473  17.662   6.535  0.00  0.00     0.011 A 
HETATM    4  C   UNK N   1      33.202  16.260   8.933  0.00  0.00     0.037 A 
HETATM    5  C   UNK N   1      32.289  16.059   7.898  0.00  0.00     0.011 A 
HETATM    6  C   UNK N   1      32.413  16.755   6.682  0.00  0.00    -0.050 A 
ENDROOT
BRANCH   1   7
HETATM    7  O   UNK N   1      35.142  17.403   9.781  0.00  0.00    -0.349 OA
BRANCH   7   8
HETATM    8  C   UNK N   1      35.345  16.525  10.827  0.00  0.00     0.201 C 
BRANCH   8   9
HETATM    9  C   UNK N   1      36.375  15.475  10.441  0.00  0.00     0.194 C 
BRANCH   9  10
HETATM   10  O   UNK N   1      35.811  14.204  10.567  0.00  0.00    -0.387 OA
BRANCH  10  11
HETATM   11  C   UNK N   1      34.924  14.295  11.639  0.00  0.00     0.193 C 
BRANCH  11  12
HETATM   12  C   UNK N   1      35.131  13.114  12.574  0.00  0.00     0.193 C 
BRANCH  12  13
HETATM   13  O   UNK N   1      36.393  13.190  13.169  0.00  0.00    -0.387 OA
BRANCH  13  14
HETATM   14  C   UNK N   1      36.337  14.312  14.001  0.00  0.00     0.193 C 
BRANCH  14  15
HETATM   15  C   UNK N   1      36.863  13.959  15.382  0.00  0.00     0.193 C 
BRANCH  15  16
HETATM   16  O   UNK N   1      36.294  12.759  15.810  0.00  0.00    -0.394 OA
HETATM   17  C   UNK N   1      35.196  13.146  16.576  0.00  0.00     0.201 C 
ENDBRANCH  15  16
ENDBRANCH  14  15
ENDBRANCH  13  14
ENDBRANCH  12  13
ENDBRANCH  11  12
ENDBRANCH  10  11
ENDBRANCH   9  10
ENDBRANCH   8   9
ENDBRANCH   7   8
ENDBRANCH   1   7
BRANCH   6  18
HETATM   18  C   UNK N   1      31.373  16.531   5.595  0.00  0.00    -0.020 C 
HETATM   19  C   UNK N   1      31.533  17.650   4.580  0.00  0.00     0.020 C 
HETATM   20  C   UNK N   1      29.976  16.674   6.182  0.00  0.00     0.020 C 
BRANCH  18  21
HETATM   21  C   UNK N   1      31.478  15.221   4.767  0.00  0.00     0.022 C 
BRANCH  21  22
HETATM   22  C   UNK N   1      32.787  14.741   4.097  0.00  0.00    -0.050 C 
HETATM   23  C   UNK N   1      33.810  14.211   5.084  0.00  0.00     0.014 C 
HETATM   24  C   UNK N   1      32.416  13.596   3.177  0.00  0.00     0.014 C 
HETATM   25  C   UNK N   1      33.429  15.811   3.244  0.00  0.00     0.014 C 
ENDBRANCH  21  22
ENDBRANCH  18  21
ENDBRANCH   6  18
TORSDOF 13
ENDMDL
MODEL 7
REMARK VINA RESULT:      -5.7     20.716     25.044
REMARK  13 active torsions:
REMARK  status: ('A' for Active; 'I' for Inactive)
REMARK    1  A    between atoms: O_2  and  C_3 
REMARK    2  A    between atoms: C_3  and  C_4 
REMARK    3  A    between atoms: C_4  and  O_5 
REMARK    4  A    between atoms: O_5  and  C_6 
REMARK    5  A    between atoms: C_6  and  C_7 
REMARK    6  A    between atoms: C_7  and  O_8 
REMARK    7  A    between atoms: O_8  and  C_9 
REMARK    8  A    between atoms: C_9  and  C_10 
REMARK    9  A    between atoms: C_10  and  O_11 
REMARK   10  A    between atoms: O_11  and  C_12 
REMARK   11  A    between atoms: C_17  and  C_18 
REMARK   12  A    between atoms: C_18  and  C_21 
REMARK   13  A    between atoms: C_21  and  C_22 
ROOT
HETATM    1  C   UNK N   1      28.365  23.983  -3.549  0.00  0.00     0.068 A 
HETATM    2  C   UNK N   1      27.030  24.335  -3.329  0.00  0.00     0.037 A 
HETATM    3  C   UNK N   1      26.419  25.323  -4.109  0.00  0.00     0.011 A 
HETATM    4  C   UNK N   1      29.088  24.638  -4.558  0.00  0.00     0.037 A 
HETATM    5  C   UNK N   1      28.478  25.623  -5.334  0.00  0.00     0.011 A 
HETATM    6  C   UNK N   1      27.135  25.983  -5.120  0.00  0.00    -0.050 A 
ENDROOT
BRANCH   1   7
HETATM    7  O   UNK N   1      28.927  23.002  -2.802  0.00  0.00    -0.349 OA
BRANCH   7   8
HETATM    8  C   UNK N   1      30.226  23.059  -2.335  0.00  0.00     0.201 C 
BRANCH   8   9
HETATM    9  C   UNK N   1      31.055  21.943  -2.949  0.00  0.00     0.194 C 
BRANCH   9  10
HETATM   10  O   UNK N   1      32.213  21.755  -2.192  0.00  0.00    -0.387 OA
BRANCH  10  11
HETATM   11  C   UNK N   1      33.108  21.101  -3.037  0.00  0.00     0.193 C 
BRANCH  11  12
HETATM   12  C   UNK N   1      33.176  21.829  -4.370  0.00  0.00     0.193 C 
BRANCH  12  13
HETATM   13  O   UNK N   1      33.461  20.925  -5.397  0.00  0.00    -0.387 OA
BRANCH  13  14
HETATM   14  C   UNK N   1      32.466  21.137  -6.356  0.00  0.00     0.193 C 
BRANCH  14  15
HETATM   15  C   UNK N   1      31.386  20.078  -6.224  0.00  0.00     0.193 C 
BRANCH  15  16
HETATM   16  O   UNK N   1      30.859  19.783  -7.481  0.00  0.00    -0.394 OA
HETATM   17  C   UNK N   1      29.494  20.036  -7.355  0.00  0.00     0.201 C 
ENDBRANCH  15  16
ENDBRANCH  14  15
ENDBRANCH  13  14
ENDBRANCH  12  13
ENDBRANCH  11  12
ENDBRANCH  10  11
ENDBRANCH   9  10
ENDBRANCH   8   9
ENDBRANCH   7   8
ENDBRANCH   1   7
BRANCH   6  18
HETATM   18  C   UNK N   1      26.501  27.036  -6.015  0.00  0.00    -0.020 C 
HETATM   19  C   UNK N   1      25.034  27.130  -5.632  0.00  0.00     0.020 C 
HETATM   20  C   UNK N   1      26.543  26.573  -7.464  0.00  0.00     0.020 C 
BRANCH  18  21
HETATM   21  C   UNK N   1      27.040  28.488  -5.898  0.00  0.00     0.022 C 
BRANCH  21  22
HETATM   22  C   UNK N   1      27.348  29.175  -4.547  0.00  0.00    -0.050 C 
HETATM   23  C   UNK N   1      28.646  28.707  -3.916  0.00  0.00     0.014 C 
HETATM   24  C   UNK N   1      27.495  30.656  -4.829  0.00  0.00     0.014 C 
HETATM   25  C   UNK N   1      26.226  29.019  -3.546  0.00  0.00     0.014 C 
ENDBRANCH  21  22
ENDBRANCH  18  21
ENDBRANCH   6  18
TORSDOF 13
ENDMDL
MODEL 8
REMARK VINA RESULT:      -5.7      4.547     12.590
REMARK  13 active torsions:
REMARK  status: ('A' for Active; 'I' for Inactive)
REMARK    1  A    between atoms: O_2  and  C_3 
REMARK    2  A    between atoms: C_3  and  C_4 
REMARK    3  A    between atoms: C_4  and  O_5 
REMARK    4  A    between atoms: O_5  and  C_6 
REMARK    5  A    between atoms: C_6  and  C_7 
REMARK    6  A    between atoms: C_7  and  O_8 
REMARK    7  A    between atoms: O_8  and  C_9 
REMARK    8  A    between atoms: C_9  and  C_10 
REMARK    9  A    between atoms: C_10  and  O_11 
REMARK   10  A    between atoms: O_11  and  C_12 
REMARK   11  A    between atoms: C_17  and  C_18 
REMARK   12  A    between atoms: C_18  and  C_21 
REMARK   13  A    between atoms: C_21  and  C_22 
ROOT
HETATM    1  C   UNK N   1      32.618  17.528   7.578  0.00  0.00     0.068 A 
HETATM    2  C   UNK N   1      31.895  17.008   6.500  0.00  0.00     0.037 A 
HETATM    3  C   UNK N   1      30.499  17.094   6.477  0.00  0.00     0.011 A 
HETATM    4  C   UNK N   1      31.926  18.130   8.640  0.00  0.00     0.037 A 
HETATM    5  C   UNK N   1      30.534  18.214   8.615  0.00  0.00     0.011 A 
HETATM    6  C   UNK N   1      29.799  17.695   7.534  0.00  0.00    -0.050 A 
ENDROOT
BRANCH   1   7
HETATM    7  O   UNK N   1      33.972  17.461   7.566  0.00  0.00    -0.349 OA
BRANCH   7   8
HETATM    8  C   UNK N   1      34.729  17.292   8.709  0.00  0.00     0.201 C 
BRANCH   8   9
HETATM    9  C   UNK N   1      34.882  15.813   9.025  0.00  0.00     0.194 C 
BRANCH   9  10
HETATM   10  O   UNK N   1      34.038  15.476  10.085  0.00  0.00    -0.387 OA
BRANCH  10  11
HETATM   11  C   UNK N   1      34.876  15.291  11.184  0.00  0.00     0.193 C 
BRANCH  11  12
HETATM   12  C   UNK N   1      34.866  13.827  11.593  0.00  0.00     0.193 C 
BRANCH  12  13
HETATM   13  O   UNK N   1      34.654  13.716  12.970  0.00  0.00    -0.387 OA
BRANCH  13  14
HETATM   14  C   UNK N   1      35.319  12.545  13.348  0.00  0.00     0.193 C 
BRANCH  14  15
HETATM   15  C   UNK N   1      36.705  12.883  13.868  0.00  0.00     0.193 C 
BRANCH  15  16
HETATM   16  O   UNK N   1      37.040  12.020  14.911  0.00  0.00    -0.394 OA
HETATM   17  C   UNK N   1      37.976  11.148  14.357  0.00  0.00     0.201 C 
ENDBRANCH  15  16
ENDBRANCH  14  15
ENDBRANCH  13  14
ENDBRANCH  12  13
ENDBRANCH  11  12
ENDBRANCH  10  11
ENDBRANCH   9  10
ENDBRANCH   8   9
ENDBRANCH   7   8
ENDBRANCH   1   7
BRANCH   6  18
HETATM   18  C   UNK N   1      28.285  17.841   7.533  0.00  0.00    -0.020 C 
HETATM   19  C   UNK N   1      27.787  17.400   8.899  0.00  0.00     0.020 C 
HETATM   20  C   UNK N   1      27.677  16.883   6.519  0.00  0.00     0.020 C 
BRANCH  18  21
HETATM   21  C   UNK N   1      27.708  19.270   7.337  0.00  0.00     0.022 C 
BRANCH  21  22
HETATM   22  C   UNK N   1      27.380  19.873   5.951  0.00  0.00    -0.050 C 
HETATM   23  C   UNK N   1      25.988  19.524   5.457  0.00  0.00     0.014 C 
HETATM   24  C   UNK N   1      27.439  21.378   6.101  0.00  0.00     0.014 C 
HETATM   25  C   UNK N   1      28.391  19.488   4.896  0.00  0.00     0.014 C 
ENDBRANCH  21  22
ENDBRANCH  18  21
ENDBRANCH   6  18
TORSDOF 13
ENDMDL
MODEL 9
REMARK VINA RESULT:      -5.7      1.458      2.242
REMARK  13 active torsions:
REMARK  status: ('A' for Active; 'I' for Inactive)
REMARK    1  A    between atoms: O_2  and  C_3 
REMARK    2  A    between atoms: C_3  and  C_4 
REMARK    3  A    between atoms: C_4  and  O_5 
REMARK    4  A    between atoms: O_5  and  C_6 
REMARK    5  A    between atoms: C_6  and  C_7 
REMARK    6  A    between atoms: C_7  and  O_8 
REMARK    7  A    between atoms: O_8  and  C_9 
REMARK    8  A    between atoms: C_9  and  C_10 
REMARK    9  A    between atoms: C_10  and  O_11 
REMARK   10  A    between atoms: O_11  and  C_12 
REMARK   11  A    between atoms: C_17  and  C_18 
REMARK   12  A    between atoms: C_18  and  C_21 
REMARK   13  A    between atoms: C_21  and  C_22 
ROOT
HETATM    1  C   UNK N   1      34.942  12.042  14.435  0.00  0.00     0.068 A 
HETATM    2  C   UNK N   1      36.259  12.090  14.901  0.00  0.00     0.037 A 
HETATM    3  C   UNK N   1      36.725  11.131  15.808  0.00  0.00     0.011 A 
HETATM    4  C   UNK N   1      34.090  11.025  14.894  0.00  0.00     0.037 A 
HETATM    5  C   UNK N   1      34.556  10.071  15.799  0.00  0.00     0.011 A 
HETATM    6  C   UNK N   1      35.880  10.112  16.272  0.00  0.00    -0.050 A 
ENDROOT
BRANCH   1   7
HETATM    7  O   UNK N   1      34.520  12.962  13.534  0.00  0.00    -0.349 OA
BRANCH   7   8
HETATM    8  C   UNK N   1      34.899  12.947  12.206  0.00  0.00     0.201 C 
BRANCH   8   9
HETATM    9  C   UNK N   1      35.372  14.327  11.778  0.00  0.00     0.194 C 
BRANCH   9  10
HETATM   10  O   UNK N   1      36.096  14.222  10.590  0.00  0.00    -0.387 OA
BRANCH  10  11
HETATM   11  C   UNK N   1      35.739  15.339   9.836  0.00  0.00     0.193 C 
BRANCH  11  12
HETATM   12  C   UNK N   1      35.623  16.552  10.745  0.00  0.00     0.193 C 
BRANCH  12  13
HETATM   13  O   UNK N   1      35.302  17.686   9.994  0.00  0.00    -0.387 OA
BRANCH  13  14
HETATM   14  C   UNK N   1      34.715  17.195   8.824  0.00  0.00     0.193 C 
BRANCH  14  15
HETATM   15  C   UNK N   1      34.097  18.337   8.037  0.00  0.00     0.193 C 
BRANCH  15  16
HETATM   16  O   UNK N   1      32.853  17.949   7.540  0.00  0.00    -0.394 OA
HETATM   17  C   UNK N   1      32.911  16.557   7.502  0.00  0.00     0.201 C 
ENDBRANCH  15  16
ENDBRANCH  14  15
ENDBRANCH  13  14
ENDBRANCH  12  13
ENDBRANCH  11  12
ENDBRANCH  10  11
ENDBRANCH   9  10
ENDBRANCH   8   9
ENDBRANCH   7   8
ENDBRANCH   1   7
BRANCH   6  18
HETATM   18  C   UNK N   1      36.355   9.029  17.229  0.00  0.00    -0.020 C 
HETATM   19  C   UNK N   1      37.690   8.522  16.710  0.00  0.00     0.020 C 
HETATM   20  C   UNK N   1      35.396   7.849  17.187  0.00  0.00     0.020 C 
BRANCH  18  21
HETATM   21  C   UNK N   1      36.629   9.449  18.699  0.00  0.00     0.022 C 
BRANCH  21  22
HETATM   22  C   UNK N   1      35.553  10.069  19.622  0.00  0.00    -0.050 C 
HETATM   23  C   UNK N   1      35.914  10.006  21.094  0.00  0.00     0.014 C 
HETATM   24  C   UNK N   1      35.443  11.532  19.248  0.00  0.00     0.014 C 
HETATM   25  C   UNK N   1      34.188   9.452  19.419  0.00  0.00     0.014 C 
ENDBRANCH  21  22
ENDBRANCH  18  21
ENDBRANCH   6  18
TORSDOF 13
ENDMDL
