MODEL 1
REMARK VINA RESULT:      -6.9      0.000      0.000
REMARK  8 active torsions:
REMARK  status: ('A' for Active; 'I' for Inactive)
REMARK    1  A    between atoms: N_3  and  C_4 
REMARK    2  A    between atoms: C_4  and  C_5 
REMARK    3  A    between atoms: N_7  and  C_8 
REMARK    4  A    between atoms: C_8  and  C_9 
REMARK    5  A    between atoms: C_9  and  C_10 
REMARK    6  A    between atoms: C_19  and  C_20 
REMARK    7  A    between atoms: C_20  and  C_21 
REMARK    8  A    between atoms: C_24  and  N_27 
REMARK       I    between atoms: N_27  and  C_28 
ROOT
HETATM    1  O   UNK N   1      24.501  17.292   3.844  0.00  0.00    -0.246 OA
HETATM    2  C   UNK N   1      25.700  17.512   3.924  0.00  0.00     0.333 A 
HETATM    3  N   UNK N   1      26.161  18.812   4.156  0.00  0.00    -0.261 N 
HETATM    4  N   UNK N   1      26.600  16.466   3.794  0.00  0.00    -0.283 N 
HETATM    5  C   UNK N   1      27.923  16.747   3.915  0.00  0.00     0.145 A 
HETATM    6  N   UNK N   1      28.935  15.874   3.872  0.00  0.00    -0.330 N 
ATOM      7  HN  UNK N   1      28.891  14.868   3.707  1.00  0.00     0.168 HD
HETATM    8  C   UNK N   1      28.392  17.988   4.146  0.00  0.00     0.147 A 
HETATM    9  C   UNK N   1      27.522  19.057   4.265  0.00  0.00     0.282 A 
HETATM   10  O   UNK N   1      27.946  20.181   4.480  0.00  0.00    -0.265 OA
HETATM   11  N   UNK N   1      29.732  17.955   4.264  0.00  0.00    -0.338 N 
HETATM   12  C   UNK N   1      30.034  16.640   4.099  0.00  0.00     0.087 A 
HETATM   13  H   UNK N   1      30.347  18.705   4.432  0.00  0.00     0.167 HD
ENDROOT
BRANCH  12  14
HETATM   14  C   UNK N   1      31.412  16.067   4.311  0.00  0.00     0.115 C 
BRANCH  14  15
HETATM   15  C   UNK N   1      31.982  16.554   5.610  0.00  0.00    -0.051 A 
HETATM   16  C   UNK N   1      33.132  17.348   5.626  0.00  0.00     0.010 A 
HETATM   17  C   UNK N   1      33.727  17.692   6.846  0.00  0.00     0.030 A 
HETATM   18  C   UNK N   1      33.194  17.223   8.054  0.00  0.00     0.034 A 
HETATM   19  C   UNK N   1      32.016  16.463   8.032  0.00  0.00     0.030 A 
HETATM   20  C   UNK N   1      31.411  16.137   6.820  0.00  0.00     0.010 A 
BRANCH  18  21
HETATM   21  N   UNK N   1      33.882  17.514   9.268  0.00  0.00    -0.328 N 
HETATM   22  C   UNK N   1      34.810  16.730   9.885  0.00  0.00     0.218 C 
HETATM   23  O   UNK N   1      35.305  17.112  10.932  0.00  0.00    -0.274 OA
HETATM   24  C   UNK N   1      35.297  15.441   9.299  0.00  0.00     0.117 C 
HETATM   25  H   UNK N   1      33.666  18.370   9.703  0.00  0.00     0.169 HD
ENDBRANCH  18  21
ENDBRANCH  14  15
ENDBRANCH  12  14
BRANCH   4  26
HETATM   26  C   UNK N   1      26.142  15.101   3.530  0.00  0.00     0.135 C 
BRANCH  26  27
HETATM   27  C   UNK N   1      25.911  14.866   2.043  0.00  0.00     0.020 C 
BRANCH  27  28
HETATM   28  C   UNK N   1      24.834  13.813   1.842  0.00  0.00    -0.003 C 
HETATM   29  C   UNK N   1      23.963  14.162   0.647  0.00  0.00     0.005 C 
ENDBRANCH  27  28
ENDBRANCH  26  27
ENDBRANCH   4  26
BRANCH   3  30
HETATM   30  C   UNK N   1      25.217  19.921   4.325  0.00  0.00     0.163 C 
BRANCH  30  31
HETATM   31  C   UNK N   1      24.763  20.461   3.009  0.00  0.00    -0.017 C 
HETATM   32  C   UNK N   1      23.464  20.622   2.774  0.00  0.00     0.008 C 
ENDBRANCH  30  31
ENDBRANCH   3  30
TORSDOF 8
ENDMDL
MODEL 2
REMARK VINA RESULT:      -6.8      5.681      8.280
REMARK  8 active torsions:
REMARK  status: ('A' for Active; 'I' for Inactive)
REMARK    1  A    between atoms: N_3  and  C_4 
REMARK    2  A    between atoms: C_4  and  C_5 
REMARK    3  A    between atoms: N_7  and  C_8 
REMARK    4  A    between atoms: C_8  and  C_9 
REMARK    5  A    between atoms: C_9  and  C_10 
REMARK    6  A    between atoms: C_19  and  C_20 
REMARK    7  A    between atoms: C_20  and  C_21 
REMARK    8  A    between atoms: C_24  and  N_27 
REMARK       I    between atoms: N_27  and  C_28 
ROOT
HETATM    1  O   UNK N   1      19.596  14.330   9.393  0.00  0.00    -0.246 OA
HETATM    2  C   UNK N   1      20.538  14.594   8.661  0.00  0.00     0.333 A 
HETATM    3  N   UNK N   1      21.653  13.751   8.623  0.00  0.00    -0.261 N 
HETATM    4  N   UNK N   1      20.492  15.727   7.864  0.00  0.00    -0.283 N 
HETATM    5  C   UNK N   1      21.548  15.971   7.046  0.00  0.00     0.145 A 
HETATM    6  N   UNK N   1      21.668  16.976   6.172  0.00  0.00    -0.330 N 
ATOM      7  HN  UNK N   1      21.015  17.739   5.997  1.00  0.00     0.168 HD
HETATM    8  C   UNK N   1      22.629  15.171   6.983  0.00  0.00     0.147 A 
HETATM    9  C   UNK N   1      22.714  14.042   7.777  0.00  0.00     0.282 A 
HETATM   10  O   UNK N   1      23.692  13.313   7.717  0.00  0.00    -0.265 OA
HETATM   11  N   UNK N   1      23.488  15.635   6.057  0.00  0.00    -0.338 N 
HETATM   12  C   UNK N   1      22.864  16.741   5.570  0.00  0.00     0.087 A 
HETATM   13  H   UNK N   1      24.359  15.262   5.793  0.00  0.00     0.167 HD
ENDROOT
BRANCH  12  14
HETATM   14  C   UNK N   1      23.360  17.523   4.381  0.00  0.00     0.115 C 
BRANCH  14  15
HETATM   15  C   UNK N   1      24.859  17.543   4.361  0.00  0.00    -0.051 A 
HETATM   16  C   UNK N   1      25.562  18.563   5.007  0.00  0.00     0.010 A 
HETATM   17  C   UNK N   1      26.954  18.642   4.877  0.00  0.00     0.030 A 
HETATM   18  C   UNK N   1      27.648  17.721   4.080  0.00  0.00     0.034 A 
HETATM   19  C   UNK N   1      26.940  16.676   3.470  0.00  0.00     0.030 A 
HETATM   20  C   UNK N   1      25.557  16.583   3.615  0.00  0.00     0.010 A 
BRANCH  18  21
HETATM   21  N   UNK N   1      29.051  17.892   3.895  0.00  0.00    -0.328 N 
HETATM   22  C   UNK N   1      30.039  17.471   4.733  0.00  0.00     0.218 C 
HETATM   23  O   UNK N   1      31.200  17.705   4.443  0.00  0.00    -0.274 OA
HETATM   24  C   UNK N   1      29.764  16.674   5.970  0.00  0.00     0.117 C 
HETATM   25  H   UNK N   1      29.334  18.363   3.078  0.00  0.00     0.169 HD
ENDBRANCH  18  21
ENDBRANCH  14  15
ENDBRANCH  12  14
BRANCH   4  26
HETATM   26  C   UNK N   1      19.344  16.634   7.904  0.00  0.00     0.135 C 
BRANCH  26  27
HETATM   27  C   UNK N   1      19.529  17.725   8.951  0.00  0.00     0.020 C 
BRANCH  27  28
HETATM   28  C   UNK N   1      18.230  17.951   9.705  0.00  0.00    -0.003 C 
HETATM   29  C   UNK N   1      17.136  17.045   9.166  0.00  0.00     0.005 C 
ENDBRANCH  27  28
ENDBRANCH  26  27
ENDBRANCH   4  26
BRANCH   3  30
HETATM   30  C   UNK N   1      21.700  12.534   9.438  0.00  0.00     0.163 C 
BRANCH  30  31
HETATM   31  C   UNK N   1      22.329  12.789  10.769  0.00  0.00    -0.017 C 
HETATM   32  C   UNK N   1      23.348  12.037  11.173  0.00  0.00     0.008 C 
ENDBRANCH  30  31
ENDBRANCH   3  30
TORSDOF 8
ENDMDL
MODEL 3
REMARK VINA RESULT:      -6.7      5.187      8.118
REMARK  8 active torsions:
REMARK  status: ('A' for Active; 'I' for Inactive)
REMARK    1  A    between atoms: N_3  and  C_4 
REMARK    2  A    between atoms: C_4  and  C_5 
REMARK    3  A    between atoms: N_7  and  C_8 
REMARK    4  A    between atoms: C_8  and  C_9 
REMARK    5  A    between atoms: C_9  and  C_10 
REMARK    6  A    between atoms: C_19  and  C_20 
REMARK    7  A    between atoms: C_20  and  C_21 
REMARK    8  A    between atoms: C_24  and  N_27 
REMARK       I    between atoms: N_27  and  C_28 
ROOT
HETATM    1  O   UNK N   1      30.708  16.206   6.113  0.00  0.00    -0.246 OA
HETATM    2  C   UNK N   1      31.772  15.935   6.648  0.00  0.00     0.333 A 
HETATM    3  N   UNK N   1      32.822  15.404   5.893  0.00  0.00    -0.261 N 
HETATM    4  N   UNK N   1      31.935  16.165   8.005  0.00  0.00    -0.283 N 
HETATM    5  C   UNK N   1      33.140  15.875   8.558  0.00  0.00     0.145 A 
HETATM    6  N   UNK N   1      33.507  16.073   9.828  0.00  0.00    -0.330 N 
ATOM      7  HN  UNK N   1      32.944  16.436  10.597  1.00  0.00     0.168 HD
HETATM    8  C   UNK N   1      34.170  15.371   7.852  0.00  0.00     0.147 A 
HETATM    9  C   UNK N   1      34.036  15.114   6.500  0.00  0.00     0.282 A 
HETATM   10  O   UNK N   1      34.970  14.662   5.857  0.00  0.00    -0.265 OA
HETATM   11  N   UNK N   1      35.245  15.229   8.649  0.00  0.00    -0.338 N 
HETATM   12  C   UNK N   1      34.808  15.677   9.856  0.00  0.00     0.087 A 
HETATM   13  H   UNK N   1      36.137  14.884   8.414  0.00  0.00     0.167 HD
ENDROOT
BRANCH  12  14
HETATM   14  C   UNK N   1      35.707  15.874  11.049  0.00  0.00     0.115 C 
BRANCH  14  15
HETATM   15  C   UNK N   1      35.675  14.660  11.929  0.00  0.00    -0.051 A 
HETATM   16  C   UNK N   1      36.141  14.727  13.245  0.00  0.00     0.010 A 
HETATM   17  C   UNK N   1      36.223  13.561  14.017  0.00  0.00     0.030 A 
HETATM   18  C   UNK N   1      35.866  12.321  13.472  0.00  0.00     0.034 A 
HETATM   19  C   UNK N   1      35.359  12.268  12.166  0.00  0.00     0.030 A 
HETATM   20  C   UNK N   1      35.257  13.430  11.403  0.00  0.00     0.010 A 
BRANCH  18  21
HETATM   21  N   UNK N   1      36.054  11.146  14.257  0.00  0.00    -0.328 N 
HETATM   22  C   UNK N   1      35.085  10.426  14.890  0.00  0.00     0.218 C 
HETATM   23  O   UNK N   1      35.406   9.445  15.538  0.00  0.00    -0.274 OA
HETATM   24  C   UNK N   1      33.629  10.753  14.771  0.00  0.00     0.117 C 
HETATM   25  H   UNK N   1      36.979  10.822  14.351  0.00  0.00     0.169 HD
ENDBRANCH  18  21
ENDBRANCH  14  15
ENDBRANCH  12  14
BRANCH   4  26
HETATM   26  C   UNK N   1      30.843  16.701   8.819  0.00  0.00     0.135 C 
BRANCH  26  27
HETATM   27  C   UNK N   1      30.845  18.224   8.825  0.00  0.00     0.020 C 
BRANCH  27  28
HETATM   28  C   UNK N   1      29.672  18.745   9.639  0.00  0.00    -0.003 C 
HETATM   29  C   UNK N   1      28.403  17.987   9.291  0.00  0.00     0.005 C 
ENDBRANCH  27  28
ENDBRANCH  26  27
ENDBRANCH   4  26
BRANCH   3  30
HETATM   30  C   UNK N   1      32.670  15.184   4.452  0.00  0.00     0.163 C 
BRANCH  30  31
HETATM   31  C   UNK N   1      33.137  16.366   3.665  0.00  0.00    -0.017 C 
HETATM   32  C   UNK N   1      32.252  17.128   3.031  0.00  0.00     0.008 C 
ENDBRANCH  30  31
ENDBRANCH   3  30
TORSDOF 8
ENDMDL
MODEL 4
REMARK VINA RESULT:      -6.7      2.989      4.885
REMARK  8 active torsions:
REMARK  status: ('A' for Active; 'I' for Inactive)
REMARK    1  A    between atoms: N_3  and  C_4 
REMARK    2  A    between atoms: C_4  and  C_5 
REMARK    3  A    between atoms: N_7  and  C_8 
REMARK    4  A    between atoms: C_8  and  C_9 
REMARK    5  A    between atoms: C_9  and  C_10 
REMARK    6  A    between atoms: C_19  and  C_20 
REMARK    7  A    between atoms: C_20  and  C_21 
REMARK    8  A    between atoms: C_24  and  N_27 
REMARK       I    between atoms: N_27  and  C_28 
ROOT
HETATM    1  O   UNK N   1      20.903  16.791   4.343  0.00  0.00    -0.246 OA
HETATM    2  C   UNK N   1      21.759  17.641   4.152  0.00  0.00     0.333 A 
HETATM    3  N   UNK N   1      21.538  18.661   3.221  0.00  0.00    -0.261 N 
HETATM    4  N   UNK N   1      22.945  17.594   4.868  0.00  0.00    -0.283 N 
HETATM    5  C   UNK N   1      23.861  18.571   4.645  0.00  0.00     0.145 A 
HETATM    6  N   UNK N   1      25.033  18.727   5.268  0.00  0.00    -0.330 N 
ATOM      7  HN  UNK N   1      25.452  18.129   5.980  1.00  0.00     0.168 HD
HETATM    8  C   UNK N   1      23.669  19.570   3.762  0.00  0.00     0.147 A 
HETATM    9  C   UNK N   1      22.505  19.637   3.019  0.00  0.00     0.282 A 
HETATM   10  O   UNK N   1      22.328  20.544   2.222  0.00  0.00    -0.265 OA
HETATM   11  N   UNK N   1      24.719  20.411   3.788  0.00  0.00    -0.338 N 
HETATM   12  C   UNK N   1      25.537  19.870   4.730  0.00  0.00     0.087 A 
HETATM   13  H   UNK N   1      24.861  21.225   3.254  0.00  0.00     0.167 HD
ENDROOT
BRANCH  12  14
HETATM   14  C   UNK N   1      26.780  20.548   5.245  0.00  0.00     0.115 C 
BRANCH  14  15
HETATM   15  C   UNK N   1      27.777  19.526   5.705  0.00  0.00    -0.051 A 
HETATM   16  C   UNK N   1      28.453  18.729   4.778  0.00  0.00     0.010 A 
HETATM   17  C   UNK N   1      29.286  17.694   5.222  0.00  0.00     0.030 A 
HETATM   18  C   UNK N   1      29.427  17.434   6.592  0.00  0.00     0.034 A 
HETATM   19  C   UNK N   1      28.779  18.265   7.516  0.00  0.00     0.030 A 
HETATM   20  C   UNK N   1      27.967  19.308   7.077  0.00  0.00     0.010 A 
BRANCH  18  21
HETATM   21  N   UNK N   1      30.207  16.313   7.000  0.00  0.00    -0.328 N 
HETATM   22  C   UNK N   1      31.553  16.291   7.211  0.00  0.00     0.218 C 
HETATM   23  O   UNK N   1      32.083  15.246   7.548  0.00  0.00    -0.274 OA
HETATM   24  C   UNK N   1      32.407  17.517   7.106  0.00  0.00     0.117 C 
HETATM   25  H   UNK N   1      29.723  15.468   7.146  0.00  0.00     0.169 HD
ENDBRANCH  18  21
ENDBRANCH  14  15
ENDBRANCH  12  14
BRANCH   4  26
HETATM   26  C   UNK N   1      23.206  16.523   5.831  0.00  0.00     0.135 C 
BRANCH  26  27
HETATM   27  C   UNK N   1      24.043  15.409   5.216  0.00  0.00     0.020 C 
BRANCH  27  28
HETATM   28  C   UNK N   1      24.914  14.762   6.280  0.00  0.00    -0.003 C 
HETATM   29  C   UNK N   1      26.150  15.605   6.543  0.00  0.00     0.005 C 
ENDBRANCH  27  28
ENDBRANCH  26  27
ENDBRANCH   4  26
BRANCH   3  30
HETATM   30  C   UNK N   1      20.276  18.739   2.481  0.00  0.00     0.163 C 
BRANCH  30  31
HETATM   31  C   UNK N   1      20.390  18.102   1.135  0.00  0.00    -0.017 C 
HETATM   32  C   UNK N   1      19.987  16.847   0.961  0.00  0.00     0.008 C 
ENDBRANCH  30  31
ENDBRANCH   3  30
TORSDOF 8
ENDMDL
MODEL 5
REMARK VINA RESULT:      -6.6      1.777      3.729
REMARK  8 active torsions:
REMARK  status: ('A' for Active; 'I' for Inactive)
REMARK    1  A    between atoms: N_3  and  C_4 
REMARK    2  A    between atoms: C_4  and  C_5 
REMARK    3  A    between atoms: N_7  and  C_8 
REMARK    4  A    between atoms: C_8  and  C_9 
REMARK    5  A    between atoms: C_9  and  C_10 
REMARK    6  A    between atoms: C_19  and  C_20 
REMARK    7  A    between atoms: C_20  and  C_21 
REMARK    8  A    between atoms: C_24  and  N_27 
REMARK       I    between atoms: N_27  and  C_28 
ROOT
HETATM    1  O   UNK N   1      24.488  19.415   4.064  0.00  0.00    -0.246 OA
HETATM    2  C   UNK N   1      25.341  18.543   4.133  0.00  0.00     0.333 A 
HETATM    3  N   UNK N   1      24.966  17.197   4.193  0.00  0.00    -0.261 N 
HETATM    4  N   UNK N   1      26.682  18.896   4.142  0.00  0.00    -0.283 N 
HETATM    5  C   UNK N   1      27.601  17.897   4.193  0.00  0.00     0.145 A 
HETATM    6  N   UNK N   1      28.930  18.030   4.160  0.00  0.00    -0.330 N 
ATOM      7  HN  UNK N   1      29.476  18.891   4.126  1.00  0.00     0.168 HD
HETATM    8  C   UNK N   1      27.267  16.593   4.243  0.00  0.00     0.147 A 
HETATM    9  C   UNK N   1      25.938  16.208   4.252  0.00  0.00     0.282 A 
HETATM   10  O   UNK N   1      25.634  15.027   4.292  0.00  0.00    -0.265 OA
HETATM   11  N   UNK N   1      28.379  15.836   4.239  0.00  0.00    -0.338 N 
HETATM   12  C   UNK N   1      29.385  16.749   4.179  0.00  0.00     0.087 A 
HETATM   13  H   UNK N   1      28.448  14.855   4.272  0.00  0.00     0.167 HD
ENDROOT
BRANCH  12  14
HETATM   14  C   UNK N   1      30.834  16.382   3.985  0.00  0.00     0.115 C 
BRANCH  14  15
HETATM   15  C   UNK N   1      31.661  16.916   5.116  0.00  0.00    -0.051 A 
HETATM   16  C   UNK N   1      32.996  17.275   4.909  0.00  0.00     0.010 A 
HETATM   17  C   UNK N   1      33.794  17.654   5.995  0.00  0.00     0.030 A 
HETATM   18  C   UNK N   1      33.272  17.650   7.296  0.00  0.00     0.034 A 
HETATM   19  C   UNK N   1      31.921  17.330   7.490  0.00  0.00     0.030 A 
HETATM   20  C   UNK N   1      31.120  16.973   6.407  0.00  0.00     0.010 A 
BRANCH  18  21
HETATM   21  N   UNK N   1      34.142  17.948   8.385  0.00  0.00    -0.328 N 
HETATM   22  C   UNK N   1      34.705  17.054   9.246  0.00  0.00     0.218 C 
HETATM   23  O   UNK N   1      35.421  17.466  10.142  0.00  0.00    -0.274 OA
HETATM   24  C   UNK N   1      34.531  15.574   9.100  0.00  0.00     0.117 C 
HETATM   25  H   UNK N   1      34.358  18.898   8.530  0.00  0.00     0.169 HD
ENDBRANCH  18  21
ENDBRANCH  14  15
ENDBRANCH  12  14
BRANCH   4  26
HETATM   26  C   UNK N   1      27.096  20.299   4.101  0.00  0.00     0.135 C 
BRANCH  26  27
HETATM   27  C   UNK N   1      27.882  20.686   5.347  0.00  0.00     0.020 C 
BRANCH  27  28
HETATM   28  C   UNK N   1      27.018  20.513   6.585  0.00  0.00    -0.003 C 
HETATM   29  C   UNK N   1      26.159  21.745   6.812  0.00  0.00     0.005 C 
ENDBRANCH  27  28
ENDBRANCH  26  27
ENDBRANCH   4  26
BRANCH   3  30
HETATM   30  C   UNK N   1      23.553  16.812   4.153  0.00  0.00     0.163 C 
BRANCH  30  31
HETATM   31  C   UNK N   1      22.935  16.855   5.512  0.00  0.00    -0.017 C 
HETATM   32  C   UNK N   1      22.885  15.751   6.251  0.00  0.00     0.008 C 
ENDBRANCH  30  31
ENDBRANCH   3  30
TORSDOF 8
ENDMDL
MODEL 6
REMARK VINA RESULT:      -6.6      2.207      4.390
REMARK  8 active torsions:
REMARK  status: ('A' for Active; 'I' for Inactive)
REMARK    1  A    between atoms: N_3  and  C_4 
REMARK    2  A    between atoms: C_4  and  C_5 
REMARK    3  A    between atoms: N_7  and  C_8 
REMARK    4  A    between atoms: C_8  and  C_9 
REMARK    5  A    between atoms: C_9  and  C_10 
REMARK    6  A    between atoms: C_19  and  C_20 
REMARK    7  A    between atoms: C_20  and  C_21 
REMARK    8  A    between atoms: C_24  and  N_27 
REMARK       I    between atoms: N_27  and  C_28 
ROOT
HETATM    1  O   UNK N   1      26.291  17.863   5.183  0.00  0.00    -0.246 OA
HETATM    2  C   UNK N   1      27.418  17.490   4.893  0.00  0.00     0.333 A 
HETATM    3  N   UNK N   1      27.642  16.801   3.697  0.00  0.00    -0.261 N 
HETATM    4  N   UNK N   1      28.472  17.762   5.751  0.00  0.00    -0.283 N 
HETATM    5  C   UNK N   1      29.713  17.355   5.381  0.00  0.00     0.145 A 
HETATM    6  N   UNK N   1      30.856  17.566   6.042  0.00  0.00    -0.330 N 
ATOM      7  HN  UNK N   1      30.986  18.030   6.940  1.00  0.00     0.168 HD
HETATM    8  C   UNK N   1      29.958  16.697   4.231  0.00  0.00     0.147 A 
HETATM    9  C   UNK N   1      28.926  16.395   3.361  0.00  0.00     0.282 A 
HETATM   10  O   UNK N   1      29.148  15.804   2.316  0.00  0.00    -0.265 OA
HETATM   11  N   UNK N   1      31.278  16.464   4.110  0.00  0.00    -0.338 N 
HETATM   12  C   UNK N   1      31.803  17.017   5.235  0.00  0.00     0.087 A 
HETATM   13  H   UNK N   1      31.751  16.003   3.380  0.00  0.00     0.167 HD
ENDROOT
BRANCH  12  14
HETATM   14  C   UNK N   1      33.283  17.159   5.483  0.00  0.00     0.115 C 
BRANCH  14  15
HETATM   15  C   UNK N   1      33.628  16.677   6.860  0.00  0.00    -0.051 A 
HETATM   16  C   UNK N   1      33.381  15.352   7.230  0.00  0.00     0.010 A 
HETATM   17  C   UNK N   1      33.590  14.945   8.553  0.00  0.00     0.030 A 
HETATM   18  C   UNK N   1      34.020  15.864   9.520  0.00  0.00     0.034 A 
HETATM   19  C   UNK N   1      34.305  17.181   9.133  0.00  0.00     0.030 A 
HETATM   20  C   UNK N   1      34.118  17.583   7.812  0.00  0.00     0.010 A 
BRANCH  18  21
HETATM   21  N   UNK N   1      34.128  15.435  10.875  0.00  0.00    -0.328 N 
HETATM   22  C   UNK N   1      35.201  14.824  11.452  0.00  0.00     0.218 C 
HETATM   23  O   UNK N   1      35.138  14.503  12.626  0.00  0.00    -0.274 OA
HETATM   24  C   UNK N   1      36.484  14.585  10.719  0.00  0.00     0.117 C 
HETATM   25  H   UNK N   1      33.348  15.598  11.453  0.00  0.00     0.169 HD
ENDBRANCH  18  21
ENDBRANCH  14  15
ENDBRANCH  12  14
BRANCH   4  26
HETATM   26  C   UNK N   1      28.256  18.464   7.017  0.00  0.00     0.135 C 
BRANCH  26  27
HETATM   27  C   UNK N   1      28.144  17.491   8.183  0.00  0.00     0.020 C 
BRANCH  27  28
HETATM   28  C   UNK N   1      28.643  18.146   9.460  0.00  0.00    -0.003 C 
HETATM   29  C   UNK N   1      30.075  18.623   9.291  0.00  0.00     0.005 C 
ENDBRANCH  27  28
ENDBRANCH  26  27
ENDBRANCH   4  26
BRANCH   3  30
HETATM   30  C   UNK N   1      26.540  16.534   2.769  0.00  0.00     0.163 C 
BRANCH  30  31
HETATM   31  C   UNK N   1      25.910  15.206   3.032  0.00  0.00    -0.017 C 
HETATM   32  C   UNK N   1      25.909  14.275   2.084  0.00  0.00     0.008 C 
ENDBRANCH  30  31
ENDBRANCH   3  30
TORSDOF 8
ENDMDL
MODEL 7
REMARK VINA RESULT:      -6.5      4.005     10.236
REMARK  8 active torsions:
REMARK  status: ('A' for Active; 'I' for Inactive)
REMARK    1  A    between atoms: N_3  and  C_4 
REMARK    2  A    between atoms: C_4  and  C_5 
REMARK    3  A    between atoms: N_7  and  C_8 
REMARK    4  A    between atoms: C_8  and  C_9 
REMARK    5  A    between atoms: C_9  and  C_10 
REMARK    6  A    between atoms: C_19  and  C_20 
REMARK    7  A    between atoms: C_20  and  C_21 
REMARK    8  A    between atoms: C_24  and  N_27 
REMARK       I    between atoms: N_27  and  C_28 
ROOT
HETATM    1  O   UNK N   1      35.672  10.449  10.394  0.00  0.00    -0.246 OA
HETATM    2  C   UNK N   1      35.386  11.618  10.605  0.00  0.00     0.333 A 
HETATM    3  N   UNK N   1      35.233  12.077  11.917  0.00  0.00    -0.261 N 
HETATM    4  N   UNK N   1      35.224  12.487   9.537  0.00  0.00    -0.283 N 
HETATM    5  C   UNK N   1      34.933  13.784   9.814  0.00  0.00     0.145 A 
HETATM    6  N   UNK N   1      34.790  14.778   8.931  0.00  0.00    -0.330 N 
ATOM      7  HN  UNK N   1      34.839  14.728   7.914  1.00  0.00     0.168 HD
HETATM    8  C   UNK N   1      34.789  14.254  11.068  0.00  0.00     0.147 A 
HETATM    9  C   UNK N   1      34.927  13.409  12.154  0.00  0.00     0.282 A 
HETATM   10  O   UNK N   1      34.802  13.835  13.291  0.00  0.00    -0.265 OA
HETATM   11  N   UNK N   1      34.550  15.578  11.035  0.00  0.00    -0.338 N 
HETATM   12  C   UNK N   1      34.565  15.871   9.708  0.00  0.00     0.087 A 
HETATM   13  H   UNK N   1      34.400  16.188  11.792  0.00  0.00     0.167 HD
ENDROOT
BRANCH  12  14
HETATM   14  C   UNK N   1      34.509  17.275   9.163  0.00  0.00     0.115 C 
BRANCH  14  15
HETATM   15  C   UNK N   1      33.479  17.370   8.077  0.00  0.00    -0.051 A 
HETATM   16  C   UNK N   1      32.117  17.339   8.388  0.00  0.00     0.010 A 
HETATM   17  C   UNK N   1      31.167  17.302   7.359  0.00  0.00     0.030 A 
HETATM   18  C   UNK N   1      31.571  17.269   6.018  0.00  0.00     0.034 A 
HETATM   19  C   UNK N   1      32.938  17.343   5.714  0.00  0.00     0.030 A 
HETATM   20  C   UNK N   1      33.884  17.401   6.735  0.00  0.00     0.010 A 
BRANCH  18  21
HETATM   21  N   UNK N   1      30.578  17.134   5.004  0.00  0.00    -0.328 N 
HETATM   22  C   UNK N   1      30.018  15.973   4.563  0.00  0.00     0.218 C 
HETATM   23  O   UNK N   1      29.185  16.018   3.675  0.00  0.00    -0.274 OA
HETATM   24  C   UNK N   1      30.338  14.641   5.169  0.00  0.00     0.117 C 
HETATM   25  H   UNK N   1      30.265  17.965   4.580  0.00  0.00     0.169 HD
ENDBRANCH  18  21
ENDBRANCH  14  15
ENDBRANCH  12  14
BRANCH   4  26
HETATM   26  C   UNK N   1      35.360  12.023   8.156  0.00  0.00     0.135 C 
BRANCH  26  27
HETATM   27  C   UNK N   1      34.003  11.730   7.529  0.00  0.00     0.020 C 
BRANCH  27  28
HETATM   28  C   UNK N   1      34.039  12.030   6.040  0.00  0.00    -0.003 C 
HETATM   29  C   UNK N   1      33.854  13.517   5.791  0.00  0.00     0.005 C 
ENDBRANCH  27  28
ENDBRANCH  26  27
ENDBRANCH   4  26
BRANCH   3  30
HETATM   30  C   UNK N   1      35.432  11.173  13.054  0.00  0.00     0.163 C 
BRANCH  30  31
HETATM   31  C   UNK N   1      34.159  10.498  13.447  0.00  0.00    -0.017 C 
HETATM   32  C   UNK N   1      33.624  10.741  14.639  0.00  0.00     0.008 C 
ENDBRANCH  30  31
ENDBRANCH   3  30
TORSDOF 8
ENDMDL
MODEL 8
REMARK VINA RESULT:      -6.5      5.301     11.775
REMARK  8 active torsions:
REMARK  status: ('A' for Active; 'I' for Inactive)
REMARK    1  A    between atoms: N_3  and  C_4 
REMARK    2  A    between atoms: C_4  and  C_5 
REMARK    3  A    between atoms: N_7  and  C_8 
REMARK    4  A    between atoms: C_8  and  C_9 
REMARK    5  A    between atoms: C_9  and  C_10 
REMARK    6  A    between atoms: C_19  and  C_20 
REMARK    7  A    between atoms: C_20  and  C_21 
REMARK    8  A    between atoms: C_24  and  N_27 
REMARK       I    between atoms: N_27  and  C_28 
ROOT
HETATM    1  O   UNK N   1      34.713  10.613  15.227  0.00  0.00    -0.246 OA
HETATM    2  C   UNK N   1      34.948  11.575  14.511  0.00  0.00     0.333 A 
HETATM    3  N   UNK N   1      35.635  12.679  15.025  0.00  0.00    -0.261 N 
HETATM    4  N   UNK N   1      34.538  11.562  13.187  0.00  0.00    -0.283 N 
HETATM    5  C   UNK N   1      34.841  12.639  12.418  0.00  0.00     0.145 A 
HETATM    6  N   UNK N   1      34.579  12.793  11.116  0.00  0.00    -0.330 N 
ATOM      7  HN  UNK N   1      34.083  12.154  10.495  1.00  0.00     0.168 HD
HETATM    8  C   UNK N   1      35.509  13.711  12.885  0.00  0.00     0.147 A 
HETATM    9  C   UNK N   1      35.918  13.763  14.206  0.00  0.00     0.282 A 
HETATM   10  O   UNK N   1      36.528  14.732  14.629  0.00  0.00    -0.265 OA
HETATM   11  N   UNK N   1      35.705  14.597  11.891  0.00  0.00    -0.338 N 
HETATM   12  C   UNK N   1      35.128  13.999  10.815  0.00  0.00     0.087 A 
HETATM   13  H   UNK N   1      36.158  15.469  11.933  0.00  0.00     0.167 HD
ENDROOT
BRANCH  12  14
HETATM   14  C   UNK N   1      35.234  14.532   9.409  0.00  0.00     0.115 C 
BRANCH  14  15
HETATM   15  C   UNK N   1      34.013  15.332   9.064  0.00  0.00    -0.051 A 
HETATM   16  C   UNK N   1      32.825  14.692   8.702  0.00  0.00     0.010 A 
HETATM   17  C   UNK N   1      31.731  15.446   8.262  0.00  0.00     0.030 A 
HETATM   18  C   UNK N   1      31.825  16.840   8.155  0.00  0.00     0.034 A 
HETATM   19  C   UNK N   1      33.006  17.479   8.561  0.00  0.00     0.030 A 
HETATM   20  C   UNK N   1      34.088  16.731   9.019  0.00  0.00     0.010 A 
BRANCH  18  21
HETATM   21  N   UNK N   1      30.723  17.564   7.612  0.00  0.00    -0.328 N 
HETATM   22  C   UNK N   1      29.700  18.132   8.310  0.00  0.00     0.218 C 
HETATM   23  O   UNK N   1      28.818  18.711   7.699  0.00  0.00    -0.274 OA
HETATM   24  C   UNK N   1      29.644  18.131   9.806  0.00  0.00     0.117 C 
HETATM   25  H   UNK N   1      30.700  17.663   6.633  0.00  0.00     0.169 HD
ENDBRANCH  18  21
ENDBRANCH  14  15
ENDBRANCH  12  14
BRANCH   4  26
HETATM   26  C   UNK N   1      33.799  10.426  12.635  0.00  0.00     0.135 C 
BRANCH  26  27
HETATM   27  C   UNK N   1      34.738   9.375  12.059  0.00  0.00     0.020 C 
BRANCH  27  28
HETATM   28  C   UNK N   1      34.316   9.015  10.644  0.00  0.00    -0.003 C 
HETATM   29  C   UNK N   1      32.876   9.431  10.396  0.00  0.00     0.005 C 
ENDBRANCH  27  28
ENDBRANCH  26  27
ENDBRANCH   4  26
BRANCH   3  30
HETATM   30  C   UNK N   1      36.100  12.691  16.415  0.00  0.00     0.163 C 
BRANCH  30  31
HETATM   31  C   UNK N   1      35.103  13.334  17.322  0.00  0.00    -0.017 C 
HETATM   32  C   UNK N   1      35.151  13.101  18.629  0.00  0.00     0.008 C 
ENDBRANCH  30  31
ENDBRANCH   3  30
TORSDOF 8
ENDMDL
MODEL 9
REMARK VINA RESULT:      -6.5      5.978      7.575
REMARK  8 active torsions:
REMARK  status: ('A' for Active; 'I' for Inactive)
REMARK    1  A    between atoms: N_3  and  C_4 
REMARK    2  A    between atoms: C_4  and  C_5 
REMARK    3  A    between atoms: N_7  and  C_8 
REMARK    4  A    between atoms: C_8  and  C_9 
REMARK    5  A    between atoms: C_9  and  C_10 
REMARK    6  A    between atoms: C_19  and  C_20 
REMARK    7  A    between atoms: C_20  and  C_21 
REMARK    8  A    between atoms: C_24  and  N_27 
REMARK       I    between atoms: N_27  and  C_28 
ROOT
HETATM    1  O   UNK N   1      19.286  14.854   9.643  0.00  0.00    -0.246 OA
HETATM    2  C   UNK N   1      19.915  15.466   8.793  0.00  0.00     0.333 A 
HETATM    3  N   UNK N   1      19.772  16.853   8.676  0.00  0.00    -0.261 N 
HETATM    4  N   UNK N   1      20.778  14.781   7.952  0.00  0.00    -0.283 N 
HETATM    5  C   UNK N   1      21.479  15.500   7.038  0.00  0.00     0.145 A 
HETATM    6  N   UNK N   1      22.391  15.033   6.179  0.00  0.00    -0.330 N 
ATOM      7  HN  UNK N   1      22.687  14.067   6.040  1.00  0.00     0.168 HD
HETATM    8  C   UNK N   1      21.366  16.836   6.911  0.00  0.00     0.147 A 
HETATM    9  C   UNK N   1      20.501  17.548   7.723  0.00  0.00     0.282 A 
HETATM   10  O   UNK N   1      20.402  18.760   7.612  0.00  0.00    -0.265 OA
HETATM   11  N   UNK N   1      22.210  17.278   5.961  0.00  0.00    -0.338 N 
HETATM   12  C   UNK N   1      22.832  16.147   5.536  0.00  0.00     0.087 A 
HETATM   13  H   UNK N   1      22.346  18.202   5.649  0.00  0.00     0.167 HD
ENDROOT
BRANCH  12  14
HETATM   14  C   UNK N   1      23.998  16.143   4.582  0.00  0.00     0.115 C 
BRANCH  14  15
HETATM   15  C   UNK N   1      25.260  16.513   5.303  0.00  0.00    -0.051 A 
HETATM   16  C   UNK N   1      25.915  17.713   5.015  0.00  0.00     0.010 A 
HETATM   17  C   UNK N   1      27.156  17.990   5.601  0.00  0.00     0.030 A 
HETATM   18  C   UNK N   1      27.762  17.060   6.456  0.00  0.00     0.034 A 
HETATM   19  C   UNK N   1      27.080  15.877   6.773  0.00  0.00     0.030 A 
HETATM   20  C   UNK N   1      25.835  15.609   6.208  0.00  0.00     0.010 A 
BRANCH  18  21
HETATM   21  N   UNK N   1      29.068  17.336   6.957  0.00  0.00    -0.328 N 
HETATM   22  C   UNK N   1      29.378  17.867   8.173  0.00  0.00     0.218 C 
HETATM   23  O   UNK N   1      30.549  18.058   8.454  0.00  0.00    -0.274 OA
HETATM   24  C   UNK N   1      28.341  18.171   9.209  0.00  0.00     0.117 C 
HETATM   25  H   UNK N   1      29.823  17.120   6.363  0.00  0.00     0.169 HD
ENDBRANCH  18  21
ENDBRANCH  14  15
ENDBRANCH  12  14
BRANCH   4  26
HETATM   26  C   UNK N   1      20.929  13.328   8.042  0.00  0.00     0.135 C 
BRANCH  26  27
HETATM   27  C   UNK N   1      22.109  12.942   8.924  0.00  0.00     0.020 C 
BRANCH  27  28
HETATM   28  C   UNK N   1      21.611  12.394  10.252  0.00  0.00    -0.003 C 
HETATM   29  C   UNK N   1      22.776  11.914  11.100  0.00  0.00     0.005 C 
ENDBRANCH  27  28
ENDBRANCH  26  27
ENDBRANCH   4  26
BRANCH   3  30
HETATM   30  C   UNK N   1      18.885  17.591   9.580  0.00  0.00     0.163 C 
BRANCH  30  31
HETATM   31  C   UNK N   1      17.452  17.236   9.354  0.00  0.00    -0.017 C 
HETATM   32  C   UNK N   1      16.983  17.141   8.114  0.00  0.00     0.008 C 
ENDBRANCH  30  31
ENDBRANCH   3  30
TORSDOF 8
ENDMDL
