MODEL 1
REMARK VINA RESULT:      -5.9      0.000      0.000
REMARK  5 active torsions:
REMARK  status: ('A' for Active; 'I' for Inactive)
REMARK    1  A    between atoms: O_1  and  C_2 
REMARK    2  A    between atoms: C_3  and  C_2 
REMARK    3  A    between atoms: C_4  and  O_5 
REMARK    4  A    between atoms: C_6  and  O_7 
REMARK    5  A    between atoms: C_8  and  N_10 
ROOT
HETATM    1  C   UNK N   1      35.438  13.248  12.693  0.00  0.00     0.179 C 
HETATM    2  C   UNK N   1      36.800  13.705  12.179  0.00  0.00     0.182 C 
HETATM    3  C   UNK N   1      36.446  14.290  10.854  0.00  0.00     0.198 C 
HETATM    4  C   UNK N   1      35.211  15.022  11.333  0.00  0.00     0.263 C 
HETATM    5  O   UNK N   1      34.473  14.095  12.102  0.00  0.00    -0.353 OA
ENDROOT
BRANCH   4   6
HETATM    6  N   UNK N   1      34.397  15.669  10.284  0.00  0.00    -0.280 N 
HETATM    7  C   UNK N   1      34.667  16.965   9.877  0.00  0.00     0.331 A 
HETATM    8  O   UNK N   1      35.615  17.577  10.332  0.00  0.00    -0.246 OA
HETATM    9  N   UNK N   1      33.836  17.592   8.984  0.00  0.00    -0.275 N 
HETATM   10  C   UNK N   1      32.733  16.959   8.487  0.00  0.00     0.250 A 
HETATM   11  H   UNK N   1      34.038  18.512   8.697  0.00  0.00     0.173 HD
HETATM   12  O   UNK N   1      31.994  17.539   7.713  0.00  0.00    -0.268 OA
HETATM   13  C   UNK N   1      32.451  15.655   8.876  0.00  0.00     0.092 A 
HETATM   14  C   UNK N   1      33.300  15.027   9.787  0.00  0.00     0.104 A 
ENDBRANCH   4   6
BRANCH   3  15
HETATM   15  O   UNK N   1      37.455  15.153  10.429  0.00  0.00    -0.388 OA
HETATM   16  H   UNK N   1      38.385  14.990  10.652  0.00  0.00     0.210 HD
ENDBRANCH   3  15
BRANCH   2  17
HETATM   17  O   UNK N   1      37.759  12.693  12.097  0.00  0.00    -0.390 OA
HETATM   18  H   UNK N   1      38.644  12.622  11.707  0.00  0.00     0.210 HD
ENDBRANCH   2  17
BRANCH   1  19
HETATM   19  C   UNK N   1      35.115  11.800  12.342  0.00  0.00     0.198 C 
BRANCH  19  20
HETATM   20  O   UNK N   1      34.104  11.769  11.381  0.00  0.00    -0.398 OA
HETATM   21  H   UNK N   1      33.412  11.091  11.418  0.00  0.00     0.209 HD
ENDBRANCH  19  20
ENDBRANCH   1  19
TORSDOF 5
ENDMDL
MODEL 2
REMARK VINA RESULT:      -5.6      5.768      8.581
REMARK  5 active torsions:
REMARK  status: ('A' for Active; 'I' for Inactive)
REMARK    1  A    between atoms: O_1  and  C_2 
REMARK    2  A    between atoms: C_3  and  C_2 
REMARK    3  A    between atoms: C_4  and  O_5 
REMARK    4  A    between atoms: C_6  and  O_7 
REMARK    5  A    between atoms: C_8  and  N_10 
ROOT
HETATM    1  C   UNK N   1      30.354  17.061   8.130  0.00  0.00     0.179 C 
HETATM    2  C   UNK N   1      29.337  17.376   9.223  0.00  0.00     0.182 C 
HETATM    3  C   UNK N   1      28.509  18.433   8.575  0.00  0.00     0.198 C 
HETATM    4  C   UNK N   1      28.416  17.752   7.226  0.00  0.00     0.263 C 
HETATM    5  O   UNK N   1      29.727  17.346   6.895  0.00  0.00    -0.353 OA
ENDROOT
BRANCH   4   6
HETATM    6  N   UNK N   1      27.771  18.534   6.151  0.00  0.00    -0.280 N 
HETATM    7  C   UNK N   1      27.198  17.901   5.061  0.00  0.00     0.331 A 
HETATM    8  O   UNK N   1      27.162  16.687   4.994  0.00  0.00    -0.246 OA
HETATM    9  N   UNK N   1      26.704  18.642   4.018  0.00  0.00    -0.275 N 
HETATM   10  C   UNK N   1      26.771  20.006   4.032  0.00  0.00     0.250 A 
HETATM   11  H   UNK N   1      26.294  18.183   3.249  0.00  0.00     0.173 HD
HETATM   12  O   UNK N   1      26.347  20.646   3.087  0.00  0.00    -0.268 OA
HETATM   13  C   UNK N   1      27.333  20.659   5.121  0.00  0.00     0.092 A 
HETATM   14  C   UNK N   1      27.837  19.897   6.176  0.00  0.00     0.104 A 
ENDBRANCH   4   6
BRANCH   3  15
HETATM   15  O   UNK N   1      27.275  18.534   9.216  0.00  0.00    -0.388 OA
HETATM   16  H   UNK N   1      26.863  19.396   9.384  0.00  0.00     0.210 HD
ENDBRANCH   3  15
BRANCH   2  17
HETATM   17  O   UNK N   1      29.896  17.781  10.438  0.00  0.00    -0.390 OA
HETATM   18  H   UNK N   1      30.025  18.635  10.878  0.00  0.00     0.210 HD
ENDBRANCH   2  17
BRANCH   1  19
HETATM   19  C   UNK N   1      31.634  17.880   8.243  0.00  0.00     0.198 C 
BRANCH  19  20
HETATM   20  O   UNK N   1      32.498  17.269   9.154  0.00  0.00    -0.398 OA
HETATM   21  H   UNK N   1      32.800  17.748   9.940  0.00  0.00     0.209 HD
ENDBRANCH  19  20
ENDBRANCH   1  19
TORSDOF 5
ENDMDL
MODEL 3
REMARK VINA RESULT:      -5.6      3.777      5.475
REMARK  5 active torsions:
REMARK  status: ('A' for Active; 'I' for Inactive)
REMARK    1  A    between atoms: O_1  and  C_2 
REMARK    2  A    between atoms: C_3  and  C_2 
REMARK    3  A    between atoms: C_4  and  O_5 
REMARK    4  A    between atoms: C_6  and  O_7 
REMARK    5  A    between atoms: C_8  and  N_10 
ROOT
HETATM    1  C   UNK N   1      32.751  15.764   8.925  0.00  0.00     0.179 C 
HETATM    2  C   UNK N   1      33.501  17.086   8.798  0.00  0.00     0.182 C 
HETATM    3  C   UNK N   1      34.235  16.899   7.514  0.00  0.00     0.198 C 
HETATM    4  C   UNK N   1      33.078  16.278   6.761  0.00  0.00     0.263 C 
HETATM    5  O   UNK N   1      32.539  15.286   7.611  0.00  0.00    -0.353 OA
ENDROOT
BRANCH   4   6
HETATM    6  N   UNK N   1      33.386  15.767   5.410  0.00  0.00    -0.280 N 
HETATM    7  C   UNK N   1      33.198  16.563   4.293  0.00  0.00     0.331 A 
HETATM    8  O   UNK N   1      32.832  17.717   4.404  0.00  0.00    -0.246 OA
HETATM    9  N   UNK N   1      33.382  16.039   3.038  0.00  0.00    -0.275 N 
HETATM   10  C   UNK N   1      33.744  14.734   2.868  0.00  0.00     0.250 A 
HETATM   11  H   UNK N   1      33.250  16.613   2.249  0.00  0.00     0.173 HD
HETATM   12  O   UNK N   1      33.880  14.280   1.746  0.00  0.00    -0.268 OA
HETATM   13  C   UNK N   1      33.946  13.923   3.978  0.00  0.00     0.092 A 
HETATM   14  C   UNK N   1      33.754  14.462   5.249  0.00  0.00     0.104 A 
ENDBRANCH   4   6
BRANCH   3  15
HETATM   15  O   UNK N   1      34.615  18.137   6.996  0.00  0.00    -0.388 OA
HETATM   16  H   UNK N   1      33.998  18.676   6.476  0.00  0.00     0.210 HD
ENDBRANCH   3  15
BRANCH   2  17
HETATM   17  O   UNK N   1      34.339  17.384   9.875  0.00  0.00    -0.390 OA
HETATM   18  H   UNK N   1      34.730  18.197  10.229  0.00  0.00     0.210 HD
ENDBRANCH   2  17
BRANCH   1  19
HETATM   19  C   UNK N   1      33.512  14.712   9.722  0.00  0.00     0.198 C 
BRANCH  19  20
HETATM   20  O   UNK N   1      33.302  14.921  11.086  0.00  0.00    -0.398 OA
HETATM   21  H   UNK N   1      32.508  14.574  11.519  0.00  0.00     0.209 HD
ENDBRANCH  19  20
ENDBRANCH   1  19
TORSDOF 5
ENDMDL
MODEL 4
REMARK VINA RESULT:      -5.5      4.518      7.175
REMARK  5 active torsions:
REMARK  status: ('A' for Active; 'I' for Inactive)
REMARK    1  A    between atoms: O_1  and  C_2 
REMARK    2  A    between atoms: C_3  and  C_2 
REMARK    3  A    between atoms: C_4  and  O_5 
REMARK    4  A    between atoms: C_6  and  O_7 
REMARK    5  A    between atoms: C_8  and  N_10 
ROOT
HETATM    1  C   UNK N   1      35.267  13.132  12.620  0.00  0.00     0.179 C 
HETATM    2  C   UNK N   1      36.711  12.639  12.647  0.00  0.00     0.182 C 
HETATM    3  C   UNK N   1      37.097  12.899  14.064  0.00  0.00     0.198 C 
HETATM    4  C   UNK N   1      35.807  12.390  14.672  0.00  0.00     0.263 C 
HETATM    5  O   UNK N   1      34.759  12.979  13.931  0.00  0.00    -0.353 OA
ENDROOT
BRANCH   4   6
HETATM    6  N   UNK N   1      35.658  12.587  16.128  0.00  0.00    -0.280 N 
HETATM    7  C   UNK N   1      35.472  11.506  16.973  0.00  0.00     0.331 A 
HETATM    8  O   UNK N   1      35.485  10.369  16.542  0.00  0.00    -0.246 OA
HETATM    9  N   UNK N   1      35.223  11.712  18.306  0.00  0.00    -0.275 N 
HETATM   10  C   UNK N   1      35.151  12.975  18.821  0.00  0.00     0.250 A 
HETATM   11  H   UNK N   1      35.096  10.938  18.901  0.00  0.00     0.173 HD
HETATM   12  O   UNK N   1      34.907  13.138  20.002  0.00  0.00    -0.268 OA
HETATM   13  C   UNK N   1      35.345  14.071  17.989  0.00  0.00     0.092 A 
HETATM   14  C   UNK N   1      35.593  13.853  16.635  0.00  0.00     0.104 A 
ENDBRANCH   4   6
BRANCH   3  15
HETATM   15  O   UNK N   1      38.201  12.121  14.408  0.00  0.00    -0.388 OA
HETATM   16  H   UNK N   1      38.398  11.292  13.944  0.00  0.00     0.210 HD
ENDBRANCH   3  15
BRANCH   2  17
HETATM   17  O   UNK N   1      37.554  13.260  11.722  0.00  0.00    -0.390 OA
HETATM   18  H   UNK N   1      38.404  13.723  11.779  0.00  0.00     0.210 HD
ENDBRANCH   2  17
BRANCH   1  19
HETATM   19  C   UNK N   1      35.136  14.591  12.199  0.00  0.00     0.198 C 
BRANCH  19  20
HETATM   20  O   UNK N   1      33.904  14.785  11.572  0.00  0.00    -0.398 OA
HETATM   21  H   UNK N   1      33.815  14.659  10.615  0.00  0.00     0.209 HD
ENDBRANCH  19  20
ENDBRANCH   1  19
TORSDOF 5
ENDMDL
MODEL 5
REMARK VINA RESULT:      -5.5      5.204      6.757
REMARK  5 active torsions:
REMARK  status: ('A' for Active; 'I' for Inactive)
REMARK    1  A    between atoms: O_1  and  C_2 
REMARK    2  A    between atoms: C_3  and  C_2 
REMARK    3  A    between atoms: C_4  and  O_5 
REMARK    4  A    between atoms: C_6  and  O_7 
REMARK    5  A    between atoms: C_8  and  N_10 
ROOT
HETATM    1  C   UNK N   1      29.340  18.208   7.898  0.00  0.00     0.179 C 
HETATM    2  C   UNK N   1      30.435  18.364   8.950  0.00  0.00     0.182 C 
HETATM    3  C   UNK N   1      31.386  17.282   8.564  0.00  0.00     0.198 C 
HETATM    4  C   UNK N   1      31.324  17.544   7.075  0.00  0.00     0.263 C 
HETATM    5  O   UNK N   1      29.954  17.659   6.749  0.00  0.00    -0.353 OA
ENDROOT
BRANCH   4   6
HETATM    6  N   UNK N   1      32.036  16.574   6.218  0.00  0.00    -0.280 N 
HETATM    7  C   UNK N   1      33.337  16.813   5.809  0.00  0.00     0.331 A 
HETATM    8  O   UNK N   1      33.941  17.797   6.193  0.00  0.00    -0.246 OA
HETATM    9  N   UNK N   1      33.946  15.960   4.925  0.00  0.00    -0.275 N 
HETATM   10  C   UNK N   1      33.286  14.871   4.431  0.00  0.00     0.250 A 
HETATM   11  H   UNK N   1      34.873  16.134   4.642  0.00  0.00     0.173 HD
HETATM   12  O   UNK N   1      33.834  14.138   3.629  0.00  0.00    -0.268 OA
HETATM   13  C   UNK N   1      31.983  14.610   4.838  0.00  0.00     0.092 A 
HETATM   14  C   UNK N   1      31.371  15.485   5.734  0.00  0.00     0.104 A 
ENDBRANCH   4   6
BRANCH   3  15
HETATM   15  O   UNK N   1      32.645  17.538   9.106  0.00  0.00    -0.388 OA
HETATM   16  H   UNK N   1      32.919  18.439   9.340  0.00  0.00     0.210 HD
ENDBRANCH   3  15
BRANCH   2  17
HETATM   17  O   UNK N   1      29.990  18.263  10.270  0.00  0.00    -0.390 OA
HETATM   18  H   UNK N   1      30.385  18.438  11.138  0.00  0.00     0.210 HD
ENDBRANCH   2  17
BRANCH   1  19
HETATM   19  C   UNK N   1      28.202  17.296   8.342  0.00  0.00     0.198 C 
BRANCH  19  20
HETATM   20  O   UNK N   1      27.427  17.953   9.299  0.00  0.00    -0.398 OA
HETATM   21  H   UNK N   1      26.487  18.122   9.136  0.00  0.00     0.209 HD
ENDBRANCH  19  20
ENDBRANCH   1  19
TORSDOF 5
ENDMDL
MODEL 6
REMARK VINA RESULT:      -5.4      2.094      2.171
REMARK  5 active torsions:
REMARK  status: ('A' for Active; 'I' for Inactive)
REMARK    1  A    between atoms: O_1  and  C_2 
REMARK    2  A    between atoms: C_3  and  C_2 
REMARK    3  A    between atoms: C_4  and  O_5 
REMARK    4  A    between atoms: C_6  and  O_7 
REMARK    5  A    between atoms: C_8  and  N_10 
ROOT
HETATM    1  C   UNK N   1      35.825  12.733  10.508  0.00  0.00     0.179 C 
HETATM    2  C   UNK N   1      36.680  13.759  11.244  0.00  0.00     0.182 C 
HETATM    3  C   UNK N   1      36.800  14.844  10.227  0.00  0.00     0.198 C 
HETATM    4  C   UNK N   1      35.350  14.810   9.794  0.00  0.00     0.263 C 
HETATM    5  O   UNK N   1      35.029  13.450   9.586  0.00  0.00    -0.353 OA
ENDROOT
BRANCH   4   6
HETATM    6  N   UNK N   1      35.001  15.662   8.639  0.00  0.00    -0.280 N 
HETATM    7  C   UNK N   1      34.671  16.995   8.817  0.00  0.00     0.331 A 
HETATM    8  O   UNK N   1      34.718  17.507   9.919  0.00  0.00    -0.246 OA
HETATM    9  N   UNK N   1      34.242  17.744   7.751  0.00  0.00    -0.275 N 
HETATM   10  C   UNK N   1      34.128  17.195   6.506  0.00  0.00     0.250 A 
HETATM   11  H   UNK N   1      34.014  18.692   7.886  0.00  0.00     0.173 HD
HETATM   12  O   UNK N   1      33.723  17.869   5.577  0.00  0.00    -0.268 OA
HETATM   13  C   UNK N   1      34.464  15.861   6.307  0.00  0.00     0.092 A 
HETATM   14  C   UNK N   1      34.896  15.106   7.397  0.00  0.00     0.104 A 
ENDBRANCH   4   6
BRANCH   3  15
HETATM   15  O   UNK N   1      37.151  16.042  10.847  0.00  0.00    -0.388 OA
HETATM   16  H   UNK N   1      37.950  16.112  11.392  0.00  0.00     0.210 HD
ENDBRANCH   3  15
BRANCH   2  17
HETATM   17  O   UNK N   1      37.916  13.278  11.685  0.00  0.00    -0.390 OA
HETATM   18  H   UNK N   1      38.686  12.880  11.251  0.00  0.00     0.210 HD
ENDBRANCH   2  17
BRANCH   1  19
HETATM   19  C   UNK N   1      36.646  11.691   9.757  0.00  0.00     0.198 C 
BRANCH  19  20
HETATM   20  O   UNK N   1      36.302  11.716   8.404  0.00  0.00    -0.398 OA
HETATM   21  H   UNK N   1      36.965  11.514   7.726  0.00  0.00     0.209 HD
ENDBRANCH  19  20
ENDBRANCH   1  19
TORSDOF 5
ENDMDL
MODEL 7
REMARK VINA RESULT:      -5.3      2.951      6.093
REMARK  5 active torsions:
REMARK  status: ('A' for Active; 'I' for Inactive)
REMARK    1  A    between atoms: O_1  and  C_2 
REMARK    2  A    between atoms: C_3  and  C_2 
REMARK    3  A    between atoms: C_4  and  O_5 
REMARK    4  A    between atoms: C_6  and  O_7 
REMARK    5  A    between atoms: C_8  and  N_10 
ROOT
HETATM    1  C   UNK N   1      35.199  14.995  11.019  0.00  0.00     0.179 C 
HETATM    2  C   UNK N   1      36.500  14.276  10.678  0.00  0.00     0.182 C 
HETATM    3  C   UNK N   1      36.935  13.780  12.015  0.00  0.00     0.198 C 
HETATM    4  C   UNK N   1      35.567  13.309  12.459  0.00  0.00     0.263 C 
HETATM    5  O   UNK N   1      34.671  14.362  12.168  0.00  0.00    -0.353 OA
ENDROOT
BRANCH   4   6
HETATM    6  N   UNK N   1      35.466  12.843  13.857  0.00  0.00    -0.280 N 
HETATM    7  C   UNK N   1      34.694  11.741  14.182  0.00  0.00     0.331 A 
HETATM    8  O   UNK N   1      34.129  11.098  13.317  0.00  0.00    -0.246 OA
HETATM    9  N   UNK N   1      34.519  11.388  15.495  0.00  0.00    -0.275 N 
HETATM   10  C   UNK N   1      35.095  12.112  16.500  0.00  0.00     0.250 A 
HETATM   11  H   UNK N   1      33.973  10.600  15.717  0.00  0.00     0.173 HD
HETATM   12  O   UNK N   1      34.910  11.797  17.661  0.00  0.00    -0.268 OA
HETATM   13  C   UNK N   1      35.881  13.216  16.192  0.00  0.00     0.092 A 
HETATM   14  C   UNK N   1      36.049  13.570  14.854  0.00  0.00     0.104 A 
ENDBRANCH   4   6
BRANCH   3  15
HETATM   15  O   UNK N   1      37.844  12.734  11.864  0.00  0.00    -0.388 OA
HETATM   16  H   UNK N   1      37.740  12.074  11.161  0.00  0.00     0.210 HD
ENDBRANCH   3  15
BRANCH   2  17
HETATM   17  O   UNK N   1      37.457  15.075  10.048  0.00  0.00    -0.390 OA
HETATM   18  H   UNK N   1      37.497  15.557   9.207  0.00  0.00     0.210 HD
ENDBRANCH   2  17
BRANCH   1  19
HETATM   19  C   UNK N   1      35.387  16.480  11.308  0.00  0.00     0.198 C 
BRANCH  19  20
HETATM   20  O   UNK N   1      35.446  17.184  10.104  0.00  0.00    -0.398 OA
HETATM   21  H   UNK N   1      35.474  18.153  10.104  0.00  0.00     0.209 HD
ENDBRANCH  19  20
ENDBRANCH   1  19
TORSDOF 5
ENDMDL
MODEL 8
REMARK VINA RESULT:      -5.3     19.271     21.033
REMARK  5 active torsions:
REMARK  status: ('A' for Active; 'I' for Inactive)
REMARK    1  A    between atoms: O_1  and  C_2 
REMARK    2  A    between atoms: C_3  and  C_2 
REMARK    3  A    between atoms: C_4  and  O_5 
REMARK    4  A    between atoms: C_6  and  O_7 
REMARK    5  A    between atoms: C_8  and  N_10 
ROOT
HETATM    1  C   UNK N   1      25.648  22.281  -7.418  0.00  0.00     0.179 C 
HETATM    2  C   UNK N   1      27.142  22.108  -7.161  0.00  0.00     0.182 C 
HETATM    3  C   UNK N   1      27.524  23.458  -6.655  0.00  0.00     0.198 C 
HETATM    4  C   UNK N   1      26.322  23.631  -5.751  0.00  0.00     0.263 C 
HETATM    5  O   UNK N   1      25.192  23.275  -6.521  0.00  0.00    -0.353 OA
ENDROOT
BRANCH   4   6
HETATM    6  N   UNK N   1      26.182  24.953  -5.109  0.00  0.00    -0.280 N 
HETATM    7  C   UNK N   1      26.667  25.174  -3.831  0.00  0.00     0.331 A 
HETATM    8  O   UNK N   1      27.269  24.302  -3.233  0.00  0.00    -0.246 OA
HETATM    9  N   UNK N   1      26.432  26.371  -3.204  0.00  0.00    -0.275 N 
HETATM   10  C   UNK N   1      25.717  27.358  -3.821  0.00  0.00     0.250 A 
HETATM   11  H   UNK N   1      26.784  26.522  -2.297  0.00  0.00     0.173 HD
HETATM   12  O   UNK N   1      25.498  28.406  -3.241  0.00  0.00    -0.268 OA
HETATM   13  C   UNK N   1      25.231  27.158  -5.107  0.00  0.00     0.092 A 
HETATM   14  C   UNK N   1      25.472  25.937  -5.735  0.00  0.00     0.104 A 
ENDBRANCH   4   6
BRANCH   3  15
HETATM   15  O   UNK N   1      28.724  23.381  -5.950  0.00  0.00    -0.388 OA
HETATM   16  H   UNK N   1      28.920  22.629  -5.369  0.00  0.00     0.210 HD
ENDBRANCH   3  15
BRANCH   2  17
HETATM   17  O   UNK N   1      27.880  21.708  -8.278  0.00  0.00    -0.390 OA
HETATM   18  H   UNK N   1      27.656  21.435  -9.181  0.00  0.00     0.210 HD
ENDBRANCH   2  17
BRANCH   1  19
HETATM   19  C   UNK N   1      25.326  22.709  -8.845  0.00  0.00     0.198 C 
BRANCH  19  20
HETATM   20  O   UNK N   1      25.066  21.579  -9.622  0.00  0.00    -0.398 OA
HETATM   21  H   UNK N   1      24.874  20.728  -9.200  0.00  0.00     0.209 HD
ENDBRANCH  19  20
ENDBRANCH   1  19
TORSDOF 5
ENDMDL
MODEL 9
REMARK VINA RESULT:      -5.3     15.909     18.786
REMARK  5 active torsions:
REMARK  status: ('A' for Active; 'I' for Inactive)
REMARK    1  A    between atoms: O_1  and  C_2 
REMARK    2  A    between atoms: C_3  and  C_2 
REMARK    3  A    between atoms: C_4  and  O_5 
REMARK    4  A    between atoms: C_6  and  O_7 
REMARK    5  A    between atoms: C_8  and  N_10 
ROOT
HETATM    1  C   UNK N   1      28.440  26.255  -4.615  0.00  0.00     0.179 C 
HETATM    2  C   UNK N   1      27.388  25.800  -3.608  0.00  0.00     0.182 C 
HETATM    3  C   UNK N   1      27.558  24.319  -3.637  0.00  0.00     0.198 C 
HETATM    4  C   UNK N   1      29.071  24.335  -3.631  0.00  0.00     0.263 C 
HETATM    5  O   UNK N   1      29.461  25.277  -4.609  0.00  0.00    -0.353 OA
ENDROOT
BRANCH   4   6
HETATM    6  N   UNK N   1      29.732  23.026  -3.805  0.00  0.00    -0.280 N 
HETATM    7  C   UNK N   1      30.485  22.473  -2.783  0.00  0.00     0.331 A 
HETATM    8  O   UNK N   1      30.572  23.025  -1.703  0.00  0.00    -0.246 OA
HETATM    9  N   UNK N   1      31.183  21.311  -2.996  0.00  0.00    -0.275 N 
HETATM   10  C   UNK N   1      31.153  20.686  -4.210  0.00  0.00     0.250 A 
HETATM   11  H   UNK N   1      31.713  20.923  -2.264  0.00  0.00     0.173 HD
HETATM   12  O   UNK N   1      31.798  19.669  -4.388  0.00  0.00    -0.268 OA
HETATM   13  C   UNK N   1      30.395  21.222  -5.244  0.00  0.00     0.092 A 
HETATM   14  C   UNK N   1      29.691  22.404  -5.019  0.00  0.00     0.104 A 
ENDBRANCH   4   6
BRANCH   3  15
HETATM   15  O   UNK N   1      27.019  23.754  -2.482  0.00  0.00    -0.388 OA
HETATM   16  H   UNK N   1      26.064  23.614  -2.388  0.00  0.00     0.210 HD
ENDBRANCH   3  15
BRANCH   2  17
HETATM   17  O   UNK N   1      26.086  26.213  -3.901  0.00  0.00    -0.390 OA
HETATM   18  H   UNK N   1      25.463  26.042  -4.625  0.00  0.00     0.210 HD
ENDBRANCH   2  17
BRANCH   1  19
HETATM   19  C   UNK N   1      27.896  26.402  -6.031  0.00  0.00     0.198 C 
BRANCH  19  20
HETATM   20  O   UNK N   1      27.246  27.631  -6.155  0.00  0.00    -0.398 OA
HETATM   21  H   UNK N   1      27.015  28.145  -5.367  0.00  0.00     0.209 HD
ENDBRANCH  19  20
ENDBRANCH   1  19
TORSDOF 5
ENDMDL
