REMARK  5 active torsions:
REMARK  status: ('A' for Active; 'I' for Inactive)
REMARK    1  A    between atoms: O_1  and  C_2 
REMARK    2  A    between atoms: C_3  and  C_2 
REMARK    3  A    between atoms: C_4  and  O_5 
REMARK    4  A    between atoms: C_6  and  O_7 
REMARK    5  A    between atoms: C_8  and  N_10 
ROOT
HETATM    1  C   UNK N   1      -2.774   0.099  -0.639  0.00  0.00     0.179 C 
HETATM    2  C   UNK N   1      -2.410   1.424   0.024  0.00  0.00     0.182 C 
HETATM    3  C   UNK N   1      -1.114   1.091   0.682  0.00  0.00     0.198 C 
HETATM    4  C   UNK N   1      -0.542   0.315  -0.485  0.00  0.00     0.263 C 
HETATM    5  O   UNK N   1      -1.558  -0.570  -0.909  0.00  0.00    -0.353 OA
ENDROOT
BRANCH   4   6
HETATM    6  N   UNK N   1       0.744  -0.368  -0.238  0.00  0.00    -0.280 N 
HETATM    7  C   UNK N   1       1.916   0.357  -0.103  0.00  0.00     0.331 A 
HETATM    8  O   UNK N   1       1.903   1.573  -0.127  0.00  0.00    -0.246 OA
HETATM    9  N   UNK N   1       3.117  -0.295   0.014  0.00  0.00    -0.275 N 
HETATM   10  C   UNK N   1       3.181  -1.659  -0.005  0.00  0.00     0.250 A 
HETATM   11  H   UNK N   1       3.945   0.228   0.114  0.00  0.00     0.173 HD
HETATM   12  O   UNK N   1       4.258  -2.220   0.077  0.00  0.00    -0.268 OA
HETATM   13  C   UNK N   1       2.014  -2.403  -0.130  0.00  0.00     0.092 A 
HETATM   14  C   UNK N   1       0.798  -1.732  -0.252  0.00  0.00     0.104 A 
ENDBRANCH   4   6
BRANCH   3  15
HETATM   15  O   UNK N   1      -0.403   2.259   0.955  0.00  0.00    -0.388 OA
HETATM   16  H   UNK N   1       0.548   2.237   1.145  0.00  0.00     0.210 HD
ENDBRANCH   3  15
BRANCH   2  17
HETATM   17  O   UNK N   1      -3.371   1.912   0.913  0.00  0.00    -0.390 OA
HETATM   18  H   UNK N   1      -3.412   2.659   1.530  0.00  0.00     0.210 HD
ENDBRANCH   2  17
BRANCH   1  19
HETATM   19  C   UNK N   1      -3.652  -0.791   0.233  0.00  0.00     0.198 C 
BRANCH  19  20
HETATM   20  O   UNK N   1      -4.989  -0.422   0.076  0.00  0.00    -0.398 OA
HETATM   21  H   UNK N   1      -5.231   0.510  -0.033  0.00  0.00     0.209 HD
ENDBRANCH  19  20
ENDBRANCH   1  19
TORSDOF 5
