REMARK  4 active torsions:
REMARK  status: ('A' for Active; 'I' for Inactive)
REMARK    1  A    between atoms: C_3  and  N_4 
REMARK    2  A    between atoms: C_3  and  C_5 
REMARK    3  A    between atoms: C_8  and  C_10 
REMARK    4  A    between atoms: C_10  and  O_13 
ROOT
HETATM    1  C   UNK N   1       0.086  -0.443  -0.000  0.00  0.00     0.092 A 
HETATM    2  S   UNK N   1      -1.617  -0.960   0.000  0.00  0.00    -0.108 SA
HETATM    3  C   UNK N   1      -2.086   0.800   0.002  0.00  0.00     0.117 A 
HETATM    4  C   UNK N   1      -0.851   1.706   0.000  0.00  0.00     0.190 A 
HETATM    5  N   UNK N   1       0.286   0.819   0.000  0.00  0.00    -0.368 N 
ATOM      6  HN  UNK N   1       1.235   1.193  -0.000  1.00  0.00     0.161 HD
ENDROOT
BRANCH   1   7
HETATM    7  C   UNK N   1       1.258  -1.372  -0.000  0.00  0.00     0.055 C 
HETATM    8  C   UNK N   1       1.174  -2.716  -0.000  0.00  0.00     0.001 C 
HETATM    9  C   UNK N   1      -0.083  -3.523  -0.000  0.00  0.00     0.038 C 
BRANCH   7  10
HETATM   10  N   UNK N   1       2.553  -0.806  -0.000  0.00  0.00    -0.397 N 
HETATM   11  H   UNK N   1       3.346  -1.390  -0.000  0.00  0.00     0.156 HD
HETATM   12  H   UNK N   1       2.662   0.173  -0.000  0.00  0.00     0.156 HD
ENDBRANCH   7  10
ENDBRANCH   1   7
BRANCH   4  13
HETATM   13  C   UNK N   1      -0.517   3.180   0.000  0.00  0.00     0.164 C 
HETATM   14  O   UNK N   1      -1.399   4.028   0.000  0.00  0.00    -0.648 OA
BRANCH  13  15
HETATM   15  O   UNK N   1       0.772   3.572   0.000  0.00  0.00    -0.775 OA
HETATM   16  H   UNK N   1       1.456   2.932   0.000  0.00  0.00     0.167 HD
ENDBRANCH  13  15
ENDBRANCH   4  13
TORSDOF 4
