MODEL 1
REMARK VINA RESULT:      -5.1      0.000      0.000
REMARK  4 active torsions:
REMARK  status: ('A' for Active; 'I' for Inactive)
REMARK    1  A    between atoms: C_3  and  N_4 
REMARK    2  A    between atoms: C_3  and  C_5 
REMARK    3  A    between atoms: C_8  and  C_10 
REMARK    4  A    between atoms: C_10  and  O_13 
ROOT
HETATM    1  C   UNK N   1      19.935  17.236   1.682  0.00  0.00     0.092 A 
HETATM    2  S   UNK N   1      19.946  17.012   3.447  0.00  0.00    -0.108 SA
HETATM    3  C   UNK N   1      20.563  18.719   3.597  0.00  0.00     0.117 A 
HETATM    4  C   UNK N   1      20.724  19.377   2.223  0.00  0.00     0.190 A 
HETATM    5  N   UNK N   1      20.320  18.380   1.262  0.00  0.00    -0.368 N 
ATOM      6  HN  UNK N   1      20.341  18.585   0.263  1.00  0.00     0.161 HD
ENDROOT
BRANCH   1   7
HETATM    7  C   UNK N   1      19.514  16.196   0.693  0.00  0.00     0.055 C 
HETATM    8  C   UNK N   1      20.161  15.035   0.476  0.00  0.00     0.001 C 
HETATM    9  C   UNK N   1      21.402  14.572   1.167  0.00  0.00     0.038 C 
BRANCH   7  10
HETATM   10  N   UNK N   1      18.352  16.440  -0.073  0.00  0.00    -0.397 N 
HETATM   11  H   UNK N   1      17.875  17.297   0.014  0.00  0.00     0.156 HD
HETATM   12  H   UNK N   1      18.018  15.752  -0.694  0.00  0.00     0.156 HD
ENDBRANCH   7  10
ENDBRANCH   1   7
BRANCH   4  13
HETATM   13  C   UNK N   1      21.163  20.697   1.634  0.00  0.00     0.164 C 
HETATM   14  O   UNK N   1      21.246  20.853   0.424  0.00  0.00    -0.648 OA
BRANCH  13  15
HETATM   15  O   UNK N   1      21.469  21.723   2.452  0.00  0.00    -0.775 OA
HETATM   16  H   UNK N   1      21.596  22.582   2.099  0.00  0.00     0.167 HD
ENDBRANCH  13  15
ENDBRANCH   4  13
TORSDOF 4
ENDMDL
MODEL 2
REMARK VINA RESULT:      -5.0     12.708     13.690
REMARK  4 active torsions:
REMARK  status: ('A' for Active; 'I' for Inactive)
REMARK    1  A    between atoms: C_3  and  N_4 
REMARK    2  A    between atoms: C_3  and  C_5 
REMARK    3  A    between atoms: C_8  and  C_10 
REMARK    4  A    between atoms: C_10  and  O_13 
ROOT
HETATM    1  C   UNK N   1      30.784  17.406   8.463  0.00  0.00     0.092 A 
HETATM    2  S   UNK N   1      30.738  16.853   6.772  0.00  0.00    -0.108 SA
HETATM    3  C   UNK N   1      32.533  17.149   6.692  0.00  0.00     0.117 A 
HETATM    4  C   UNK N   1      33.072  17.672   8.027  0.00  0.00     0.190 A 
HETATM    5  N   UNK N   1      31.932  17.753   8.906  0.00  0.00    -0.368 N 
ATOM      6  HN  UNK N   1      32.039  18.081   9.866  1.00  0.00     0.161 HD
ENDROOT
BRANCH   1   7
HETATM    7  C   UNK N   1      29.594  17.486   9.366  0.00  0.00     0.055 C 
HETATM    8  C   UNK N   1      28.482  18.200   9.111  0.00  0.00     0.001 C 
HETATM    9  C   UNK N   1      28.227  19.036   7.900  0.00  0.00     0.038 C 
BRANCH   7  10
HETATM   10  N   UNK N   1      29.632  16.760  10.578  0.00  0.00    -0.397 N 
HETATM   11  H   UNK N   1      28.941  16.909  11.263  0.00  0.00     0.156 HD
HETATM   12  H   UNK N   1      30.350  16.105  10.737  0.00  0.00     0.156 HD
ENDBRANCH   7  10
ENDBRANCH   1   7
BRANCH   4  13
HETATM   13  C   UNK N   1      34.386  18.103   8.638  0.00  0.00     0.164 C 
HETATM   14  O   UNK N   1      34.984  19.086   8.222  0.00  0.00    -0.648 OA
BRANCH  13  15
HETATM   15  O   UNK N   1      34.912  17.395   9.656  0.00  0.00    -0.775 OA
HETATM   16  H   UNK N   1      34.688  17.609  10.540  0.00  0.00     0.167 HD
ENDBRANCH  13  15
ENDBRANCH   4  13
TORSDOF 4
ENDMDL
MODEL 3
REMARK VINA RESULT:      -4.9      8.815      9.553
REMARK  4 active torsions:
REMARK  status: ('A' for Active; 'I' for Inactive)
REMARK    1  A    between atoms: C_3  and  N_4 
REMARK    2  A    between atoms: C_3  and  C_5 
REMARK    3  A    between atoms: C_8  and  C_10 
REMARK    4  A    between atoms: C_10  and  O_13 
ROOT
HETATM    1  C   UNK N   1      21.415  12.990   9.721  0.00  0.00     0.092 A 
HETATM    2  S   UNK N   1      21.730  12.434   8.059  0.00  0.00    -0.108 SA
HETATM    3  C   UNK N   1      20.903  13.945   7.465  0.00  0.00     0.117 A 
HETATM    4  C   UNK N   1      20.423  14.813   8.631  0.00  0.00     0.190 A 
HETATM    5  N   UNK N   1      20.803  14.106   9.829  0.00  0.00    -0.368 N 
ATOM      6  HN  UNK N   1      20.587  14.491  10.749  1.00  0.00     0.161 HD
ENDROOT
BRANCH   1   7
HETATM    7  C   UNK N   1      21.814  12.249  10.957  0.00  0.00     0.055 C 
HETATM    8  C   UNK N   1      23.083  11.958  11.303  0.00  0.00     0.001 C 
HETATM    9  C   UNK N   1      24.313  12.313  10.534  0.00  0.00     0.038 C 
BRANCH   7  10
HETATM   10  N   UNK N   1      20.791  11.818  11.831  0.00  0.00    -0.397 N 
HETATM   11  H   UNK N   1      19.947  11.465  11.466  0.00  0.00     0.156 HD
HETATM   12  H   UNK N   1      20.923  11.870  12.806  0.00  0.00     0.156 HD
ENDBRANCH   7  10
ENDBRANCH   1   7
BRANCH   4  13
HETATM   13  C   UNK N   1      19.703  16.123   8.858  0.00  0.00     0.164 C 
HETATM   14  O   UNK N   1      18.515  16.150   9.146  0.00  0.00    -0.648 OA
BRANCH  13  15
HETATM   15  O   UNK N   1      20.378  17.284   8.743  0.00  0.00    -0.775 OA
HETATM   16  H   UNK N   1      21.007  17.526   9.394  0.00  0.00     0.167 HD
ENDBRANCH  13  15
ENDBRANCH   4  13
TORSDOF 4
ENDMDL
MODEL 4
REMARK VINA RESULT:      -4.7     12.894     13.877
REMARK  4 active torsions:
REMARK  status: ('A' for Active; 'I' for Inactive)
REMARK    1  A    between atoms: C_3  and  N_4 
REMARK    2  A    between atoms: C_3  and  C_5 
REMARK    3  A    between atoms: C_8  and  C_10 
REMARK    4  A    between atoms: C_10  and  O_13 
ROOT
HETATM    1  C   UNK N   1      32.507  17.460   8.165  0.00  0.00     0.092 A 
HETATM    2  S   UNK N   1      31.998  16.826   6.582  0.00  0.00    -0.108 SA
HETATM    3  C   UNK N   1      30.284  17.242   7.037  0.00  0.00     0.117 A 
HETATM    4  C   UNK N   1      30.215  17.870   8.432  0.00  0.00     0.190 A 
HETATM    5  N   UNK N   1      31.574  17.910   8.913  0.00  0.00    -0.368 N 
ATOM      6  HN  UNK N   1      31.786  18.290   9.835  1.00  0.00     0.161 HD
ENDROOT
BRANCH   1   7
HETATM    7  C   UNK N   1      33.920  17.497   8.654  0.00  0.00     0.055 C 
HETATM    8  C   UNK N   1      34.522  16.507   9.340  0.00  0.00     0.001 C 
HETATM    9  C   UNK N   1      33.906  15.206   9.739  0.00  0.00     0.038 C 
BRANCH   7  10
HETATM   10  N   UNK N   1      34.688  18.651   8.379  0.00  0.00    -0.397 N 
HETATM   11  H   UNK N   1      35.604  18.729   8.732  0.00  0.00     0.156 HD
HETATM   12  H   UNK N   1      34.306  19.378   7.834  0.00  0.00     0.156 HD
ENDBRANCH   7  10
ENDBRANCH   1   7
BRANCH   4  13
HETATM   13  C   UNK N   1      29.179  18.422   9.385  0.00  0.00     0.164 C 
HETATM   14  O   UNK N   1      29.498  18.855  10.484  0.00  0.00    -0.648 OA
BRANCH  13  15
HETATM   15  O   UNK N   1      27.882  18.441   9.022  0.00  0.00    -0.775 OA
HETATM   16  H   UNK N   1      27.212  18.454   9.677  0.00  0.00     0.167 HD
ENDBRANCH  13  15
ENDBRANCH   4  13
TORSDOF 4
ENDMDL
MODEL 5
REMARK VINA RESULT:      -4.6      2.404      3.676
REMARK  4 active torsions:
REMARK  status: ('A' for Active; 'I' for Inactive)
REMARK    1  A    between atoms: C_3  and  N_4 
REMARK    2  A    between atoms: C_3  and  C_5 
REMARK    3  A    between atoms: C_8  and  C_10 
REMARK    4  A    between atoms: C_10  and  O_13 
ROOT
HETATM    1  C   UNK N   1      21.294  18.039   3.883  0.00  0.00     0.092 A 
HETATM    2  S   UNK N   1      20.241  16.806   3.149  0.00  0.00    -0.108 SA
HETATM    3  C   UNK N   1      19.956  17.961   1.770  0.00  0.00     0.117 A 
HETATM    4  C   UNK N   1      20.723  19.271   1.972  0.00  0.00     0.190 A 
HETATM    5  N   UNK N   1      21.422  19.127   3.225  0.00  0.00    -0.368 N 
ATOM      6  HN  UNK N   1      22.009  19.881   3.581  1.00  0.00     0.161 HD
ENDROOT
BRANCH   1   7
HETATM    7  C   UNK N   1      22.015  17.878   5.183  0.00  0.00     0.055 C 
HETATM    8  C   UNK N   1      23.257  17.376   5.318  0.00  0.00     0.001 C 
HETATM    9  C   UNK N   1      24.138  16.891   4.213  0.00  0.00     0.038 C 
BRANCH   7  10
HETATM   10  N   UNK N   1      21.350  18.281   6.364  0.00  0.00    -0.397 N 
HETATM   11  H   UNK N   1      21.775  18.929   6.972  0.00  0.00     0.156 HD
HETATM   12  H   UNK N   1      20.461  17.913   6.578  0.00  0.00     0.156 HD
ENDBRANCH   7  10
ENDBRANCH   1   7
BRANCH   4  13
HETATM   13  C   UNK N   1      20.934  20.591   1.266  0.00  0.00     0.164 C 
HETATM   14  O   UNK N   1      21.064  20.643   0.050  0.00  0.00    -0.648 OA
BRANCH  13  15
HETATM   15  O   UNK N   1      20.982  21.731   1.982  0.00  0.00    -0.775 OA
HETATM   16  H   UNK N   1      21.590  21.814   2.690  0.00  0.00     0.167 HD
ENDBRANCH  13  15
ENDBRANCH   4  13
TORSDOF 4
ENDMDL
MODEL 6
REMARK VINA RESULT:      -4.5     15.649     16.189
REMARK  4 active torsions:
REMARK  status: ('A' for Active; 'I' for Inactive)
REMARK    1  A    between atoms: C_3  and  N_4 
REMARK    2  A    between atoms: C_3  and  C_5 
REMARK    3  A    between atoms: C_8  and  C_10 
REMARK    4  A    between atoms: C_10  and  O_13 
ROOT
HETATM    1  C   UNK N   1      34.277  14.782   9.502  0.00  0.00     0.092 A 
HETATM    2  S   UNK N   1      34.932  15.064  11.132  0.00  0.00    -0.108 SA
HETATM    3  C   UNK N   1      35.242  16.790  10.641  0.00  0.00     0.117 A 
HETATM    4  C   UNK N   1      34.800  17.047   9.197  0.00  0.00     0.190 A 
HETATM    5  N   UNK N   1      34.280  15.790   8.717  0.00  0.00    -0.368 N 
ATOM      6  HN  UNK N   1      33.921  15.708   7.766  1.00  0.00     0.161 HD
ENDROOT
BRANCH   1   7
HETATM    7  C   UNK N   1      33.740  13.474   9.014  0.00  0.00     0.055 C 
HETATM    8  C   UNK N   1      34.484  12.491   8.472  0.00  0.00     0.001 C 
HETATM    9  C   UNK N   1      35.962  12.518   8.256  0.00  0.00     0.038 C 
BRANCH   7  10
HETATM   10  N   UNK N   1      32.350  13.244   9.127  0.00  0.00    -0.397 N 
HETATM   11  H   UNK N   1      32.019  12.461   9.625  0.00  0.00     0.156 HD
HETATM   12  H   UNK N   1      31.712  13.868   8.709  0.00  0.00     0.156 HD
ENDBRANCH   7  10
ENDBRANCH   1   7
BRANCH   4  13
HETATM   13  C   UNK N   1      34.764  18.181   8.200  0.00  0.00     0.164 C 
HETATM   14  O   UNK N   1      35.096  19.315   8.519  0.00  0.00    -0.648 OA
BRANCH  13  15
HETATM   15  O   UNK N   1      34.359  17.946   6.936  0.00  0.00    -0.775 OA
HETATM   16  H   UNK N   1      33.766  17.244   6.758  0.00  0.00     0.167 HD
ENDBRANCH  13  15
ENDBRANCH   4  13
TORSDOF 4
ENDMDL
MODEL 7
REMARK VINA RESULT:      -4.5     18.977     19.794
REMARK  4 active torsions:
REMARK  status: ('A' for Active; 'I' for Inactive)
REMARK    1  A    between atoms: C_3  and  N_4 
REMARK    2  A    between atoms: C_3  and  C_5 
REMARK    3  A    between atoms: C_8  and  C_10 
REMARK    4  A    between atoms: C_10  and  O_13 
ROOT
HETATM    1  C   UNK N   1      35.844  12.928  13.729  0.00  0.00     0.092 A 
HETATM    2  S   UNK N   1      37.124  11.953  12.968  0.00  0.00    -0.108 SA
HETATM    3  C   UNK N   1      37.177  13.183  11.626  0.00  0.00     0.117 A 
HETATM    4  C   UNK N   1      36.166  14.310  11.862  0.00  0.00     0.190 A 
HETATM    5  N   UNK N   1      35.505  13.990  13.103  0.00  0.00    -0.368 N 
ATOM      6  HN  UNK N   1      34.779  14.601  13.476  1.00  0.00     0.161 HD
ENDROOT
BRANCH   1   7
HETATM    7  C   UNK N   1      35.165  12.586  15.017  0.00  0.00     0.055 C 
HETATM    8  C   UNK N   1      34.251  11.610  15.168  0.00  0.00     0.001 C 
HETATM    9  C   UNK N   1      33.748  10.696  14.099  0.00  0.00     0.038 C 
BRANCH   7  10
HETATM   10  N   UNK N   1      35.502  13.339  16.164  0.00  0.00    -0.397 N 
HETATM   11  H   UNK N   1      35.082  13.132  17.030  0.00  0.00     0.156 HD
HETATM   12  H   UNK N   1      36.158  14.071  16.097  0.00  0.00     0.156 HD
ENDBRANCH   7  10
ENDBRANCH   1   7
BRANCH   4  13
HETATM   13  C   UNK N   1      35.700  15.583  11.195  0.00  0.00     0.164 C 
HETATM   14  O   UNK N   1      36.501  16.397  10.756  0.00  0.00    -0.648 OA
BRANCH  13  15
HETATM   15  O   UNK N   1      34.381  15.830  11.078  0.00  0.00    -0.775 OA
HETATM   16  H   UNK N   1      33.909  15.512  10.334  0.00  0.00     0.167 HD
ENDBRANCH  13  15
ENDBRANCH   4  13
TORSDOF 4
ENDMDL
MODEL 8
REMARK VINA RESULT:      -4.5      4.043      5.112
REMARK  4 active torsions:
REMARK  status: ('A' for Active; 'I' for Inactive)
REMARK    1  A    between atoms: C_3  and  N_4 
REMARK    2  A    between atoms: C_3  and  C_5 
REMARK    3  A    between atoms: C_8  and  C_10 
REMARK    4  A    between atoms: C_10  and  O_13 
ROOT
HETATM    1  C   UNK N   1      20.503  17.330   2.984  0.00  0.00     0.092 A 
HETATM    2  S   UNK N   1      22.086  16.847   3.637  0.00  0.00    -0.108 SA
HETATM    3  C   UNK N   1      21.203  15.760   4.802  0.00  0.00     0.117 A 
HETATM    4  C   UNK N   1      19.687  15.841   4.601  0.00  0.00     0.190 A 
HETATM    5  N   UNK N   1      19.484  16.783   3.528  0.00  0.00    -0.368 N 
ATOM      6  HN  UNK N   1      18.542  17.009   3.208  1.00  0.00     0.161 HD
ENDROOT
BRANCH   1   7
HETATM    7  C   UNK N   1      20.303  18.308   1.870  0.00  0.00     0.055 C 
HETATM    8  C   UNK N   1      20.360  19.647   2.003  0.00  0.00     0.001 C 
HETATM    9  C   UNK N   1      20.628  20.399   3.266  0.00  0.00     0.038 C 
BRANCH   7  10
HETATM   10  N   UNK N   1      20.035  17.799   0.580  0.00  0.00    -0.397 N 
HETATM   11  H   UNK N   1      20.458  18.209  -0.210  0.00  0.00     0.156 HD
HETATM   12  H   UNK N   1      19.426  17.033   0.470  0.00  0.00     0.156 HD
ENDBRANCH   7  10
ENDBRANCH   1   7
BRANCH   4  13
HETATM   13  C   UNK N   1      18.425  15.246   5.182  0.00  0.00     0.164 C 
HETATM   14  O   UNK N   1      17.695  15.902   5.912  0.00  0.00    -0.648 OA
BRANCH  13  15
HETATM   15  O   UNK N   1      18.095  13.972   4.894  0.00  0.00    -0.775 OA
HETATM   16  H   UNK N   1      17.195  13.710   4.897  0.00  0.00     0.167 HD
ENDBRANCH  13  15
ENDBRANCH   4  13
TORSDOF 4
ENDMDL
MODEL 9
REMARK VINA RESULT:      -4.4     11.347     13.269
REMARK  4 active torsions:
REMARK  status: ('A' for Active; 'I' for Inactive)
REMARK    1  A    between atoms: C_3  and  N_4 
REMARK    2  A    between atoms: C_3  and  C_5 
REMARK    3  A    between atoms: C_8  and  C_10 
REMARK    4  A    between atoms: C_10  and  O_13 
ROOT
HETATM    1  C   UNK N   1      26.320  27.486  -4.691  0.00  0.00     0.092 A 
HETATM    2  S   UNK N   1      25.048  26.916  -5.797  0.00  0.00    -0.108 SA
HETATM    3  C   UNK N   1      25.502  25.212  -5.341  0.00  0.00     0.117 A 
HETATM    4  C   UNK N   1      26.648  25.194  -4.324  0.00  0.00     0.190 A 
HETATM    5  N   UNK N   1      26.977  26.576  -4.080  0.00  0.00    -0.368 N 
ATOM      6  HN  UNK N   1      27.722  26.824  -3.429  1.00  0.00     0.161 HD
ENDROOT
BRANCH   1   7
HETATM    7  C   UNK N   1      26.653  28.923  -4.444  0.00  0.00     0.055 C 
HETATM    8  C   UNK N   1      27.446  29.675  -5.231  0.00  0.00     0.001 C 
HETATM    9  C   UNK N   1      28.134  29.226  -6.479  0.00  0.00     0.038 C 
BRANCH   7  10
HETATM   10  N   UNK N   1      26.099  29.546  -3.303  0.00  0.00    -0.397 N 
HETATM   11  H   UNK N   1      26.658  30.127  -2.738  0.00  0.00     0.156 HD
HETATM   12  H   UNK N   1      25.152  29.399  -3.074  0.00  0.00     0.156 HD
ENDBRANCH   7  10
ENDBRANCH   1   7
BRANCH   4  13
HETATM   13  C   UNK N   1      27.477  24.190  -3.557  0.00  0.00     0.164 C 
HETATM   14  O   UNK N   1      28.513  23.737  -4.025  0.00  0.00    -0.648 OA
BRANCH  13  15
HETATM   15  O   UNK N   1      27.072  23.783  -2.338  0.00  0.00    -0.775 OA
HETATM   16  H   UNK N   1      27.428  23.002  -1.964  0.00  0.00     0.167 HD
ENDBRANCH  13  15
ENDBRANCH   4  13
TORSDOF 4
ENDMDL
