MODEL 1
REMARK VINA RESULT:      -6.1      0.000      0.000
REMARK  5 active torsions:
REMARK  status: ('A' for Active; 'I' for Inactive)
REMARK    1  A    between atoms: N_1  and  C_2 
REMARK    2  A    between atoms: C_9  and  N_10 
REMARK    3  A    between atoms: N_10  and  C_11 
REMARK    4  A    between atoms: C_16  and  S_17 
REMARK    5  A    between atoms: S_17  and  N_20 
ROOT
HETATM    1  N   UNK N   1      31.214  16.933   6.029  0.00  0.00    -0.342 N 
HETATM    2  H   UNK N   1      31.417  16.705   5.092  0.00  0.00     0.167 HD
ENDROOT
BRANCH   1   3
HETATM    3  C   UNK N   1      29.928  17.504   6.305  0.00  0.00     0.110 A 
HETATM    4  N   UNK N   1      29.142  17.911   5.280  0.00  0.00    -0.338 N 
HETATM    5  C   UNK N   1      27.913  18.456   5.505  0.00  0.00     0.183 A 
ATOM      6  HN  UNK N   1      29.477  17.808   4.322  1.00  0.00     0.168 HD
HETATM    7  N   UNK N   1      27.458  18.611   6.779  0.00  0.00    -0.339 N 
HETATM    8  C   UNK N   1      28.215  18.232   7.833  0.00  0.00     0.103 A 
ATOM      9  HN  UNK N   1      26.537  19.018   6.940  1.00  0.00     0.168 HD
HETATM   10  C   UNK N   1      29.470  17.668   7.624  0.00  0.00     0.096 A 
BRANCH   8  11
HETATM   11  N   UNK N   1      27.737  18.405   9.150  0.00  0.00    -0.385 N 
HETATM   12  H   UNK N   1      27.594  17.657   9.773  0.00  0.00     0.157 HD
HETATM   13  H   UNK N   1      27.538  19.318   9.459  0.00  0.00     0.157 HD
ENDBRANCH   8  11
ENDBRANCH   1   3
BRANCH   1  14
HETATM   14  C   UNK N   1      32.221  16.666   7.000  0.00  0.00     0.033 A 
HETATM   15  C   UNK N   1      33.143  17.664   7.364  0.00  0.00     0.031 A 
HETATM   16  C   UNK N   1      34.150  17.394   8.314  0.00  0.00     0.027 A 
HETATM   17  C   UNK N   1      34.221  16.116   8.909  0.00  0.00     0.079 A 
HETATM   18  C   UNK N   1      33.317  15.131   8.513  0.00  0.00     0.027 A 
HETATM   19  C   UNK N   1      32.337  15.398   7.575  0.00  0.00     0.031 A 
BRANCH  17  20
HETATM   20  S   UNK N   1      35.439  15.605  10.141  0.00  0.00     0.256 S 
HETATM   21  O   UNK N   1      36.730  16.199  10.726  0.00  0.00    -0.201 OA
HETATM   22  O   UNK N   1      34.666  15.172  11.394  0.00  0.00    -0.201 OA
BRANCH  20  23
HETATM   23  N   UNK N   1      34.957  17.246  10.585  0.00  0.00    -0.324 N 
HETATM   24  H   UNK N   1      34.711  18.235  10.552  0.00  0.00     0.169 HD
HETATM   25  H   UNK N   1      34.847  17.100  11.588  0.00  0.00     0.169 HD
ENDBRANCH  20  23
ENDBRANCH  17  20
ENDBRANCH   1  14
TORSDOF 5
ENDMDL
MODEL 2
REMARK VINA RESULT:      -6.0      2.156      3.308
REMARK  5 active torsions:
REMARK  status: ('A' for Active; 'I' for Inactive)
REMARK    1  A    between atoms: N_1  and  C_2 
REMARK    2  A    between atoms: C_9  and  N_10 
REMARK    3  A    between atoms: N_10  and  C_11 
REMARK    4  A    between atoms: C_16  and  S_17 
REMARK    5  A    between atoms: S_17  and  N_20 
ROOT
HETATM    1  N   UNK N   1      28.431  17.700   6.871  0.00  0.00    -0.342 N 
HETATM    2  H   UNK N   1      27.900  16.885   7.026  0.00  0.00     0.167 HD
ENDROOT
BRANCH   1   3
HETATM    3  C   UNK N   1      27.733  18.863   6.404  0.00  0.00     0.110 A 
HETATM    4  N   UNK N   1      27.278  19.773   7.297  0.00  0.00    -0.338 N 
HETATM    5  C   UNK N   1      26.613  20.891   6.890  0.00  0.00     0.183 A 
ATOM      6  HN  UNK N   1      27.435  19.619   8.293  1.00  0.00     0.168 HD
HETATM    7  N   UNK N   1      26.385  21.105   5.565  0.00  0.00    -0.339 N 
HETATM    8  C   UNK N   1      26.809  20.215   4.640  0.00  0.00     0.103 A 
ATOM      9  HN  UNK N   1      25.888  21.944   5.267  1.00  0.00     0.168 HD
HETATM   10  C   UNK N   1      27.495  19.070   5.035  0.00  0.00     0.096 A 
BRANCH   8  11
HETATM   11  N   UNK N   1      26.560  20.441   3.268  0.00  0.00    -0.385 N 
HETATM   12  H   UNK N   1      27.222  20.259   2.564  0.00  0.00     0.157 HD
HETATM   13  H   UNK N   1      25.681  20.800   3.006  0.00  0.00     0.157 HD
ENDBRANCH   8  11
ENDBRANCH   1   3
BRANCH   1  14
HETATM   14  C   UNK N   1      29.830  17.629   7.129  0.00  0.00     0.033 A 
HETATM   15  C   UNK N   1      30.711  17.128   6.154  0.00  0.00     0.031 A 
HETATM   16  C   UNK N   1      32.094  17.043   6.417  0.00  0.00     0.027 A 
HETATM   17  C   UNK N   1      32.593  17.476   7.663  0.00  0.00     0.079 A 
HETATM   18  C   UNK N   1      31.701  17.941   8.629  0.00  0.00     0.027 A 
HETATM   19  C   UNK N   1      30.345  18.014   8.370  0.00  0.00     0.031 A 
BRANCH  17  20
HETATM   20  S   UNK N   1      34.330  17.442   8.161  0.00  0.00     0.256 S 
HETATM   21  O   UNK N   1      35.123  17.838   9.416  0.00  0.00    -0.201 OA
HETATM   22  O   UNK N   1      34.866  16.040   7.847  0.00  0.00    -0.201 OA
BRANCH  20  23
HETATM   23  N   UNK N   1      33.434  16.653   9.464  0.00  0.00    -0.324 N 
HETATM   24  H   UNK N   1      32.988  16.445  10.357  0.00  0.00     0.169 HD
HETATM   25  H   UNK N   1      33.189  15.794   8.973  0.00  0.00     0.169 HD
ENDBRANCH  20  23
ENDBRANCH  17  20
ENDBRANCH   1  14
TORSDOF 5
ENDMDL
MODEL 3
REMARK VINA RESULT:      -5.8      4.614      8.149
REMARK  5 active torsions:
REMARK  status: ('A' for Active; 'I' for Inactive)
REMARK    1  A    between atoms: N_1  and  C_2 
REMARK    2  A    between atoms: C_9  and  N_10 
REMARK    3  A    between atoms: N_10  and  C_11 
REMARK    4  A    between atoms: C_16  and  S_17 
REMARK    5  A    between atoms: S_17  and  N_20 
ROOT
HETATM    1  N   UNK N   1      36.984  14.100  11.767  0.00  0.00    -0.342 N 
HETATM    2  H   UNK N   1      37.922  13.867  11.578  0.00  0.00     0.167 HD
ENDROOT
BRANCH   1   3
HETATM    3  C   UNK N   1      36.454  13.721  13.044  0.00  0.00     0.110 A 
HETATM    4  N   UNK N   1      36.964  14.272  14.171  0.00  0.00    -0.338 N 
HETATM    5  C   UNK N   1      36.483  13.937  15.402  0.00  0.00     0.183 A 
ATOM      6  HN  UNK N   1      37.721  14.950  14.097  1.00  0.00     0.168 HD
HETATM    7  N   UNK N   1      35.479  13.024  15.517  0.00  0.00    -0.339 N 
HETATM    8  C   UNK N   1      34.951  12.438  14.419  0.00  0.00     0.103 A 
ATOM      9  HN  UNK N   1      35.123  12.779  16.440  1.00  0.00     0.168 HD
HETATM   10  C   UNK N   1      35.424  12.771  13.154  0.00  0.00     0.096 A 
BRANCH   8  11
HETATM   11  N   UNK N   1      33.916  11.485  14.551  0.00  0.00    -0.385 N 
HETATM   12  H   UNK N   1      33.002  11.719  14.827  0.00  0.00     0.157 HD
HETATM   13  H   UNK N   1      34.122  10.542  14.356  0.00  0.00     0.157 HD
ENDBRANCH   8  11
ENDBRANCH   1   3
BRANCH   1  14
HETATM   14  C   UNK N   1      36.264  14.789  10.750  0.00  0.00     0.033 A 
HETATM   15  C   UNK N   1      36.028  14.179   9.504  0.00  0.00     0.031 A 
HETATM   16  C   UNK N   1      35.328  14.869   8.492  0.00  0.00     0.027 A 
HETATM   17  C   UNK N   1      34.854  16.174   8.740  0.00  0.00     0.079 A 
HETATM   18  C   UNK N   1      35.125  16.774   9.969  0.00  0.00     0.027 A 
HETATM   19  C   UNK N   1      35.818  16.098  10.955  0.00  0.00     0.031 A 
BRANCH  17  20
HETATM   20  S   UNK N   1      33.940  17.194   7.561  0.00  0.00     0.256 S 
HETATM   21  O   UNK N   1      32.483  17.286   7.083  0.00  0.00    -0.201 OA
HETATM   22  O   UNK N   1      34.296  18.657   7.852  0.00  0.00    -0.201 OA
BRANCH  20  23
HETATM   23  N   UNK N   1      33.029  17.262   9.072  0.00  0.00    -0.324 N 
HETATM   24  H   UNK N   1      32.308  17.435   9.773  0.00  0.00     0.169 HD
HETATM   25  H   UNK N   1      33.708  16.797   9.674  0.00  0.00     0.169 HD
ENDBRANCH  20  23
ENDBRANCH  17  20
ENDBRANCH   1  14
TORSDOF 5
ENDMDL
MODEL 4
REMARK VINA RESULT:      -5.7     16.713     17.966
REMARK  5 active torsions:
REMARK  status: ('A' for Active; 'I' for Inactive)
REMARK    1  A    between atoms: N_1  and  C_2 
REMARK    2  A    between atoms: C_9  and  N_10 
REMARK    3  A    between atoms: N_10  and  C_11 
REMARK    4  A    between atoms: C_16  and  S_17 
REMARK    5  A    between atoms: S_17  and  N_20 
ROOT
HETATM    1  N   UNK N   1      25.620  27.633  -3.442  0.00  0.00    -0.342 N 
HETATM    2  H   UNK N   1      24.870  27.569  -2.807  0.00  0.00     0.167 HD
ENDROOT
BRANCH   1   3
HETATM    3  C   UNK N   1      26.524  28.736  -3.286  0.00  0.00     0.110 A 
HETATM    4  N   UNK N   1      26.106  29.990  -3.581  0.00  0.00    -0.338 N 
HETATM    5  C   UNK N   1      26.936  31.062  -3.443  0.00  0.00     0.183 A 
ATOM      6  HN  UNK N   1      25.153  30.134  -3.913  1.00  0.00     0.168 HD
HETATM    7  N   UNK N   1      28.216  30.883  -3.012  0.00  0.00    -0.339 N 
HETATM    8  C   UNK N   1      28.679  29.647  -2.720  0.00  0.00     0.103 A 
ATOM      9  HN  UNK N   1      28.831  31.689  -2.910  1.00  0.00     0.168 HD
HETATM   10  C   UNK N   1      27.845  28.540  -2.850  0.00  0.00     0.096 A 
BRANCH   8  11
HETATM   11  N   UNK N   1      30.010  29.471  -2.283  0.00  0.00    -0.385 N 
HETATM   12  H   UNK N   1      30.243  29.131  -1.390  0.00  0.00     0.157 HD
HETATM   13  H   UNK N   1      30.740  29.701  -2.903  0.00  0.00     0.157 HD
ENDBRANCH   8  11
ENDBRANCH   1   3
BRANCH   1  14
HETATM   14  C   UNK N   1      25.720  26.622  -4.441  0.00  0.00     0.033 A 
HETATM   15  C   UNK N   1      26.193  25.338  -4.112  0.00  0.00     0.031 A 
HETATM   16  C   UNK N   1      26.307  24.344  -5.105  0.00  0.00     0.027 A 
HETATM   17  C   UNK N   1      25.933  24.640  -6.433  0.00  0.00     0.079 A 
HETATM   18  C   UNK N   1      25.497  25.927  -6.745  0.00  0.00     0.027 A 
HETATM   19  C   UNK N   1      25.394  26.901  -5.771  0.00  0.00     0.031 A 
BRANCH  17  20
HETATM   20  S   UNK N   1      26.012  23.486  -7.821  0.00  0.00     0.256 S 
HETATM   21  O   UNK N   1      26.480  22.037  -8.023  0.00  0.00    -0.201 OA
HETATM   22  O   UNK N   1      24.637  23.498  -8.502  0.00  0.00    -0.201 OA
BRANCH  20  23
HETATM   23  N   UNK N   1      25.200  22.620  -6.514  0.00  0.00    -0.324 N 
HETATM   24  H   UNK N   1      24.642  21.951  -5.982  0.00  0.00     0.169 HD
HETATM   25  H   UNK N   1      25.507  23.205  -5.737  0.00  0.00     0.169 HD
ENDBRANCH  20  23
ENDBRANCH  17  20
ENDBRANCH   1  14
TORSDOF 5
ENDMDL
MODEL 5
REMARK VINA RESULT:      -5.7      6.365      8.702
REMARK  5 active torsions:
REMARK  status: ('A' for Active; 'I' for Inactive)
REMARK    1  A    between atoms: N_1  and  C_2 
REMARK    2  A    between atoms: C_9  and  N_10 
REMARK    3  A    between atoms: N_10  and  C_11 
REMARK    4  A    between atoms: C_16  and  S_17 
REMARK    5  A    between atoms: S_17  and  N_20 
ROOT
HETATM    1  N   UNK N   1      37.022  13.610  12.449  0.00  0.00    -0.342 N 
HETATM    2  H   UNK N   1      37.920  13.502  12.060  0.00  0.00     0.167 HD
ENDROOT
BRANCH   1   3
HETATM    3  C   UNK N   1      36.100  14.462  11.755  0.00  0.00     0.110 A 
HETATM    4  N   UNK N   1      36.376  15.781  11.625  0.00  0.00    -0.338 N 
HETATM    5  C   UNK N   1      35.524  16.619  10.970  0.00  0.00     0.183 A 
ATOM      6  HN  UNK N   1      37.236  16.154  12.025  1.00  0.00     0.168 HD
HETATM    7  N   UNK N   1      34.365  16.138  10.441  0.00  0.00    -0.339 N 
HETATM    8  C   UNK N   1      34.043  14.831  10.560  0.00  0.00     0.103 A 
ATOM      9  HN  UNK N   1      33.733  16.770   9.951  1.00  0.00     0.168 HD
HETATM   10  C   UNK N   1      34.902  13.957  11.221  0.00  0.00     0.096 A 
BRANCH   8  11
HETATM   11  N   UNK N   1      32.834  14.344  10.016  0.00  0.00    -0.385 N 
HETATM   12  H   UNK N   1      32.356  14.791   9.282  0.00  0.00     0.157 HD
HETATM   13  H   UNK N   1      32.452  13.517  10.390  0.00  0.00     0.157 HD
ENDBRANCH   8  11
ENDBRANCH   1   3
BRANCH   1  14
HETATM   14  C   UNK N   1      36.743  12.908  13.656  0.00  0.00     0.033 A 
HETATM   15  C   UNK N   1      35.900  13.471  14.632  0.00  0.00     0.031 A 
HETATM   16  C   UNK N   1      35.638  12.781  15.834  0.00  0.00     0.027 A 
HETATM   17  C   UNK N   1      36.218  11.513  16.049  0.00  0.00     0.079 A 
HETATM   18  C   UNK N   1      37.076  10.985  15.085  0.00  0.00     0.027 A 
HETATM   19  C   UNK N   1      37.337  11.669  13.912  0.00  0.00     0.031 A 
BRANCH  17  20
HETATM   20  S   UNK N   1      35.985  10.496  17.524  0.00  0.00     0.256 S 
HETATM   21  O   UNK N   1      36.211  10.677  19.033  0.00  0.00    -0.201 OA
HETATM   22  O   UNK N   1      34.566   9.918  17.459  0.00  0.00    -0.201 OA
BRANCH  20  23
HETATM   23  N   UNK N   1      35.189  12.036  17.864  0.00  0.00    -0.324 N 
HETATM   24  H   UNK N   1      34.639  12.778  18.297  0.00  0.00     0.169 HD
HETATM   25  H   UNK N   1      35.505  12.549  17.041  0.00  0.00     0.169 HD
ENDBRANCH  20  23
ENDBRANCH  17  20
ENDBRANCH   1  14
TORSDOF 5
ENDMDL
MODEL 6
REMARK VINA RESULT:      -5.7      4.430      7.167
REMARK  5 active torsions:
REMARK  status: ('A' for Active; 'I' for Inactive)
REMARK    1  A    between atoms: N_1  and  C_2 
REMARK    2  A    between atoms: C_9  and  N_10 
REMARK    3  A    between atoms: N_10  and  C_11 
REMARK    4  A    between atoms: C_16  and  S_17 
REMARK    5  A    between atoms: S_17  and  N_20 
ROOT
HETATM    1  N   UNK N   1      33.671  17.366   9.134  0.00  0.00    -0.342 N 
HETATM    2  H   UNK N   1      33.328  18.136   9.642  0.00  0.00     0.167 HD
ENDROOT
BRANCH   1   3
HETATM    3  C   UNK N   1      34.664  16.547   9.767  0.00  0.00     0.110 A 
HETATM    4  N   UNK N   1      35.019  16.796  11.049  0.00  0.00    -0.338 N 
HETATM    5  C   UNK N   1      35.956  16.037  11.684  0.00  0.00     0.183 A 
ATOM      6  HN  UNK N   1      34.577  17.567  11.549  1.00  0.00     0.168 HD
HETATM    7  N   UNK N   1      36.564  15.012  11.025  0.00  0.00    -0.339 N 
HETATM    8  C   UNK N   1      36.250  14.736   9.739  0.00  0.00     0.103 A 
ATOM      9  HN  UNK N   1      37.263  14.447  11.506  1.00  0.00     0.168 HD
HETATM   10  C   UNK N   1      35.291  15.496   9.076  0.00  0.00     0.096 A 
BRANCH   8  11
HETATM   11  N   UNK N   1      36.893  13.676   9.062  0.00  0.00    -0.385 N 
HETATM   12  H   UNK N   1      36.926  13.606   8.081  0.00  0.00     0.157 HD
HETATM   13  H   UNK N   1      37.327  12.974   9.598  0.00  0.00     0.157 HD
ENDBRANCH   8  11
ENDBRANCH   1   3
BRANCH   1  14
HETATM   14  C   UNK N   1      33.142  17.155   7.828  0.00  0.00     0.033 A 
HETATM   15  C   UNK N   1      33.811  17.659   6.697  0.00  0.00     0.031 A 
HETATM   16  C   UNK N   1      33.277  17.463   5.406  0.00  0.00     0.027 A 
HETATM   17  C   UNK N   1      32.071  16.748   5.253  0.00  0.00     0.079 A 
HETATM   18  C   UNK N   1      31.406  16.284   6.388  0.00  0.00     0.027 A 
HETATM   19  C   UNK N   1      31.929  16.485   7.652  0.00  0.00     0.031 A 
BRANCH  17  20
HETATM   20  S   UNK N   1      31.254  16.405   3.678  0.00  0.00     0.256 S 
HETATM   21  O   UNK N   1      29.822  16.518   3.133  0.00  0.00    -0.201 OA
HETATM   22  O   UNK N   1      32.091  17.067   2.577  0.00  0.00    -0.201 OA
BRANCH  20  23
HETATM   23  N   UNK N   1      30.790  18.051   4.119  0.00  0.00    -0.324 N 
HETATM   24  H   UNK N   1      30.690  18.942   4.605  0.00  0.00     0.169 HD
HETATM   25  H   UNK N   1      30.207  18.261   3.309  0.00  0.00     0.169 HD
ENDBRANCH  20  23
ENDBRANCH  17  20
ENDBRANCH   1  14
TORSDOF 5
ENDMDL
MODEL 7
REMARK VINA RESULT:      -5.6      2.376      3.015
REMARK  5 active torsions:
REMARK  status: ('A' for Active; 'I' for Inactive)
REMARK    1  A    between atoms: N_1  and  C_2 
REMARK    2  A    between atoms: C_9  and  N_10 
REMARK    3  A    between atoms: N_10  and  C_11 
REMARK    4  A    between atoms: C_16  and  S_17 
REMARK    5  A    between atoms: S_17  and  N_20 
ROOT
HETATM    1  N   UNK N   1      29.512  17.517   4.279  0.00  0.00    -0.342 N 
HETATM    2  H   UNK N   1      29.631  17.199   3.355  0.00  0.00     0.167 HD
ENDROOT
BRANCH   1   3
HETATM    3  C   UNK N   1      28.221  18.028   4.640  0.00  0.00     0.110 A 
HETATM    4  N   UNK N   1      27.148  17.203   4.626  0.00  0.00    -0.338 N 
HETATM    5  C   UNK N   1      25.906  17.652   4.966  0.00  0.00     0.183 A 
ATOM      6  HN  UNK N   1      27.270  16.228   4.355  1.00  0.00     0.168 HD
HETATM    7  N   UNK N   1      25.725  18.956   5.318  0.00  0.00    -0.339 N 
HETATM    8  C   UNK N   1      26.767  19.817   5.332  0.00  0.00     0.103 A 
ATOM      9  HN  UNK N   1      24.795  19.285   5.572  1.00  0.00     0.168 HD
HETATM   10  C   UNK N   1      28.043  19.376   4.994  0.00  0.00     0.096 A 
BRANCH   8  11
HETATM   11  N   UNK N   1      26.566  21.169   5.690  0.00  0.00    -0.385 N 
HETATM   12  H   UNK N   1      27.245  21.708   6.156  0.00  0.00     0.157 HD
HETATM   13  H   UNK N   1      25.707  21.590   5.462  0.00  0.00     0.157 HD
ENDBRANCH   8  11
ENDBRANCH   1   3
BRANCH   1  14
HETATM   14  C   UNK N   1      30.636  17.433   5.150  0.00  0.00     0.033 A 
HETATM   15  C   UNK N   1      30.455  17.224   6.530  0.00  0.00     0.031 A 
HETATM   16  C   UNK N   1      31.568  17.157   7.393  0.00  0.00     0.027 A 
HETATM   17  C   UNK N   1      32.869  17.289   6.863  0.00  0.00     0.079 A 
HETATM   18  C   UNK N   1      33.027  17.526   5.498  0.00  0.00     0.027 A 
HETATM   19  C   UNK N   1      31.933  17.600   4.657  0.00  0.00     0.031 A 
BRANCH  17  20
HETATM   20  S   UNK N   1      34.399  17.223   7.823  0.00  0.00     0.256 S 
HETATM   21  O   UNK N   1      35.013  18.037   8.972  0.00  0.00    -0.201 OA
HETATM   22  O   UNK N   1      34.577  15.775   8.298  0.00  0.00    -0.201 OA
BRANCH  20  23
HETATM   23  N   UNK N   1      33.086  17.300   9.003  0.00  0.00    -0.324 N 
HETATM   24  H   UNK N   1      32.500  17.552   9.798  0.00  0.00     0.169 HD
HETATM   25  H   UNK N   1      32.491  16.572   8.607  0.00  0.00     0.169 HD
ENDBRANCH  20  23
ENDBRANCH  17  20
ENDBRANCH   1  14
TORSDOF 5
ENDMDL
MODEL 8
REMARK VINA RESULT:      -5.6     10.506     12.965
REMARK  5 active torsions:
REMARK  status: ('A' for Active; 'I' for Inactive)
REMARK    1  A    between atoms: N_1  and  C_2 
REMARK    2  A    between atoms: C_9  and  N_10 
REMARK    3  A    between atoms: N_10  and  C_11 
REMARK    4  A    between atoms: C_16  and  S_17 
REMARK    5  A    between atoms: S_17  and  N_20 
ROOT
HETATM    1  N   UNK N   1      35.581  10.113  19.176  0.00  0.00    -0.342 N 
HETATM    2  H   UNK N   1      36.409   9.656  19.451  0.00  0.00     0.167 HD
ENDROOT
BRANCH   1   3
HETATM    3  C   UNK N   1      34.410   9.894  19.974  0.00  0.00     0.110 A 
HETATM    4  N   UNK N   1      33.473   9.009  19.558  0.00  0.00    -0.338 N 
HETATM    5  C   UNK N   1      32.349   8.773  20.292  0.00  0.00     0.183 A 
ATOM      6  HN  UNK N   1      33.612   8.509  18.680  1.00  0.00     0.168 HD
HETATM    7  N   UNK N   1      32.143   9.442  21.460  0.00  0.00    -0.339 N 
HETATM    8  C   UNK N   1      33.045  10.345  21.905  0.00  0.00     0.103 A 
ATOM      9  HN  UNK N   1      31.301   9.260  22.005  1.00  0.00     0.168 HD
HETATM   10  C   UNK N   1      34.202  10.596  21.174  0.00  0.00     0.096 A 
BRANCH   8  11
HETATM   11  N   UNK N   1      32.818  11.040  23.114  0.00  0.00    -0.385 N 
HETATM   12  H   UNK N   1      32.016  10.908  23.668  0.00  0.00     0.157 HD
HETATM   13  H   UNK N   1      33.496  11.687  23.416  0.00  0.00     0.157 HD
ENDBRANCH   8  11
ENDBRANCH   1   3
BRANCH   1  14
HETATM   14  C   UNK N   1      35.644  10.940  18.018  0.00  0.00     0.033 A 
HETATM   15  C   UNK N   1      35.169  12.264  18.060  0.00  0.00     0.031 A 
HETATM   16  C   UNK N   1      35.218  13.077  16.908  0.00  0.00     0.027 A 
HETATM   17  C   UNK N   1      35.758  12.557  15.713  0.00  0.00     0.079 A 
HETATM   18  C   UNK N   1      36.195  11.234  15.682  0.00  0.00     0.027 A 
HETATM   19  C   UNK N   1      36.138  10.438  16.811  0.00  0.00     0.031 A 
BRANCH  17  20
HETATM   20  S   UNK N   1      35.899  13.459  14.153  0.00  0.00     0.256 S 
HETATM   21  O   UNK N   1      36.345  14.868  13.733  0.00  0.00    -0.201 OA
HETATM   22  O   UNK N   1      36.654  12.555  13.171  0.00  0.00    -0.201 OA
BRANCH  20  23
HETATM   23  N   UNK N   1      37.458  13.641  14.964  0.00  0.00    -0.324 N 
HETATM   24  H   UNK N   1      38.446  13.581  15.207  0.00  0.00     0.169 HD
HETATM   25  H   UNK N   1      37.150  14.217  15.747  0.00  0.00     0.169 HD
ENDBRANCH  20  23
ENDBRANCH  17  20
ENDBRANCH   1  14
TORSDOF 5
ENDMDL
MODEL 9
REMARK VINA RESULT:      -5.6     10.723     13.270
REMARK  5 active torsions:
REMARK  status: ('A' for Active; 'I' for Inactive)
REMARK    1  A    between atoms: N_1  and  C_2 
REMARK    2  A    between atoms: C_9  and  N_10 
REMARK    3  A    between atoms: N_10  and  C_11 
REMARK    4  A    between atoms: C_16  and  S_17 
REMARK    5  A    between atoms: S_17  and  N_20 
ROOT
HETATM    1  N   UNK N   1      35.379  11.341  20.124  0.00  0.00    -0.342 N 
HETATM    2  H   UNK N   1      36.113  11.607  20.724  0.00  0.00     0.167 HD
ENDROOT
BRANCH   1   3
HETATM    3  C   UNK N   1      34.292  10.601  20.696  0.00  0.00     0.110 A 
HETATM    4  N   UNK N   1      33.679  11.068  21.810  0.00  0.00    -0.338 N 
HETATM    5  C   UNK N   1      32.641  10.393  22.380  0.00  0.00     0.183 A 
ATOM      6  HN  UNK N   1      34.000  11.939  22.230  1.00  0.00     0.168 HD
HETATM    7  N   UNK N   1      32.209   9.220  21.838  0.00  0.00    -0.339 N 
HETATM    8  C   UNK N   1      32.802   8.711  20.735  0.00  0.00     0.103 A 
ATOM      9  HN  UNK N   1      31.432   8.721  22.269  1.00  0.00     0.168 HD
HETATM   10  C   UNK N   1      33.859   9.388  20.135  0.00  0.00     0.096 A 
BRANCH   8  11
HETATM   11  N   UNK N   1      32.352   7.490  20.186  0.00  0.00    -0.385 N 
HETATM   12  H   UNK N   1      32.880   6.660  20.216  0.00  0.00     0.157 HD
HETATM   13  H   UNK N   1      31.469   7.469  19.753  0.00  0.00     0.157 HD
ENDBRANCH   8  11
ENDBRANCH   1   3
BRANCH   1  14
HETATM   14  C   UNK N   1      35.482  11.723  18.755  0.00  0.00     0.033 A 
HETATM   15  C   UNK N   1      35.974  10.818  17.797  0.00  0.00     0.031 A 
HETATM   16  C   UNK N   1      36.091  11.203  16.445  0.00  0.00     0.027 A 
HETATM   17  C   UNK N   1      35.701  12.502  16.055  0.00  0.00     0.079 A 
HETATM   18  C   UNK N   1      35.245  13.395  17.024  0.00  0.00     0.027 A 
HETATM   19  C   UNK N   1      35.140  13.016  18.349  0.00  0.00     0.031 A 
BRANCH  17  20
HETATM   20  S   UNK N   1      35.780  13.154  14.372  0.00  0.00     0.256 S 
HETATM   21  O   UNK N   1      36.075  14.520  13.734  0.00  0.00    -0.201 OA
HETATM   22  O   UNK N   1      36.659  12.199  13.554  0.00  0.00    -0.201 OA
BRANCH  20  23
HETATM   23  N   UNK N   1      37.287  13.642  15.155  0.00  0.00    -0.324 N 
HETATM   24  H   UNK N   1      38.101  13.685  15.767  0.00  0.00     0.169 HD
HETATM   25  H   UNK N   1      37.477  14.476  14.599  0.00  0.00     0.169 HD
ENDBRANCH  20  23
ENDBRANCH  17  20
ENDBRANCH   1  14
TORSDOF 5
ENDMDL
