MODEL 1
REMARK VINA RESULT:      -7.6      0.000      0.000
REMARK  5 active torsions:
REMARK  status: ('A' for Active; 'I' for Inactive)
REMARK    1  A    between atoms: C_5  and  C_17 
REMARK    2  A    between atoms: C_6  and  O_15 
REMARK    3  A    between atoms: C_9  and  C_11 
REMARK    4  A    between atoms: C_11  and  N_14 
REMARK    5  A    between atoms: N_19  and  S_23 
ROOT
HETATM    1  C   UNK N   1      33.334  16.359   4.590  0.00  0.00     0.038 A 
HETATM    2  C   UNK N   1      32.020  16.789   4.517  0.00  0.00     0.015 A 
HETATM    3  C   UNK N   1      31.330  17.118   5.670  0.00  0.00    -0.025 A 
HETATM    4  C   UNK N   1      31.962  17.021   6.934  0.00  0.00    -0.011 A 
HETATM    5  C   UNK N   1      33.331  16.590   7.040  0.00  0.00     0.021 A 
HETATM    6  C   UNK N   1      34.017  16.257   5.807  0.00  0.00     0.080 A 
HETATM    7  C   UNK N   1      29.997  17.531   5.569  0.00  0.00     0.013 A 
HETATM    8  C   UNK N   1      29.266  17.846   6.716  0.00  0.00     0.016 A 
HETATM    9  C   UNK N   1      29.865  17.750   7.976  0.00  0.00     0.008 A 
HETATM   10  C   UNK N   1      31.198  17.345   8.068  0.00  0.00     0.028 A 
ENDROOT
BRANCH   5  11
HETATM   11  C   UNK N   1      33.973  16.482   8.417  0.00  0.00     0.013 A 
HETATM   12  C   UNK N   1      34.244  15.351   9.165  0.00  0.00     0.142 A 
HETATM   13  N   UNK N   1      34.873  15.741  10.287  0.00  0.00    -0.192 N 
HETATM   14  N   UNK N   1      35.014  17.047  10.302  0.00  0.00    -0.295 N 
HETATM   15  C   UNK N   1      34.467  17.540   9.178  0.00  0.00     0.122 A 
ATOM     16  HN  UNK N   1      35.461  17.592  11.039  1.00  0.00     0.187 HD
BRANCH  13  17
HETATM   17  S   UNK N   1      35.604  14.663  11.477  0.00  0.00     0.245 S 
HETATM   18  O   UNK N   1      36.046  15.612  12.602  0.00  0.00    -0.204 OA
HETATM   19  O   UNK N   1      34.426  13.926  12.135  0.00  0.00    -0.204 OA
HETATM   20  C   UNK N   1      36.943  13.562  10.947  0.00  0.00     0.188 C 
ENDBRANCH  13  17
ENDBRANCH   5  11
BRANCH   6  21
HETATM   21  O   UNK N   1      35.299  15.817   5.710  0.00  0.00    -0.355 OA
HETATM   22  C   UNK N   1      35.694  14.516   5.527  0.00  0.00     0.210 C 
ENDBRANCH   6  21
BRANCH   9  23
HETATM   23  C   UNK N   1      29.108  18.062   9.208  0.00  0.00     0.102 C 
HETATM   24  N   UNK N   1      29.715  18.193  10.330  0.00  0.00    -0.385 N 
HETATM   25  H   UNK N   1      30.695  18.107  10.373  0.00  0.00     0.157 HD
ATOM     26  HN  UNK N   1      29.184  18.389  11.178  1.00  0.00     0.157 HD
BRANCH  23  27
HETATM   27  N   UNK N   1      27.705  18.231   9.155  0.00  0.00    -0.385 N 
HETATM   28  H   UNK N   1      27.118  17.657   9.698  0.00  0.00     0.157 HD
HETATM   29  H   UNK N   1      27.315  18.923   8.574  0.00  0.00     0.157 HD
ENDBRANCH  23  27
ENDBRANCH   9  23
TORSDOF 5
ENDMDL
MODEL 2
REMARK VINA RESULT:      -6.9      8.559     11.404
REMARK  5 active torsions:
REMARK  status: ('A' for Active; 'I' for Inactive)
REMARK    1  A    between atoms: C_5  and  C_17 
REMARK    2  A    between atoms: C_6  and  O_15 
REMARK    3  A    between atoms: C_9  and  C_11 
REMARK    4  A    between atoms: C_11  and  N_14 
REMARK    5  A    between atoms: N_19  and  S_23 
ROOT
HETATM    1  C   UNK N   1      22.808  20.523   2.645  0.00  0.00     0.038 A 
HETATM    2  C   UNK N   1      24.173  20.753   2.635  0.00  0.00     0.015 A 
HETATM    3  C   UNK N   1      25.013  19.988   3.423  0.00  0.00    -0.025 A 
HETATM    4  C   UNK N   1      24.486  18.960   4.243  0.00  0.00    -0.011 A 
HETATM    5  C   UNK N   1      23.073  18.689   4.264  0.00  0.00     0.021 A 
HETATM    6  C   UNK N   1      22.229  19.514   3.422  0.00  0.00     0.080 A 
HETATM    7  C   UNK N   1      26.388  20.255   3.409  0.00  0.00     0.013 A 
HETATM    8  C   UNK N   1      27.259  19.516   4.211  0.00  0.00     0.016 A 
HETATM    9  C   UNK N   1      26.761  18.502   5.036  0.00  0.00     0.008 A 
HETATM   10  C   UNK N   1      25.391  18.237   5.038  0.00  0.00     0.028 A 
ENDROOT
BRANCH   5  11
HETATM   11  C   UNK N   1      22.540  17.588   5.170  0.00  0.00     0.013 A 
HETATM   12  C   UNK N   1      21.845  17.700   6.361  0.00  0.00     0.142 A 
HETATM   13  N   UNK N   1      21.527  16.459   6.770  0.00  0.00    -0.192 N 
HETATM   14  N   UNK N   1      21.980  15.567   5.918  0.00  0.00    -0.295 N 
HETATM   15  C   UNK N   1      22.615  16.217   4.929  0.00  0.00     0.122 A 
ATOM     16  HN  UNK N   1      21.868  14.557   5.996  1.00  0.00     0.187 HD
BRANCH  13  17
HETATM   17  S   UNK N   1      20.473  16.069   8.130  0.00  0.00     0.245 S 
HETATM   18  O   UNK N   1      20.317  17.409   8.863  0.00  0.00    -0.204 OA
HETATM   19  O   UNK N   1      19.076  15.881   7.519  0.00  0.00    -0.204 OA
HETATM   20  C   UNK N   1      20.960  14.730   9.250  0.00  0.00     0.188 C 
ENDBRANCH  13  17
ENDBRANCH   5  11
BRANCH   6  21
HETATM   21  O   UNK N   1      20.877  19.418   3.323  0.00  0.00    -0.355 OA
HETATM   22  C   UNK N   1      20.186  18.638   2.431  0.00  0.00     0.210 C 
ENDBRANCH   6  21
BRANCH   9  23
HETATM   23  C   UNK N   1      27.661  17.716   5.909  0.00  0.00     0.102 C 
HETATM   24  N   UNK N   1      28.925  17.696   5.691  0.00  0.00    -0.385 N 
HETATM   25  H   UNK N   1      29.305  18.222   4.950  0.00  0.00     0.157 HD
ATOM     26  HN  UNK N   1      29.536  17.136   6.285  1.00  0.00     0.157 HD
BRANCH  23  27
HETATM   27  N   UNK N   1      27.134  16.990   7.002  0.00  0.00    -0.385 N 
HETATM   28  H   UNK N   1      27.025  17.427   7.878  0.00  0.00     0.157 HD
HETATM   29  H   UNK N   1      26.875  16.047   6.887  0.00  0.00     0.157 HD
ENDBRANCH  23  27
ENDBRANCH   9  23
TORSDOF 5
ENDMDL
MODEL 3
REMARK VINA RESULT:      -6.7      8.590     11.405
REMARK  5 active torsions:
REMARK  status: ('A' for Active; 'I' for Inactive)
REMARK    1  A    between atoms: C_5  and  C_17 
REMARK    2  A    between atoms: C_6  and  O_15 
REMARK    3  A    between atoms: C_9  and  C_11 
REMARK    4  A    between atoms: C_11  and  N_14 
REMARK    5  A    between atoms: N_19  and  S_23 
ROOT
HETATM    1  C   UNK N   1      28.064  19.447   5.080  0.00  0.00     0.038 A 
HETATM    2  C   UNK N   1      28.668  18.372   4.450  0.00  0.00     0.015 A 
HETATM    3  C   UNK N   1      27.899  17.427   3.797  0.00  0.00    -0.025 A 
HETATM    4  C   UNK N   1      26.488  17.553   3.761  0.00  0.00    -0.011 A 
HETATM    5  C   UNK N   1      25.834  18.667   4.395  0.00  0.00     0.021 A 
HETATM    6  C   UNK N   1      26.677  19.635   5.066  0.00  0.00     0.080 A 
HETATM    7  C   UNK N   1      28.533  16.339   3.186  0.00  0.00     0.013 A 
HETATM    8  C   UNK N   1      27.783  15.356   2.539  0.00  0.00     0.016 A 
HETATM    9  C   UNK N   1      26.388  15.453   2.499  0.00  0.00     0.008 A 
HETATM   10  C   UNK N   1      25.764  16.545   3.103  0.00  0.00     0.028 A 
ENDROOT
BRANCH   5  11
HETATM   11  C   UNK N   1      24.314  18.760   4.350  0.00  0.00     0.013 A 
HETATM   12  C   UNK N   1      23.512  19.522   3.520  0.00  0.00     0.142 A 
HETATM   13  N   UNK N   1      22.231  19.230   3.805  0.00  0.00    -0.192 N 
HETATM   14  N   UNK N   1      22.168  18.337   4.766  0.00  0.00    -0.295 N 
HETATM   15  C   UNK N   1      23.423  18.030   5.135  0.00  0.00     0.122 A 
ATOM     16  HN  UNK N   1      21.315  17.945   5.163  1.00  0.00     0.187 HD
BRANCH  13  17
HETATM   17  S   UNK N   1      20.828  19.788   2.892  0.00  0.00     0.245 S 
HETATM   18  O   UNK N   1      20.224  20.880   3.788  0.00  0.00    -0.204 OA
HETATM   19  O   UNK N   1      21.401  20.617   1.733  0.00  0.00    -0.204 OA
HETATM   20  C   UNK N   1      19.591  18.570   2.370  0.00  0.00     0.188 C 
ENDBRANCH  13  17
ENDBRANCH   5  11
BRANCH   6  21
HETATM   21  O   UNK N   1      26.241  20.737   5.732  0.00  0.00    -0.355 OA
HETATM   22  C   UNK N   1      27.029  21.653   6.380  0.00  0.00     0.210 C 
ENDBRANCH   6  21
BRANCH   9  23
HETATM   23  C   UNK N   1      25.569  14.415   1.835  0.00  0.00     0.102 C 
HETATM   24  N   UNK N   1      24.517  14.738   1.176  0.00  0.00    -0.385 N 
HETATM   25  H   UNK N   1      24.260  15.685   1.093  0.00  0.00     0.157 HD
ATOM     26  HN  UNK N   1      23.948  14.015   0.738  1.00  0.00     0.157 HD
BRANCH  23  27
HETATM   27  N   UNK N   1      25.950  13.055   1.911  0.00  0.00    -0.385 N 
HETATM   28  H   UNK N   1      25.653  12.420   1.219  0.00  0.00     0.157 HD
HETATM   29  H   UNK N   1      26.512  12.742   2.656  0.00  0.00     0.157 HD
ENDBRANCH  23  27
ENDBRANCH   9  23
TORSDOF 5
ENDMDL
MODEL 4
REMARK VINA RESULT:      -6.7     14.078     16.411
REMARK  5 active torsions:
REMARK  status: ('A' for Active; 'I' for Inactive)
REMARK    1  A    between atoms: C_5  and  C_17 
REMARK    2  A    between atoms: C_6  and  O_15 
REMARK    3  A    between atoms: C_9  and  C_11 
REMARK    4  A    between atoms: C_11  and  N_14 
REMARK    5  A    between atoms: N_19  and  S_23 
ROOT
HETATM    1  C   UNK N   1      25.139  26.057  -5.925  0.00  0.00     0.038 A 
HETATM    2  C   UNK N   1      25.471  27.393  -5.784  0.00  0.00     0.015 A 
HETATM    3  C   UNK N   1      26.595  27.760  -5.068  0.00  0.00    -0.025 A 
HETATM    4  C   UNK N   1      27.420  26.772  -4.475  0.00  0.00    -0.011 A 
HETATM    5  C   UNK N   1      27.108  25.374  -4.617  0.00  0.00     0.021 A 
HETATM    6  C   UNK N   1      25.922  25.034  -5.377  0.00  0.00     0.080 A 
HETATM    7  C   UNK N   1      26.896  29.120  -4.924  0.00  0.00     0.013 A 
HETATM    8  C   UNK N   1      28.010  29.522  -4.186  0.00  0.00     0.016 A 
HETATM    9  C   UNK N   1      28.835  28.566  -3.584  0.00  0.00     0.008 A 
HETATM   10  C   UNK N   1      28.533  27.212  -3.739  0.00  0.00     0.028 A 
ENDROOT
BRANCH   5  11
HETATM   11  C   UNK N   1      28.008  24.341  -3.952  0.00  0.00     0.013 A 
HETATM   12  C   UNK N   1      29.157  23.744  -4.440  0.00  0.00     0.142 A 
HETATM   13  N   UNK N   1      29.646  22.945  -3.476  0.00  0.00    -0.192 N 
HETATM   14  N   UNK N   1      28.878  22.990  -2.411  0.00  0.00    -0.295 N 
HETATM   15  C   UNK N   1      27.858  23.827  -2.666  0.00  0.00     0.122 A 
ATOM     16  HN  UNK N   1      29.031  22.479  -1.542  1.00  0.00     0.187 HD
BRANCH  13  17
HETATM   17  S   UNK N   1      31.201  22.113  -3.528  0.00  0.00     0.245 S 
HETATM   18  O   UNK N   1      31.651  22.094  -2.060  0.00  0.00    -0.204 OA
HETATM   19  O   UNK N   1      30.862  20.634  -3.770  0.00  0.00    -0.204 OA
HETATM   20  C   UNK N   1      32.491  22.751  -4.630  0.00  0.00     0.188 C 
ENDBRANCH  13  17
ENDBRANCH   5  11
BRANCH   6  21
HETATM   21  O   UNK N   1      25.461  23.776  -5.601  0.00  0.00    -0.355 OA
HETATM   22  C   UNK N   1      25.829  22.953  -6.635  0.00  0.00     0.210 C 
ENDBRANCH   6  21
BRANCH   9  23
HETATM   23  C   UNK N   1      30.012  28.967  -2.783  0.00  0.00     0.102 C 
HETATM   24  N   UNK N   1      30.014  30.077  -2.140  0.00  0.00    -0.385 N 
HETATM   25  H   UNK N   1      29.221  30.660  -2.162  0.00  0.00     0.157 HD
ATOM     26  HN  UNK N   1      30.837  30.356  -1.606  1.00  0.00     0.157 HD
BRANCH  23  27
HETATM   27  N   UNK N   1      31.142  28.120  -2.709  0.00  0.00    -0.385 N 
HETATM   28  H   UNK N   1      31.413  27.590  -3.493  0.00  0.00     0.157 HD
HETATM   29  H   UNK N   1      31.658  28.061  -1.873  0.00  0.00     0.157 HD
ENDBRANCH  23  27
ENDBRANCH   9  23
TORSDOF 5
ENDMDL
MODEL 5
REMARK VINA RESULT:      -6.7     10.064     12.883
REMARK  5 active torsions:
REMARK  status: ('A' for Active; 'I' for Inactive)
REMARK    1  A    between atoms: C_5  and  C_17 
REMARK    2  A    between atoms: C_6  and  O_15 
REMARK    3  A    between atoms: C_9  and  C_11 
REMARK    4  A    between atoms: C_11  and  N_14 
REMARK    5  A    between atoms: N_19  and  S_23 
ROOT
HETATM    1  C   UNK N   1      23.335  13.581   6.572  0.00  0.00     0.038 A 
HETATM    2  C   UNK N   1      22.507  13.478   7.677  0.00  0.00     0.015 A 
HETATM    3  C   UNK N   1      21.618  14.493   7.977  0.00  0.00    -0.025 A 
HETATM    4  C   UNK N   1      21.542  15.645   7.154  0.00  0.00    -0.011 A 
HETATM    5  C   UNK N   1      22.380  15.773   5.992  0.00  0.00     0.021 A 
HETATM    6  C   UNK N   1      23.296  14.685   5.714  0.00  0.00     0.080 A 
HETATM    7  C   UNK N   1      20.806  14.373   9.111  0.00  0.00     0.013 A 
HETATM    8  C   UNK N   1      19.916  15.392   9.454  0.00  0.00     0.016 A 
HETATM    9  C   UNK N   1      19.829  16.542   8.663  0.00  0.00     0.008 A 
HETATM   10  C   UNK N   1      20.635  16.651   7.529  0.00  0.00     0.028 A 
ENDROOT
BRANCH   5  11
HETATM   11  C   UNK N   1      22.283  17.032   5.140  0.00  0.00     0.013 A 
HETATM   12  C   UNK N   1      21.246  17.458   4.330  0.00  0.00     0.142 A 
HETATM   13  N   UNK N   1      21.584  18.657   3.826  0.00  0.00    -0.192 N 
HETATM   14  N   UNK N   1      22.770  19.017   4.259  0.00  0.00    -0.295 N 
HETATM   15  C   UNK N   1      23.237  18.044   5.060  0.00  0.00     0.122 A 
ATOM     16  HN  UNK N   1      23.253  19.886   4.028  1.00  0.00     0.187 HD
BRANCH  13  17
HETATM   17  S   UNK N   1      20.520  19.710   2.892  0.00  0.00     0.245 S 
HETATM   18  O   UNK N   1      19.206  18.920   2.813  0.00  0.00    -0.204 OA
HETATM   19  O   UNK N   1      20.141  20.854   3.846  0.00  0.00    -0.204 OA
HETATM   20  C   UNK N   1      21.074  20.280   1.262  0.00  0.00     0.188 C 
ENDBRANCH  13  17
ENDBRANCH   5  11
BRANCH   6  21
HETATM   21  O   UNK N   1      24.173  14.637   4.677  0.00  0.00    -0.355 OA
HETATM   22  C   UNK N   1      25.509  14.947   4.733  0.00  0.00     0.210 C 
ENDBRANCH   6  21
BRANCH   9  23
HETATM   23  C   UNK N   1      18.905  17.643   9.014  0.00  0.00     0.102 C 
HETATM   24  N   UNK N   1      19.353  18.731   9.525  0.00  0.00    -0.385 N 
HETATM   25  H   UNK N   1      20.321  18.846   9.667  0.00  0.00     0.157 HD
ATOM     26  HN  UNK N   1      18.708  19.477   9.782  1.00  0.00     0.157 HD
BRANCH  23  27
HETATM   27  N   UNK N   1      17.518  17.508   8.776  0.00  0.00    -0.385 N 
HETATM   28  H   UNK N   1      16.869  17.865   9.425  0.00  0.00     0.157 HD
HETATM   29  H   UNK N   1      17.200  17.057   7.961  0.00  0.00     0.157 HD
ENDBRANCH  23  27
ENDBRANCH   9  23
TORSDOF 5
ENDMDL
MODEL 6
REMARK VINA RESULT:      -6.4      3.545      5.052
REMARK  5 active torsions:
REMARK  status: ('A' for Active; 'I' for Inactive)
REMARK    1  A    between atoms: C_5  and  C_17 
REMARK    2  A    between atoms: C_6  and  O_15 
REMARK    3  A    between atoms: C_9  and  C_11 
REMARK    4  A    between atoms: C_11  and  N_14 
REMARK    5  A    between atoms: N_19  and  S_23 
ROOT
HETATM    1  C   UNK N   1      28.423  14.834   2.348  0.00  0.00     0.038 A 
HETATM    2  C   UNK N   1      27.263  15.528   2.646  0.00  0.00     0.015 A 
HETATM    3  C   UNK N   1      27.305  16.623   3.490  0.00  0.00    -0.025 A 
HETATM    4  C   UNK N   1      28.535  17.047   4.052  0.00  0.00    -0.011 A 
HETATM    5  C   UNK N   1      29.759  16.353   3.748  0.00  0.00     0.021 A 
HETATM    6  C   UNK N   1      29.669  15.212   2.858  0.00  0.00     0.080 A 
HETATM    7  C   UNK N   1      26.115  17.295   3.791  0.00  0.00     0.013 A 
HETATM    8  C   UNK N   1      26.121  18.389   4.658  0.00  0.00     0.016 A 
HETATM    9  C   UNK N   1      27.321  18.820   5.233  0.00  0.00     0.008 A 
HETATM   10  C   UNK N   1      28.505  18.150   4.921  0.00  0.00     0.028 A 
ENDROOT
BRANCH   5  11
HETATM   11  C   UNK N   1      31.059  16.826   4.383  0.00  0.00     0.013 A 
HETATM   12  C   UNK N   1      31.572  16.539   5.636  0.00  0.00     0.142 A 
HETATM   13  N   UNK N   1      32.776  17.128   5.732  0.00  0.00    -0.192 N 
HETATM   14  N   UNK N   1      33.059  17.775   4.624  0.00  0.00    -0.295 N 
HETATM   15  C   UNK N   1      32.028  17.623   3.776  0.00  0.00     0.122 A 
ATOM     16  HN  UNK N   1      33.913  18.301   4.441  1.00  0.00     0.187 HD
BRANCH  13  17
HETATM   17  S   UNK N   1      33.921  16.904   7.055  0.00  0.00     0.245 S 
HETATM   18  O   UNK N   1      35.062  16.100   6.415  0.00  0.00    -0.204 OA
HETATM   19  O   UNK N   1      34.581  18.277   7.258  0.00  0.00    -0.204 OA
HETATM   20  C   UNK N   1      33.334  16.148   8.595  0.00  0.00     0.188 C 
ENDBRANCH  13  17
ENDBRANCH   5  11
BRANCH   6  21
HETATM   21  O   UNK N   1      30.710  14.427   2.474  0.00  0.00    -0.355 OA
HETATM   22  C   UNK N   1      31.188  13.333   3.149  0.00  0.00     0.210 C 
ENDBRANCH   6  21
BRANCH   9  23
HETATM   23  C   UNK N   1      27.352  19.966   6.168  0.00  0.00     0.102 C 
HETATM   24  N   UNK N   1      27.434  19.771   7.433  0.00  0.00    -0.385 N 
HETATM   25  H   UNK N   1      27.497  18.855   7.787  0.00  0.00     0.157 HD
ATOM     26  HN  UNK N   1      27.435  20.566   8.073  1.00  0.00     0.157 HD
BRANCH  23  27
HETATM   27  N   UNK N   1      27.305  21.289   5.671  0.00  0.00    -0.385 N 
HETATM   28  H   UNK N   1      27.746  21.512   4.820  0.00  0.00     0.157 HD
HETATM   29  H   UNK N   1      26.830  21.988   6.177  0.00  0.00     0.157 HD
ENDBRANCH  23  27
ENDBRANCH   9  23
TORSDOF 5
ENDMDL
MODEL 7
REMARK VINA RESULT:      -6.4     14.543     17.123
REMARK  5 active torsions:
REMARK  status: ('A' for Active; 'I' for Inactive)
REMARK    1  A    between atoms: C_5  and  C_17 
REMARK    2  A    between atoms: C_6  and  O_15 
REMARK    3  A    between atoms: C_9  and  C_11 
REMARK    4  A    between atoms: C_11  and  N_14 
REMARK    5  A    between atoms: N_19  and  S_23 
ROOT
HETATM    1  C   UNK N   1      30.912  21.656  -5.559  0.00  0.00     0.038 A 
HETATM    2  C   UNK N   1      30.279  21.064  -6.639  0.00  0.00     0.015 A 
HETATM    3  C   UNK N   1      29.012  21.473  -7.012  0.00  0.00    -0.025 A 
HETATM    4  C   UNK N   1      28.353  22.504  -6.298  0.00  0.00    -0.011 A 
HETATM    5  C   UNK N   1      28.992  23.147  -5.181  0.00  0.00     0.021 A 
HETATM    6  C   UNK N   1      30.320  22.689  -4.824  0.00  0.00     0.080 A 
HETATM    7  C   UNK N   1      28.387  20.843  -8.095  0.00  0.00     0.013 A 
HETATM    8  C   UNK N   1      27.098  21.216  -8.481  0.00  0.00     0.016 A 
HETATM    9  C   UNK N   1      26.423  22.225  -7.786  0.00  0.00     0.008 A 
HETATM   10  C   UNK N   1      27.057  22.854  -6.713  0.00  0.00     0.028 A 
ENDROOT
BRANCH   5  11
HETATM   11  C   UNK N   1      28.247  24.240  -4.426  0.00  0.00     0.013 A 
HETATM   12  C   UNK N   1      28.211  25.601  -4.674  0.00  0.00     0.142 A 
HETATM   13  N   UNK N   1      27.371  26.158  -3.785  0.00  0.00    -0.192 N 
HETATM   14  N   UNK N   1      26.876  25.241  -2.986  0.00  0.00    -0.295 N 
HETATM   15  C   UNK N   1      27.396  24.053  -3.339  0.00  0.00     0.122 A 
ATOM     16  HN  UNK N   1      26.213  25.403  -2.228  1.00  0.00     0.187 HD
BRANCH  13  17
HETATM   17  S   UNK N   1      26.828  27.837  -3.804  0.00  0.00     0.245 S 
HETATM   18  O   UNK N   1      26.368  28.053  -5.253  0.00  0.00    -0.204 OA
HETATM   19  O   UNK N   1      25.491  27.840  -3.047  0.00  0.00    -0.204 OA
HETATM   20  C   UNK N   1      27.977  29.128  -3.253  0.00  0.00     0.188 C 
ENDBRANCH  13  17
ENDBRANCH   5  11
BRANCH   6  21
HETATM   21  O   UNK N   1      31.069  23.163  -3.794  0.00  0.00    -0.355 OA
HETATM   22  C   UNK N   1      31.469  22.450  -2.693  0.00  0.00     0.210 C 
ENDBRANCH   6  21
BRANCH   9  23
HETATM   23  C   UNK N   1      25.051  22.628  -8.164  0.00  0.00     0.102 C 
HETATM   24  N   UNK N   1      24.843  23.733  -8.781  0.00  0.00    -0.385 N 
HETATM   25  H   UNK N   1      25.602  24.312  -9.023  0.00  0.00     0.157 HD
ATOM     26  HN  UNK N   1      23.892  24.012  -9.021  1.00  0.00     0.157 HD
BRANCH  23  27
HETATM   27  N   UNK N   1      23.956  21.786  -7.860  0.00  0.00    -0.385 N 
HETATM   28  H   UNK N   1      23.049  22.030  -8.157  0.00  0.00     0.157 HD
HETATM   29  H   UNK N   1      24.100  20.956  -7.352  0.00  0.00     0.157 HD
ENDBRANCH  23  27
ENDBRANCH   9  23
TORSDOF 5
ENDMDL
MODEL 8
REMARK VINA RESULT:      -6.3     14.489     16.751
REMARK  5 active torsions:
REMARK  status: ('A' for Active; 'I' for Inactive)
REMARK    1  A    between atoms: C_5  and  C_17 
REMARK    2  A    between atoms: C_6  and  O_15 
REMARK    3  A    between atoms: C_9  and  C_11 
REMARK    4  A    between atoms: C_11  and  N_14 
REMARK    5  A    between atoms: N_19  and  S_23 
ROOT
HETATM    1  C   UNK N   1      28.031  29.395  -3.165  0.00  0.00     0.038 A 
HETATM    2  C   UNK N   1      26.782  29.190  -3.727  0.00  0.00     0.015 A 
HETATM    3  C   UNK N   1      26.507  28.015  -4.401  0.00  0.00    -0.025 A 
HETATM    4  C   UNK N   1      27.498  27.009  -4.520  0.00  0.00    -0.011 A 
HETATM    5  C   UNK N   1      28.800  27.189  -3.934  0.00  0.00     0.021 A 
HETATM    6  C   UNK N   1      29.045  28.434  -3.235  0.00  0.00     0.080 A 
HETATM    7  C   UNK N   1      25.243  27.842  -4.977  0.00  0.00     0.013 A 
HETATM    8  C   UNK N   1      24.942  26.677  -5.685  0.00  0.00     0.016 A 
HETATM    9  C   UNK N   1      25.907  25.673  -5.823  0.00  0.00     0.008 A 
HETATM   10  C   UNK N   1      27.162  25.850  -5.240  0.00  0.00     0.028 A 
ENDROOT
BRANCH   5  11
HETATM   11  C   UNK N   1      29.846  26.093  -4.096  0.00  0.00     0.013 A 
HETATM   12  C   UNK N   1      29.924  24.864  -3.467  0.00  0.00     0.142 A 
HETATM   13  N   UNK N   1      30.983  24.209  -3.974  0.00  0.00    -0.192 N 
HETATM   14  N   UNK N   1      31.585  24.946  -4.879  0.00  0.00    -0.295 N 
HETATM   15  C   UNK N   1      30.925  26.112  -4.978  0.00  0.00     0.122 A 
ATOM     16  HN  UNK N   1      32.411  24.678  -5.415  1.00  0.00     0.187 HD
BRANCH  13  17
HETATM   17  S   UNK N   1      31.398  22.526  -3.645  0.00  0.00     0.245 S 
HETATM   18  O   UNK N   1      32.873  22.428  -4.063  0.00  0.00    -0.204 OA
HETATM   19  O   UNK N   1      31.499  22.425  -2.115  0.00  0.00    -0.204 OA
HETATM   20  C   UNK N   1      30.387  21.220  -4.393  0.00  0.00     0.188 C 
ENDBRANCH  13  17
ENDBRANCH   5  11
BRANCH   6  21
HETATM   21  O   UNK N   1      30.213  28.788  -2.637  0.00  0.00    -0.355 OA
HETATM   22  C   UNK N   1      30.346  29.611  -1.547  0.00  0.00     0.210 C 
ENDBRANCH   6  21
BRANCH   9  23
HETATM   23  C   UNK N   1      25.619  24.437  -6.583  0.00  0.00     0.102 C 
HETATM   24  N   UNK N   1      25.536  23.307  -5.982  0.00  0.00    -0.385 N 
HETATM   25  H   UNK N   1      25.645  23.261  -5.004  0.00  0.00     0.157 HD
ATOM     26  HN  UNK N   1      25.357  22.457  -6.515  1.00  0.00     0.157 HD
BRANCH  23  27
HETATM   27  N   UNK N   1      25.419  24.495  -7.982  0.00  0.00    -0.385 N 
HETATM   28  H   UNK N   1      25.167  23.683  -8.478  0.00  0.00     0.157 HD
HETATM   29  H   UNK N   1      25.533  25.348  -8.461  0.00  0.00     0.157 HD
ENDBRANCH  23  27
ENDBRANCH   9  23
TORSDOF 5
ENDMDL
MODEL 9
REMARK VINA RESULT:      -6.2      4.102      5.805
REMARK  5 active torsions:
REMARK  status: ('A' for Active; 'I' for Inactive)
REMARK    1  A    between atoms: C_5  and  C_17 
REMARK    2  A    between atoms: C_6  and  O_15 
REMARK    3  A    between atoms: C_9  and  C_11 
REMARK    4  A    between atoms: C_11  and  N_14 
REMARK    5  A    between atoms: N_19  and  S_23 
ROOT
HETATM    1  C   UNK N   1      34.171  17.403   7.790  0.00  0.00     0.038 A 
HETATM    2  C   UNK N   1      33.148  17.924   8.564  0.00  0.00     0.015 A 
HETATM    3  C   UNK N   1      31.835  17.819   8.144  0.00  0.00    -0.025 A 
HETATM    4  C   UNK N   1      31.524  17.174   6.922  0.00  0.00    -0.011 A 
HETATM    5  C   UNK N   1      32.565  16.611   6.103  0.00  0.00     0.021 A 
HETATM    6  C   UNK N   1      33.927  16.742   6.581  0.00  0.00     0.080 A 
HETATM    7  C   UNK N   1      30.822  18.371   8.936  0.00  0.00     0.013 A 
HETATM    8  C   UNK N   1      29.489  18.303   8.528  0.00  0.00     0.016 A 
HETATM    9  C   UNK N   1      29.158  17.679   7.321  0.00  0.00     0.008 A 
HETATM   10  C   UNK N   1      30.173  17.123   6.540  0.00  0.00     0.028 A 
ENDROOT
BRANCH   5  11
HETATM   11  C   UNK N   1      32.195  15.939   4.787  0.00  0.00     0.013 A 
HETATM   12  C   UNK N   1      31.800  14.634   4.555  0.00  0.00     0.142 A 
HETATM   13  N   UNK N   1      31.517  14.516   3.247  0.00  0.00    -0.192 N 
HETATM   14  N   UNK N   1      31.713  15.660   2.632  0.00  0.00    -0.295 N 
HETATM   15  C   UNK N   1      32.138  16.556   3.538  0.00  0.00     0.122 A 
ATOM     16  HN  UNK N   1      31.567  15.837   1.638  1.00  0.00     0.187 HD
BRANCH  13  17
HETATM   17  S   UNK N   1      30.785  13.105   2.482  0.00  0.00     0.245 S 
HETATM   18  O   UNK N   1      31.866  12.619   1.506  0.00  0.00    -0.204 OA
HETATM   19  O   UNK N   1      30.811  12.003   3.553  0.00  0.00    -0.204 OA
HETATM   20  C   UNK N   1      29.171  13.293   1.676  0.00  0.00     0.188 C 
ENDBRANCH  13  17
ENDBRANCH   5  11
BRANCH   6  21
HETATM   21  O   UNK N   1      35.037  16.291   5.939  0.00  0.00    -0.355 OA
HETATM   22  C   UNK N   1      35.559  15.025   6.022  0.00  0.00     0.210 C 
ENDBRANCH   6  21
BRANCH   9  23
HETATM   23  C   UNK N   1      27.755  17.608   6.857  0.00  0.00     0.102 C 
HETATM   24  N   UNK N   1      27.071  16.535   7.013  0.00  0.00    -0.385 N 
HETATM   25  H   UNK N   1      27.472  15.756   7.463  0.00  0.00     0.157 HD
ATOM     26  HN  UNK N   1      26.110  16.488   6.674  1.00  0.00     0.157 HD
BRANCH  23  27
HETATM   27  N   UNK N   1      27.151  18.733   6.248  0.00  0.00    -0.385 N 
HETATM   28  H   UNK N   1      27.710  19.471   5.913  0.00  0.00     0.157 HD
HETATM   29  H   UNK N   1      26.172  18.778   6.159  0.00  0.00     0.157 HD
ENDBRANCH  23  27
ENDBRANCH   9  23
TORSDOF 5
ENDMDL
