MODEL 1
REMARK VINA RESULT:      -4.6      0.000      0.000
REMARK  6 active torsions:
REMARK  status: ('A' for Active; 'I' for Inactive)
REMARK    1  A    between atoms: C_1  and  N_2 
REMARK    2  A    between atoms: C_1  and  C_3 
REMARK    3  A    between atoms: C_1  and  C_8 
REMARK    4  A    between atoms: C_3  and  O_4 
REMARK    5  A    between atoms: O_4  and  C_5 
REMARK    6  A    between atoms: C_8  and  O_10 
ROOT
HETATM    1  C   UNK N   1      20.375  19.820   2.207  0.00  0.00     0.198 C 
ENDROOT
BRANCH   1   2
HETATM    2  N   UNK N   1      20.044  18.527   1.630  0.00  0.00    -0.416 N 
HETATM    3  H   UNK N   1      20.768  17.945   1.205  0.00  0.00     0.150 HD
HETATM    4  H   UNK N   1      19.079  18.198   1.649  0.00  0.00     0.150 HD
ENDBRANCH   1   2
BRANCH   1   5
HETATM    5  C   UNK N   1      21.516  19.642   3.203  0.00  0.00     0.214 C 
BRANCH   5   6
HETATM    6  O   UNK N   1      22.460  20.632   3.032  0.00  0.00    -0.319 OA
BRANCH   6   7
HETATM    7  C   UNK N   1      23.793  20.395   3.013  0.00  0.00     0.254 C 
HETATM    8  O   UNK N   1      24.488  20.968   2.189  0.00  0.00    -0.266 OA
HETATM    9  C   UNK N   1      24.436  19.434   3.964  0.00  0.00     0.126 C 
ENDBRANCH   6   7
ENDBRANCH   5   6
ENDBRANCH   1   5
BRANCH   1  10
HETATM   10  C   UNK N   1      20.732  20.804   1.122  0.00  0.00     0.165 C 
HETATM   11  O   UNK N   1      20.998  20.403  -0.001  0.00  0.00    -0.648 OA
BRANCH  10  12
HETATM   12  O   UNK N   1      20.787  22.125   1.382  0.00  0.00    -0.775 OA
HETATM   13  H   UNK N   1      20.033  22.676   1.454  0.00  0.00     0.167 HD
ENDBRANCH  10  12
ENDBRANCH   1  10
TORSDOF 6
ENDMDL
MODEL 2
REMARK VINA RESULT:      -4.4     11.488     13.411
REMARK  6 active torsions:
REMARK  status: ('A' for Active; 'I' for Inactive)
REMARK    1  A    between atoms: C_1  and  N_2 
REMARK    2  A    between atoms: C_1  and  C_3 
REMARK    3  A    between atoms: C_1  and  C_8 
REMARK    4  A    between atoms: C_3  and  O_4 
REMARK    5  A    between atoms: O_4  and  C_5 
REMARK    6  A    between atoms: C_8  and  O_10 
ROOT
HETATM    1  C   UNK N   1      34.266  16.960   8.819  0.00  0.00     0.198 C 
ENDROOT
BRANCH   1   2
HETATM    2  N   UNK N   1      34.689  17.186  10.192  0.00  0.00    -0.416 N 
HETATM    3  H   UNK N   1      34.605  18.109  10.619  0.00  0.00     0.150 HD
HETATM    4  H   UNK N   1      35.075  16.413  10.735  0.00  0.00     0.150 HD
ENDBRANCH   1   2
BRANCH   1   5
HETATM    5  C   UNK N   1      32.772  16.654   8.805  0.00  0.00     0.214 C 
BRANCH   5   6
HETATM    6  O   UNK N   1      32.050  17.804   8.572  0.00  0.00    -0.319 OA
BRANCH   6   7
HETATM    7  C   UNK N   1      30.696  17.840   8.534  0.00  0.00     0.254 C 
HETATM    8  O   UNK N   1      30.109  17.242   7.648  0.00  0.00    -0.266 OA
HETATM    9  C   UNK N   1      29.902  18.612   9.541  0.00  0.00     0.126 C 
ENDBRANCH   6   7
ENDBRANCH   5   6
ENDBRANCH   1   5
BRANCH   1  10
HETATM   10  C   UNK N   1      34.598  18.156   7.964  0.00  0.00     0.165 C 
HETATM   11  O   UNK N   1      35.104  19.146   8.470  0.00  0.00    -0.648 OA
BRANCH  10  12
HETATM   12  O   UNK N   1      34.317  18.158   6.646  0.00  0.00    -0.775 OA
HETATM   13  H   UNK N   1      33.637  18.672   6.256  0.00  0.00     0.167 HD
ENDBRANCH  10  12
ENDBRANCH   1  10
TORSDOF 6
ENDMDL
MODEL 3
REMARK VINA RESULT:      -4.4     14.078     16.047
REMARK  6 active torsions:
REMARK  status: ('A' for Active; 'I' for Inactive)
REMARK    1  A    between atoms: C_1  and  N_2 
REMARK    2  A    between atoms: C_1  and  C_3 
REMARK    3  A    between atoms: C_1  and  C_8 
REMARK    4  A    between atoms: C_3  and  O_4 
REMARK    5  A    between atoms: O_4  and  C_5 
REMARK    6  A    between atoms: C_8  and  O_10 
ROOT
HETATM    1  C   UNK N   1      34.886  14.991  10.314  0.00  0.00     0.198 C 
ENDROOT
BRANCH   1   2
HETATM    2  N   UNK N   1      33.573  15.141  10.921  0.00  0.00    -0.416 N 
HETATM    3  H   UNK N   1      32.942  14.343  11.002  0.00  0.00     0.150 HD
HETATM    4  H   UNK N   1      33.279  16.053  11.269  0.00  0.00     0.150 HD
ENDBRANCH   1   2
BRANCH   1   5
HETATM    5  C   UNK N   1      34.937  15.815   9.032  0.00  0.00     0.214 C 
BRANCH   5   6
HETATM    6  O   UNK N   1      34.681  17.142   9.306  0.00  0.00    -0.319 OA
BRANCH   6   7
HETATM    7  C   UNK N   1      34.585  18.095   8.348  0.00  0.00     0.254 C 
HETATM    8  O   UNK N   1      35.226  19.127   8.468  0.00  0.00    -0.266 OA
HETATM    9  C   UNK N   1      33.696  17.925   7.156  0.00  0.00     0.126 C 
ENDBRANCH   6   7
ENDBRANCH   5   6
ENDBRANCH   1   5
BRANCH   1  10
HETATM   10  C   UNK N   1      35.964  15.402  11.284  0.00  0.00     0.165 C 
HETATM   11  O   UNK N   1      35.884  15.075  12.459  0.00  0.00    -0.648 OA
BRANCH  10  12
HETATM   12  O   UNK N   1      37.006  16.152  10.877  0.00  0.00    -0.775 OA
HETATM   13  H   UNK N   1      37.101  17.065  11.068  0.00  0.00     0.167 HD
ENDBRANCH  10  12
ENDBRANCH   1  10
TORSDOF 6
ENDMDL
MODEL 4
REMARK VINA RESULT:      -4.3     16.402     17.989
REMARK  6 active torsions:
REMARK  status: ('A' for Active; 'I' for Inactive)
REMARK    1  A    between atoms: C_1  and  N_2 
REMARK    2  A    between atoms: C_1  and  C_3 
REMARK    3  A    between atoms: C_1  and  C_8 
REMARK    4  A    between atoms: C_3  and  O_4 
REMARK    5  A    between atoms: O_4  and  C_5 
REMARK    6  A    between atoms: C_8  and  O_10 
ROOT
HETATM    1  C   UNK N   1      34.866  15.280  11.572  0.00  0.00     0.198 C 
ENDROOT
BRANCH   1   2
HETATM    2  N   UNK N   1      33.636  15.172  10.803  0.00  0.00    -0.416 N 
HETATM    3  H   UNK N   1      33.415  14.318  10.291  0.00  0.00     0.150 HD
HETATM    4  H   UNK N   1      32.987  15.958  10.776  0.00  0.00     0.150 HD
ENDBRANCH   1   2
BRANCH   1   5
HETATM    5  C   UNK N   1      35.462  13.888  11.752  0.00  0.00     0.214 C 
BRANCH   5   6
HETATM    6  O   UNK N   1      36.356  13.882  12.801  0.00  0.00    -0.319 OA
BRANCH   6   7
HETATM    7  C   UNK N   1      35.980  13.789  14.099  0.00  0.00     0.254 C 
HETATM    8  O   UNK N   1      34.892  13.307  14.372  0.00  0.00    -0.266 OA
HETATM    9  C   UNK N   1      36.856  14.280  15.209  0.00  0.00     0.126 C 
ENDBRANCH   6   7
ENDBRANCH   5   6
ENDBRANCH   1   5
BRANCH   1  10
HETATM   10  C   UNK N   1      35.831  16.216  10.890  0.00  0.00     0.165 C 
HETATM   11  O   UNK N   1      35.423  17.251  10.385  0.00  0.00    -0.648 OA
BRANCH  10  12
HETATM   12  O   UNK N   1      37.141  15.912  10.807  0.00  0.00    -0.775 OA
HETATM   13  H   UNK N   1      37.525  15.143  11.179  0.00  0.00     0.167 HD
ENDBRANCH  10  12
ENDBRANCH   1  10
TORSDOF 6
ENDMDL
MODEL 5
REMARK VINA RESULT:      -4.2     13.795     15.813
REMARK  6 active torsions:
REMARK  status: ('A' for Active; 'I' for Inactive)
REMARK    1  A    between atoms: C_1  and  N_2 
REMARK    2  A    between atoms: C_1  and  C_3 
REMARK    3  A    between atoms: C_1  and  C_8 
REMARK    4  A    between atoms: C_3  and  O_4 
REMARK    5  A    between atoms: O_4  and  C_5 
REMARK    6  A    between atoms: C_8  and  O_10 
ROOT
HETATM    1  C   UNK N   1      35.457  15.874  10.998  0.00  0.00     0.198 C 
ENDROOT
BRANCH   1   2
HETATM    2  N   UNK N   1      36.781  15.284  11.114  0.00  0.00    -0.416 N 
HETATM    3  H   UNK N   1      36.943  14.487  11.730  0.00  0.00     0.150 HD
HETATM    4  H   UNK N   1      37.555  15.671  10.576  0.00  0.00     0.150 HD
ENDBRANCH   1   2
BRANCH   1   5
HETATM    5  C   UNK N   1      35.227  16.297   9.550  0.00  0.00     0.214 C 
BRANCH   5   6
HETATM    6  O   UNK N   1      34.465  17.444   9.501  0.00  0.00    -0.319 OA
BRANCH   6   7
HETATM    7  C   UNK N   1      33.939  17.941   8.356  0.00  0.00     0.254 C 
HETATM    8  O   UNK N   1      34.687  18.377   7.497  0.00  0.00    -0.266 OA
HETATM    9  C   UNK N   1      32.460  17.988   8.126  0.00  0.00     0.126 C 
ENDBRANCH   6   7
ENDBRANCH   5   6
ENDBRANCH   1   5
BRANCH   1  10
HETATM   10  C   UNK N   1      34.405  14.902  11.467  0.00  0.00     0.165 C 
HETATM   11  O   UNK N   1      34.705  14.007  12.243  0.00  0.00    -0.648 OA
BRANCH  10  12
HETATM   12  O   UNK N   1      33.137  14.991  11.020  0.00  0.00    -0.775 OA
HETATM   13  H   UNK N   1      32.889  15.437  10.234  0.00  0.00     0.167 HD
ENDBRANCH  10  12
ENDBRANCH   1  10
TORSDOF 6
ENDMDL
MODEL 6
REMARK VINA RESULT:      -4.2     11.079     13.269
REMARK  6 active torsions:
REMARK  status: ('A' for Active; 'I' for Inactive)
REMARK    1  A    between atoms: C_1  and  N_2 
REMARK    2  A    between atoms: C_1  and  C_3 
REMARK    3  A    between atoms: C_1  and  C_8 
REMARK    4  A    between atoms: C_3  and  O_4 
REMARK    5  A    between atoms: O_4  and  C_5 
REMARK    6  A    between atoms: C_8  and  O_10 
ROOT
HETATM    1  C   UNK N   1      34.099  16.955   8.742  0.00  0.00     0.198 C 
ENDROOT
BRANCH   1   2
HETATM    2  N   UNK N   1      34.576  17.120  10.105  0.00  0.00    -0.416 N 
HETATM    3  H   UNK N   1      34.128  17.786  10.737  0.00  0.00     0.150 HD
HETATM    4  H   UNK N   1      35.366  16.566  10.434  0.00  0.00     0.150 HD
ENDBRANCH   1   2
BRANCH   1   5
HETATM    5  C   UNK N   1      32.580  16.816   8.761  0.00  0.00     0.214 C 
BRANCH   5   6
HETATM    6  O   UNK N   1      32.132  16.300   7.564  0.00  0.00    -0.319 OA
BRANCH   6   7
HETATM    7  C   UNK N   1      31.221  16.923   6.778  0.00  0.00     0.254 C 
HETATM    8  O   UNK N   1      31.555  17.309   5.670  0.00  0.00    -0.266 OA
HETATM    9  C   UNK N   1      29.819  17.168   7.241  0.00  0.00     0.126 C 
ENDBRANCH   6   7
ENDBRANCH   5   6
ENDBRANCH   1   5
BRANCH   1  10
HETATM   10  C   UNK N   1      34.541  18.115   7.886  0.00  0.00     0.165 C 
HETATM   11  O   UNK N   1      35.025  19.108   8.408  0.00  0.00    -0.648 OA
BRANCH  10  12
HETATM   12  O   UNK N   1      34.384  18.082   6.549  0.00  0.00    -0.775 OA
HETATM   13  H   UNK N   1      34.609  17.347   6.013  0.00  0.00     0.167 HD
ENDBRANCH  10  12
ENDBRANCH   1  10
TORSDOF 6
ENDMDL
MODEL 7
REMARK VINA RESULT:      -4.1     13.383     14.819
REMARK  6 active torsions:
REMARK  status: ('A' for Active; 'I' for Inactive)
REMARK    1  A    between atoms: C_1  and  N_2 
REMARK    2  A    between atoms: C_1  and  C_3 
REMARK    3  A    between atoms: C_1  and  C_8 
REMARK    4  A    between atoms: C_3  and  O_4 
REMARK    5  A    between atoms: O_4  and  C_5 
REMARK    6  A    between atoms: C_8  and  O_10 
ROOT
HETATM    1  C   UNK N   1      33.411  17.316   8.601  0.00  0.00     0.198 C 
ENDROOT
BRANCH   1   2
HETATM    2  N   UNK N   1      32.179  17.055   7.873  0.00  0.00    -0.416 N 
HETATM    3  H   UNK N   1      31.640  17.823   7.471  0.00  0.00     0.150 HD
HETATM    4  H   UNK N   1      31.850  16.096   7.765  0.00  0.00     0.150 HD
ENDBRANCH   1   2
BRANCH   1   5
HETATM    5  C   UNK N   1      34.087  15.987   8.923  0.00  0.00     0.214 C 
BRANCH   5   6
HETATM    6  O   UNK N   1      34.244  15.847  10.285  0.00  0.00    -0.319 OA
BRANCH   6   7
HETATM    7  C   UNK N   1      35.377  16.188  10.944  0.00  0.00     0.254 C 
HETATM    8  O   UNK N   1      35.973  17.202  10.619  0.00  0.00    -0.266 OA
HETATM    9  C   UNK N   1      35.929  15.342  12.049  0.00  0.00     0.126 C 
ENDBRANCH   6   7
ENDBRANCH   5   6
ENDBRANCH   1   5
BRANCH   1  10
HETATM   10  C   UNK N   1      34.313  18.220   7.800  0.00  0.00     0.165 C 
HETATM   11  O   UNK N   1      34.367  18.107   6.585  0.00  0.00    -0.648 OA
BRANCH  10  12
HETATM   12  O   UNK N   1      35.084  19.139   8.413  0.00  0.00    -0.775 OA
HETATM   13  H   UNK N   1      35.634  18.955   9.149  0.00  0.00     0.167 HD
ENDBRANCH  10  12
ENDBRANCH   1  10
TORSDOF 6
ENDMDL
MODEL 8
REMARK VINA RESULT:      -4.1      2.443      2.978
REMARK  6 active torsions:
REMARK  status: ('A' for Active; 'I' for Inactive)
REMARK    1  A    between atoms: C_1  and  N_2 
REMARK    2  A    between atoms: C_1  and  C_3 
REMARK    3  A    between atoms: C_1  and  C_8 
REMARK    4  A    between atoms: C_3  and  O_4 
REMARK    5  A    between atoms: O_4  and  C_5 
REMARK    6  A    between atoms: C_8  and  O_10 
ROOT
HETATM    1  C   UNK N   1      20.429  19.679   2.822  0.00  0.00     0.198 C 
ENDROOT
BRANCH   1   2
HETATM    2  N   UNK N   1      19.684  18.793   1.942  0.00  0.00    -0.416 N 
HETATM    3  H   UNK N   1      19.859  18.790   0.936  0.00  0.00     0.150 HD
HETATM    4  H   UNK N   1      18.979  18.169   2.333  0.00  0.00     0.150 HD
ENDBRANCH   1   2
BRANCH   1   5
HETATM    5  C   UNK N   1      21.362  18.844   3.693  0.00  0.00     0.214 C 
BRANCH   5   6
HETATM    6  O   UNK N   1      21.232  19.204   5.017  0.00  0.00    -0.319 OA
BRANCH   6   7
HETATM    7  C   UNK N   1      21.446  18.350   6.046  0.00  0.00     0.254 C 
HETATM    8  O   UNK N   1      21.065  18.658   7.164  0.00  0.00    -0.266 OA
HETATM    9  C   UNK N   1      22.155  17.046   5.852  0.00  0.00     0.126 C 
ENDBRANCH   6   7
ENDBRANCH   5   6
ENDBRANCH   1   5
BRANCH   1  10
HETATM   10  C   UNK N   1      21.187  20.704   2.018  0.00  0.00     0.165 C 
HETATM   11  O   UNK N   1      21.311  20.562   0.811  0.00  0.00    -0.648 OA
BRANCH  10  12
HETATM   12  O   UNK N   1      21.756  21.767   2.620  0.00  0.00    -0.775 OA
HETATM   13  H   UNK N   1      22.079  21.760   3.500  0.00  0.00     0.167 HD
ENDBRANCH  10  12
ENDBRANCH   1  10
TORSDOF 6
ENDMDL
MODEL 9
REMARK VINA RESULT:      -4.0     19.643     21.517
REMARK  6 active torsions:
REMARK  status: ('A' for Active; 'I' for Inactive)
REMARK    1  A    between atoms: C_1  and  N_2 
REMARK    2  A    between atoms: C_1  and  C_3 
REMARK    3  A    between atoms: C_1  and  C_8 
REMARK    4  A    between atoms: C_3  and  O_4 
REMARK    5  A    between atoms: O_4  and  C_5 
REMARK    6  A    between atoms: C_8  and  O_10 
ROOT
HETATM    1  C   UNK N   1      43.397  22.358   3.808  0.00  0.00     0.198 C 
ENDROOT
BRANCH   1   2
HETATM    2  N   UNK N   1      43.537  23.795   3.980  0.00  0.00    -0.416 N 
HETATM    3  H   UNK N   1      44.458  24.235   3.962  0.00  0.00     0.150 HD
HETATM    4  H   UNK N   1      42.707  24.371   4.120  0.00  0.00     0.150 HD
ENDBRANCH   1   2
BRANCH   1   5
HETATM    5  C   UNK N   1      42.677  22.084   2.492  0.00  0.00     0.214 C 
BRANCH   5   6
HETATM    6  O   UNK N   1      41.465  21.471   2.727  0.00  0.00    -0.319 OA
BRANCH   6   7
HETATM    7  C   UNK N   1      41.341  20.156   3.027  0.00  0.00     0.254 C 
HETATM    8  O   UNK N   1      40.702  19.827   4.014  0.00  0.00    -0.266 OA
HETATM    9  C   UNK N   1      41.986  19.094   2.191  0.00  0.00     0.126 C 
ENDBRANCH   6   7
ENDBRANCH   5   6
ENDBRANCH   1   5
BRANCH   1  10
HETATM   10  C   UNK N   1      44.747  21.689   3.854  0.00  0.00     0.165 C 
HETATM   11  O   UNK N   1      44.850  20.505   3.572  0.00  0.00    -0.648 OA
BRANCH  10  12
HETATM   12  O   UNK N   1      45.842  22.376   4.230  0.00  0.00    -0.775 OA
HETATM   13  H   UNK N   1      46.015  22.644   5.111  0.00  0.00     0.167 HD
ENDBRANCH  10  12
ENDBRANCH   1  10
TORSDOF 6
ENDMDL
