MODEL 1
REMARK VINA RESULT:      -7.5      0.000      0.000
REMARK  6 active torsions:
REMARK  status: ('A' for Active; 'I' for Inactive)
REMARK    1  A    between atoms: N_7  and  C_18 
REMARK    2  A    between atoms: C_18  and  C_19 
REMARK    3  A    between atoms: C_19  and  C_20 
REMARK    4  A    between atoms: C_20  and  N_21 
REMARK    5  A    between atoms: N_21  and  S_22 
REMARK    6  A    between atoms: S_22  and  C_23 
ROOT
HETATM    1  C   UNK N   1      19.418  18.031   3.119  0.00  0.00     0.002 A 
HETATM    2  C   UNK N   1      20.400  17.247   3.752  0.00  0.00     0.030 A 
HETATM    3  C   UNK N   1      21.682  17.779   3.871  0.00  0.00     0.046 A 
HETATM    4  C   UNK N   1      21.995  19.025   3.386  0.00  0.00     0.007 A 
HETATM    5  C   UNK N   1      21.047  19.824   2.751  0.00  0.00     0.015 A 
HETATM    6  C   UNK N   1      19.742  19.314   2.620  0.00  0.00     0.001 A 
HETATM    7  N   UNK N   1      22.766  17.207   4.439  0.00  0.00    -0.347 N 
HETATM    8  C   UNK N   1      23.783  18.109   4.313  0.00  0.00     0.060 A 
HETATM    9  C   UNK N   1      23.326  19.235   3.660  0.00  0.00     0.049 A 
HETATM   10  C   UNK N   1      25.214  18.086   4.825  0.00  0.00     0.274 C 
HETATM   11  N   UNK N   1      26.082  18.845   3.886  0.00  0.00     0.106 N 
HETATM   12  C   UNK N   1      25.666  20.253   3.731  0.00  0.00     0.356 C 
HETATM   13  C   UNK N   1      24.206  20.369   3.367  0.00  0.00     0.190 C 
HETATM   14  C   UNK N   1      25.834  16.711   5.065  0.00  0.00     0.042 C 
HETATM   15  C   UNK N   1      27.204  16.838   5.750  0.00  0.00     0.004 C 
HETATM   16  C   UNK N   1      27.814  18.237   5.614  0.00  0.00     0.030 C 
HETATM   17  C   UNK N   1      27.517  18.828   4.232  0.00  0.00     0.274 C 
HETATM   18  O   UNK N   1      23.776  21.380   2.836  0.00  0.00    -0.290 OA
ENDROOT
BRANCH   7  19
HETATM   19  C   UNK N   1      22.726  15.867   5.019  0.00  0.00     0.131 C 
BRANCH  19  20
HETATM   20  C   UNK N   1      22.681  15.859   6.523  0.00  0.00     0.040 C 
BRANCH  20  21
HETATM   21  C   UNK N   1      21.362  16.171   7.213  0.00  0.00     0.133 C 
BRANCH  21  22
HETATM   22  N   UNK N   1      20.642  14.906   7.454  0.00  0.00    -0.319 N 
HETATM   23  H   UNK N   1      20.056  14.446   6.757  0.00  0.00     0.172 HD
BRANCH  22  24
HETATM   24  S   UNK N   1      20.912  14.264   9.111  0.00  0.00     0.230 S 
HETATM   25  O   UNK N   1      19.492  14.195   9.698  0.00  0.00    -0.206 OA
HETATM   26  O   UNK N   1      20.603  12.979   8.324  0.00  0.00    -0.206 OA
BRANCH  24  27
HETATM   27  C   UNK N   1      21.812  12.802   9.754  0.00  0.00     0.121 C 
HETATM   28  C   UNK N   1      23.279  13.102   9.953  0.00  0.00     0.027 C 
HETATM   29  C   UNK N   1      21.207  12.304  11.067  0.00  0.00     0.027 C 
ENDBRANCH  24  27
ENDBRANCH  22  24
ENDBRANCH  21  22
ENDBRANCH  20  21
ENDBRANCH  19  20
ENDBRANCH   7  19
TORSDOF 6
ENDMDL
MODEL 2
REMARK VINA RESULT:      -7.2      2.503      7.880
REMARK  6 active torsions:
REMARK  status: ('A' for Active; 'I' for Inactive)
REMARK    1  A    between atoms: N_7  and  C_18 
REMARK    2  A    between atoms: C_18  and  C_19 
REMARK    3  A    between atoms: C_19  and  C_20 
REMARK    4  A    between atoms: C_20  and  N_21 
REMARK    5  A    between atoms: N_21  and  S_22 
REMARK    6  A    between atoms: S_22  and  C_23 
ROOT
HETATM    1  C   UNK N   1      24.003  11.939  10.548  0.00  0.00     0.002 A 
HETATM    2  C   UNK N   1      24.427  12.596   9.378  0.00  0.00     0.030 A 
HETATM    3  C   UNK N   1      23.528  13.461   8.756  0.00  0.00     0.046 A 
HETATM    4  C   UNK N   1      22.266  13.671   9.252  0.00  0.00     0.007 A 
HETATM    5  C   UNK N   1      21.816  13.033  10.406  0.00  0.00     0.015 A 
HETATM    6  C   UNK N   1      22.703  12.156  11.058  0.00  0.00     0.001 A 
HETATM    7  N   UNK N   1      23.724  14.190   7.635  0.00  0.00    -0.347 N 
HETATM    8  C   UNK N   1      22.563  14.876   7.420  0.00  0.00     0.060 A 
HETATM    9  C   UNK N   1      21.650  14.563   8.407  0.00  0.00     0.049 A 
HETATM   10  C   UNK N   1      22.191  15.919   6.379  0.00  0.00     0.274 C 
HETATM   11  N   UNK N   1      20.737  15.824   6.087  0.00  0.00     0.106 N 
HETATM   12  C   UNK N   1      19.897  16.040   7.282  0.00  0.00     0.356 C 
HETATM   13  C   UNK N   1      20.304  15.140   8.423  0.00  0.00     0.190 C 
HETATM   14  C   UNK N   1      22.961  15.875   5.060  0.00  0.00     0.042 C 
HETATM   15  C   UNK N   1      22.616  17.088   4.182  0.00  0.00     0.004 C 
HETATM   16  C   UNK N   1      21.308  17.771   4.593  0.00  0.00     0.030 C 
HETATM   17  C   UNK N   1      20.265  16.735   5.027  0.00  0.00     0.274 C 
HETATM   18  O   UNK N   1      19.524  14.896   9.330  0.00  0.00    -0.290 OA
ENDROOT
BRANCH   7  19
HETATM   19  C   UNK N   1      24.975  14.143   6.883  0.00  0.00     0.131 C 
BRANCH  19  20
HETATM   20  C   UNK N   1      25.885  15.312   7.145  0.00  0.00     0.040 C 
BRANCH  20  21
HETATM   21  C   UNK N   1      26.606  15.950   5.968  0.00  0.00     0.133 C 
BRANCH  21  22
HETATM   22  N   UNK N   1      26.468  17.416   6.065  0.00  0.00    -0.319 N 
HETATM   23  H   UNK N   1      26.143  17.900   6.902  0.00  0.00     0.172 HD
BRANCH  22  24
HETATM   24  S   UNK N   1      26.939  18.255   4.547  0.00  0.00     0.230 S 
HETATM   25  O   UNK N   1      26.052  17.582   3.485  0.00  0.00    -0.206 OA
HETATM   26  O   UNK N   1      25.714  19.072   4.990  0.00  0.00    -0.206 OA
BRANCH  24  27
HETATM   27  C   UNK N   1      27.058  20.023   4.081  0.00  0.00     0.121 C 
HETATM   28  C   UNK N   1      25.947  20.421   3.138  0.00  0.00     0.027 C 
HETATM   29  C   UNK N   1      27.036  20.929   5.312  0.00  0.00     0.027 C 
ENDBRANCH  24  27
ENDBRANCH  22  24
ENDBRANCH  21  22
ENDBRANCH  20  21
ENDBRANCH  19  20
ENDBRANCH   7  19
TORSDOF 6
ENDMDL
MODEL 3
REMARK VINA RESULT:      -7.1      3.113      7.653
REMARK  6 active torsions:
REMARK  status: ('A' for Active; 'I' for Inactive)
REMARK    1  A    between atoms: N_7  and  C_18 
REMARK    2  A    between atoms: C_18  and  C_19 
REMARK    3  A    between atoms: C_19  and  C_20 
REMARK    4  A    between atoms: C_20  and  N_21 
REMARK    5  A    between atoms: N_21  and  S_22 
REMARK    6  A    between atoms: S_22  and  C_23 
ROOT
HETATM    1  C   UNK N   1      23.276  11.802  10.526  0.00  0.00     0.002 A 
HETATM    2  C   UNK N   1      23.843  12.411   9.392  0.00  0.00     0.030 A 
HETATM    3  C   UNK N   1      23.092  13.378   8.727  0.00  0.00     0.046 A 
HETATM    4  C   UNK N   1      21.837  13.734   9.150  0.00  0.00     0.007 A 
HETATM    5  C   UNK N   1      21.245  13.148  10.267  0.00  0.00     0.015 A 
HETATM    6  C   UNK N   1      21.982  12.169  10.961  0.00  0.00     0.001 A 
HETATM    7  N   UNK N   1      23.440  14.085   7.629  0.00  0.00    -0.347 N 
HETATM    8  C   UNK N   1      22.383  14.904   7.354  0.00  0.00     0.060 A 
HETATM    9  C   UNK N   1      21.382  14.697   8.280  0.00  0.00     0.049 A 
HETATM   10  C   UNK N   1      22.200  15.989   6.305  0.00  0.00     0.274 C 
HETATM   11  N   UNK N   1      20.765  16.068   5.926  0.00  0.00     0.106 N 
HETATM   12  C   UNK N   1      19.886  16.377   7.072  0.00  0.00     0.356 C 
HETATM   13  C   UNK N   1      20.114  15.429   8.224  0.00  0.00     0.190 C 
HETATM   14  C   UNK N   1      23.038  15.861   5.034  0.00  0.00     0.042 C 
HETATM   15  C   UNK N   1      22.891  17.110   4.151  0.00  0.00     0.004 C 
HETATM   16  C   UNK N   1      21.650  17.942   4.492  0.00  0.00     0.030 C 
HETATM   17  C   UNK N   1      20.469  17.034   4.851  0.00  0.00     0.274 C 
HETATM   18  O   UNK N   1      19.258  15.274   9.080  0.00  0.00    -0.290 OA
ENDROOT
BRANCH   7  19
HETATM   19  C   UNK N   1      24.719  13.894   6.952  0.00  0.00     0.131 C 
BRANCH  19  20
HETATM   20  C   UNK N   1      25.756  14.923   7.312  0.00  0.00     0.040 C 
BRANCH  20  21
HETATM   21  C   UNK N   1      26.622  15.502   6.203  0.00  0.00     0.133 C 
BRANCH  21  22
HETATM   22  N   UNK N   1      26.859  16.931   6.484  0.00  0.00    -0.319 N 
HETATM   23  H   UNK N   1      26.118  17.631   6.523  0.00  0.00     0.172 HD
BRANCH  22  24
HETATM   24  S   UNK N   1      28.597  17.301   6.753  0.00  0.00     0.230 S 
HETATM   25  O   UNK N   1      28.980  18.115   5.505  0.00  0.00    -0.206 OA
HETATM   26  O   UNK N   1      27.918  18.561   7.314  0.00  0.00    -0.206 OA
BRANCH  24  27
HETATM   27  C   UNK N   1      29.516  18.038   8.157  0.00  0.00     0.121 C 
HETATM   28  C   UNK N   1      28.656  18.120   9.396  0.00  0.00     0.027 C 
HETATM   29  C   UNK N   1      30.789  17.251   8.468  0.00  0.00     0.027 C 
ENDBRANCH  24  27
ENDBRANCH  22  24
ENDBRANCH  21  22
ENDBRANCH  20  21
ENDBRANCH  19  20
ENDBRANCH   7  19
TORSDOF 6
ENDMDL
MODEL 4
REMARK VINA RESULT:      -7.0      7.945     10.685
REMARK  6 active torsions:
REMARK  status: ('A' for Active; 'I' for Inactive)
REMARK    1  A    between atoms: N_7  and  C_18 
REMARK    2  A    between atoms: C_18  and  C_19 
REMARK    3  A    between atoms: C_19  and  C_20 
REMARK    4  A    between atoms: C_20  and  N_21 
REMARK    5  A    between atoms: N_21  and  S_22 
REMARK    6  A    between atoms: S_22  and  C_23 
ROOT
HETATM    1  C   UNK N   1      28.705  18.638   9.050  0.00  0.00     0.002 A 
HETATM    2  C   UNK N   1      29.959  18.020   8.889  0.00  0.00     0.030 A 
HETATM    3  C   UNK N   1      30.281  17.521   7.629  0.00  0.00     0.046 A 
HETATM    4  C   UNK N   1      29.414  17.618   6.570  0.00  0.00     0.007 A 
HETATM    5  C   UNK N   1      28.165  18.221   6.698  0.00  0.00     0.015 A 
HETATM    6  C   UNK N   1      27.813  18.737   7.959  0.00  0.00     0.001 A 
HETATM    7  N   UNK N   1      31.420  16.897   7.253  0.00  0.00    -0.347 N 
HETATM    8  C   UNK N   1      31.269  16.596   5.930  0.00  0.00     0.060 A 
HETATM    9  C   UNK N   1      30.034  17.029   5.493  0.00  0.00     0.049 A 
HETATM   10  C   UNK N   1      32.228  15.977   4.925  0.00  0.00     0.274 C 
HETATM   11  N   UNK N   1      31.452  15.213   3.914  0.00  0.00     0.106 N 
HETATM   12  C   UNK N   1      30.486  16.053   3.177  0.00  0.00     0.356 C 
HETATM   13  C   UNK N   1      29.588  16.825   4.112  0.00  0.00     0.190 C 
HETATM   14  C   UNK N   1      33.321  15.073   5.491  0.00  0.00     0.042 C 
HETATM   15  C   UNK N   1      34.320  14.668   4.395  0.00  0.00     0.004 C 
HETATM   16  C   UNK N   1      33.765  14.858   2.979  0.00  0.00     0.030 C 
HETATM   17  C   UNK N   1      32.278  14.494   2.925  0.00  0.00     0.274 C 
HETATM   18  O   UNK N   1      28.515  17.259   3.726  0.00  0.00    -0.290 OA
ENDROOT
BRANCH   7  19
HETATM   19  C   UNK N   1      32.512  16.639   8.186  0.00  0.00     0.131 C 
BRANCH  19  20
HETATM   20  C   UNK N   1      33.514  17.758   8.274  0.00  0.00     0.040 C 
BRANCH  20  21
HETATM   21  C   UNK N   1      34.812  17.514   9.028  0.00  0.00     0.133 C 
BRANCH  21  22
HETATM   22  N   UNK N   1      34.503  16.825  10.295  0.00  0.00    -0.319 N 
HETATM   23  H   UNK N   1      33.905  17.217  11.023  0.00  0.00     0.172 HD
BRANCH  22  24
HETATM   24  S   UNK N   1      35.294  15.215  10.414  0.00  0.00     0.230 S 
HETATM   25  O   UNK N   1      35.847  14.990   8.997  0.00  0.00    -0.206 OA
HETATM   26  O   UNK N   1      36.474  16.165  10.679  0.00  0.00    -0.206 OA
BRANCH  24  27
HETATM   27  C   UNK N   1      36.527  14.510  11.573  0.00  0.00     0.121 C 
HETATM   28  C   UNK N   1      36.020  14.529  12.995  0.00  0.00     0.027 C 
HETATM   29  C   UNK N   1      36.909  13.082  11.183  0.00  0.00     0.027 C 
ENDBRANCH  24  27
ENDBRANCH  22  24
ENDBRANCH  21  22
ENDBRANCH  20  21
ENDBRANCH  19  20
ENDBRANCH   7  19
TORSDOF 6
ENDMDL
MODEL 5
REMARK VINA RESULT:      -6.9      2.882      7.396
REMARK  6 active torsions:
REMARK  status: ('A' for Active; 'I' for Inactive)
REMARK    1  A    between atoms: N_7  and  C_18 
REMARK    2  A    between atoms: C_18  and  C_19 
REMARK    3  A    between atoms: C_19  and  C_20 
REMARK    4  A    between atoms: C_20  and  N_21 
REMARK    5  A    between atoms: N_21  and  S_22 
REMARK    6  A    between atoms: S_22  and  C_23 
ROOT
HETATM    1  C   UNK N   1      22.559  18.058   4.537  0.00  0.00     0.002 A 
HETATM    2  C   UNK N   1      23.405  17.024   4.980  0.00  0.00     0.030 A 
HETATM    3  C   UNK N   1      22.951  16.211   6.016  0.00  0.00     0.046 A 
HETATM    4  C   UNK N   1      21.723  16.401   6.599  0.00  0.00     0.007 A 
HETATM    5  C   UNK N   1      20.865  17.418   6.186  0.00  0.00     0.015 A 
HETATM    6  C   UNK N   1      21.295  18.253   5.139  0.00  0.00     0.001 A 
HETATM    7  N   UNK N   1      23.590  15.168   6.590  0.00  0.00    -0.347 N 
HETATM    8  C   UNK N   1      22.750  14.690   7.554  0.00  0.00     0.060 A 
HETATM    9  C   UNK N   1      21.594  15.443   7.577  0.00  0.00     0.049 A 
HETATM   10  C   UNK N   1      22.861  13.486   8.475  0.00  0.00     0.274 C 
HETATM   11  N   UNK N   1      22.150  13.776   9.748  0.00  0.00     0.106 N 
HETATM   12  C   UNK N   1      20.718  14.078   9.549  0.00  0.00     0.356 C 
HETATM   13  C   UNK N   1      20.513  15.169   8.527  0.00  0.00     0.190 C 
HETATM   14  C   UNK N   1      24.272  13.001   8.801  0.00  0.00     0.042 C 
HETATM   15  C   UNK N   1      24.232  11.679   9.584  0.00  0.00     0.004 C 
HETATM   16  C   UNK N   1      22.870  11.410  10.235  0.00  0.00     0.030 C 
HETATM   17  C   UNK N   1      22.254  12.710  10.763  0.00  0.00     0.274 C 
HETATM   18  O   UNK N   1      19.475  15.810   8.502  0.00  0.00    -0.290 OA
ENDROOT
BRANCH   7  19
HETATM   19  C   UNK N   1      24.929  14.753   6.180  0.00  0.00     0.131 C 
BRANCH  19  20
HETATM   20  C   UNK N   1      26.033  15.572   6.792  0.00  0.00     0.040 C 
BRANCH  20  21
HETATM   21  C   UNK N   1      27.167  16.048   5.896  0.00  0.00     0.133 C 
BRANCH  21  22
HETATM   22  N   UNK N   1      27.784  17.241   6.507  0.00  0.00    -0.319 N 
HETATM   23  H   UNK N   1      27.886  17.374   7.513  0.00  0.00     0.172 HD
BRANCH  22  24
HETATM   24  S   UNK N   1      28.338  18.433   5.280  0.00  0.00     0.230 S 
HETATM   25  O   UNK N   1      28.308  17.628   3.970  0.00  0.00    -0.206 OA
HETATM   26  O   UNK N   1      26.809  18.569   5.182  0.00  0.00    -0.206 OA
BRANCH  24  27
HETATM   27  C   UNK N   1      27.801  20.134   4.859  0.00  0.00     0.121 C 
HETATM   28  C   UNK N   1      26.886  20.141   3.658  0.00  0.00     0.027 C 
HETATM   29  C   UNK N   1      27.105  20.810   6.040  0.00  0.00     0.027 C 
ENDBRANCH  24  27
ENDBRANCH  22  24
ENDBRANCH  21  22
ENDBRANCH  20  21
ENDBRANCH  19  20
ENDBRANCH   7  19
TORSDOF 6
ENDMDL
MODEL 6
REMARK VINA RESULT:      -6.9      5.498      9.391
REMARK  6 active torsions:
REMARK  status: ('A' for Active; 'I' for Inactive)
REMARK    1  A    between atoms: N_7  and  C_18 
REMARK    2  A    between atoms: C_18  and  C_19 
REMARK    3  A    between atoms: C_19  and  C_20 
REMARK    4  A    between atoms: C_20  and  N_21 
REMARK    5  A    between atoms: N_21  and  S_22 
REMARK    6  A    between atoms: S_22  and  C_23 
ROOT
HETATM    1  C   UNK N   1      28.245  18.406   8.561  0.00  0.00     0.002 A 
HETATM    2  C   UNK N   1      28.444  17.541   7.469  0.00  0.00     0.030 A 
HETATM    3  C   UNK N   1      29.731  17.051   7.253  0.00  0.00     0.046 A 
HETATM    4  C   UNK N   1      30.781  17.394   8.067  0.00  0.00     0.007 A 
HETATM    5  C   UNK N   1      30.617  18.250   9.154  0.00  0.00     0.015 A 
HETATM    6  C   UNK N   1      29.328  18.758   9.399  0.00  0.00     0.001 A 
HETATM    7  N   UNK N   1      30.143  16.215   6.275  0.00  0.00    -0.347 N 
HETATM    8  C   UNK N   1      31.480  16.024   6.476  0.00  0.00     0.060 A 
HETATM    9  C   UNK N   1      31.892  16.750   7.576  0.00  0.00     0.049 A 
HETATM   10  C   UNK N   1      32.485  15.129   5.769  0.00  0.00     0.274 C 
HETATM   11  N   UNK N   1      33.828  15.764   5.820  0.00  0.00     0.106 N 
HETATM   12  C   UNK N   1      34.301  15.993   7.200  0.00  0.00     0.356 C 
HETATM   13  C   UNK N   1      33.287  16.751   8.021  0.00  0.00     0.190 C 
HETATM   14  C   UNK N   1      32.171  14.761   4.320  0.00  0.00     0.042 C 
HETATM   15  C   UNK N   1      33.164  13.713   3.793  0.00  0.00     0.004 C 
HETATM   16  C   UNK N   1      34.449  13.634   4.625  0.00  0.00     0.030 C 
HETATM   17  C   UNK N   1      34.880  15.027   5.094  0.00  0.00     0.274 C 
HETATM   18  O   UNK N   1      33.627  17.355   9.026  0.00  0.00    -0.290 OA
ENDROOT
BRANCH   7  19
HETATM   19  C   UNK N   1      29.236  15.705   5.250  0.00  0.00     0.131 C 
BRANCH  19  20
HETATM   20  C   UNK N   1      29.176  16.560   4.013  0.00  0.00     0.040 C 
BRANCH  20  21
HETATM   21  C   UNK N   1      27.930  17.397   3.767  0.00  0.00     0.133 C 
BRANCH  21  22
HETATM   22  N   UNK N   1      28.230  18.803   4.097  0.00  0.00    -0.319 N 
HETATM   23  H   UNK N   1      29.146  19.233   3.965  0.00  0.00     0.172 HD
BRANCH  22  24
HETATM   24  S   UNK N   1      26.803  19.676   4.755  0.00  0.00     0.230 S 
HETATM   25  O   UNK N   1      27.408  20.985   5.289  0.00  0.00    -0.206 OA
HETATM   26  O   UNK N   1      26.901  20.259   3.336  0.00  0.00    -0.206 OA
BRANCH  24  27
HETATM   27  C   UNK N   1      25.167  20.106   4.051  0.00  0.00     0.121 C 
HETATM   28  C   UNK N   1      25.280  20.504   2.598  0.00  0.00     0.027 C 
HETATM   29  C   UNK N   1      24.176  18.951   4.190  0.00  0.00     0.027 C 
ENDBRANCH  24  27
ENDBRANCH  22  24
ENDBRANCH  21  22
ENDBRANCH  20  21
ENDBRANCH  19  20
ENDBRANCH   7  19
TORSDOF 6
ENDMDL
MODEL 7
REMARK VINA RESULT:      -6.8     13.183     15.600
REMARK  6 active torsions:
REMARK  status: ('A' for Active; 'I' for Inactive)
REMARK    1  A    between atoms: N_7  and  C_18 
REMARK    2  A    between atoms: C_18  and  C_19 
REMARK    3  A    between atoms: C_19  and  C_20 
REMARK    4  A    between atoms: C_20  and  N_21 
REMARK    5  A    between atoms: N_21  and  S_22 
REMARK    6  A    between atoms: S_22  and  C_23 
ROOT
HETATM    1  C   UNK N   1      27.338  29.131  -4.580  0.00  0.00     0.002 A 
HETATM    2  C   UNK N   1      26.886  27.808  -4.417  0.00  0.00     0.030 A 
HETATM    3  C   UNK N   1      26.940  26.961  -5.522  0.00  0.00     0.046 A 
HETATM    4  C   UNK N   1      27.412  27.389  -6.737  0.00  0.00     0.007 A 
HETATM    5  C   UNK N   1      27.864  28.692  -6.932  0.00  0.00     0.015 A 
HETATM    6  C   UNK N   1      27.824  29.570  -5.832  0.00  0.00     0.001 A 
HETATM    7  N   UNK N   1      26.564  25.665  -5.590  0.00  0.00    -0.347 N 
HETATM    8  C   UNK N   1      26.804  25.266  -6.873  0.00  0.00     0.060 A 
HETATM    9  C   UNK N   1      27.324  26.319  -7.597  0.00  0.00     0.049 A 
HETATM   10  C   UNK N   1      26.673  23.908  -7.543  0.00  0.00     0.274 C 
HETATM   11  N   UNK N   1      26.340  24.100  -8.979  0.00  0.00     0.106 N 
HETATM   12  C   UNK N   1      27.363  24.879  -9.705  0.00  0.00     0.356 C 
HETATM   13  C   UNK N   1      27.664  26.187  -9.016  0.00  0.00     0.190 C 
HETATM   14  C   UNK N   1      25.664  22.937  -6.931  0.00  0.00     0.042 C 
HETATM   15  C   UNK N   1      25.767  21.551  -7.588  0.00  0.00     0.004 C 
HETATM   16  C   UNK N   1      26.478  21.584  -8.945  0.00  0.00     0.030 C 
HETATM   17  C   UNK N   1      26.105  22.849  -9.725  0.00  0.00     0.274 C 
HETATM   18  O   UNK N   1      28.171  27.111  -9.631  0.00  0.00    -0.290 OA
ENDROOT
BRANCH   7  19
HETATM   19  C   UNK N   1      26.002  24.956  -4.444  0.00  0.00     0.131 C 
BRANCH  19  20
HETATM   20  C   UNK N   1      27.037  24.437  -3.484  0.00  0.00     0.040 C 
BRANCH  20  21
HETATM   21  C   UNK N   1      28.315  23.835  -4.048  0.00  0.00     0.133 C 
BRANCH  21  22
HETATM   22  N   UNK N   1      29.454  24.689  -3.661  0.00  0.00    -0.319 N 
HETATM   23  H   UNK N   1      29.428  25.709  -3.678  0.00  0.00     0.172 HD
BRANCH  22  24
HETATM   24  S   UNK N   1      30.890  23.735  -3.153  0.00  0.00     0.230 S 
HETATM   25  O   UNK N   1      30.482  23.193  -1.773  0.00  0.00    -0.206 OA
HETATM   26  O   UNK N   1      30.004  22.653  -3.793  0.00  0.00    -0.206 OA
BRANCH  24  27
HETATM   27  C   UNK N   1      31.861  22.410  -3.966  0.00  0.00     0.121 C 
HETATM   28  C   UNK N   1      32.985  22.982  -4.797  0.00  0.00     0.027 C 
HETATM   29  C   UNK N   1      32.428  21.424  -2.945  0.00  0.00     0.027 C 
ENDBRANCH  24  27
ENDBRANCH  22  24
ENDBRANCH  21  22
ENDBRANCH  20  21
ENDBRANCH  19  20
ENDBRANCH   7  19
TORSDOF 6
ENDMDL
MODEL 8
REMARK VINA RESULT:      -6.8      1.312      4.437
REMARK  6 active torsions:
REMARK  status: ('A' for Active; 'I' for Inactive)
REMARK    1  A    between atoms: N_7  and  C_18 
REMARK    2  A    between atoms: C_18  and  C_19 
REMARK    3  A    between atoms: C_19  and  C_20 
REMARK    4  A    between atoms: C_20  and  N_21 
REMARK    5  A    between atoms: N_21  and  S_22 
REMARK    6  A    between atoms: S_22  and  C_23 
ROOT
HETATM    1  C   UNK N   1      27.896  18.929   5.247  0.00  0.00     0.002 A 
HETATM    2  C   UNK N   1      27.003  17.842   5.215  0.00  0.00     0.030 A 
HETATM    3  C   UNK N   1      25.733  18.058   4.684  0.00  0.00     0.046 A 
HETATM    4  C   UNK N   1      25.349  19.286   4.207  0.00  0.00     0.007 A 
HETATM    5  C   UNK N   1      26.208  20.382   4.228  0.00  0.00     0.015 A 
HETATM    6  C   UNK N   1      27.499  20.193   4.756  0.00  0.00     0.001 A 
HETATM    7  N   UNK N   1      24.728  17.164   4.554  0.00  0.00    -0.347 N 
HETATM    8  C   UNK N   1      23.689  17.840   3.983  0.00  0.00     0.060 A 
HETATM    9  C   UNK N   1      24.053  19.153   3.766  0.00  0.00     0.049 A 
HETATM   10  C   UNK N   1      22.324  17.369   3.509  0.00  0.00     0.274 C 
HETATM   11  N   UNK N   1      21.345  18.479   3.652  0.00  0.00     0.106 N 
HETATM   12  C   UNK N   1      21.719  19.677   2.874  0.00  0.00     0.356 C 
HETATM   13  C   UNK N   1      23.128  20.124   3.177  0.00  0.00     0.190 C 
HETATM   14  C   UNK N   1      21.756  16.123   4.187  0.00  0.00     0.042 C 
HETATM   15  C   UNK N   1      20.469  15.657   3.489  0.00  0.00     0.004 C 
HETATM   16  C   UNK N   1      19.825  16.749   2.628  0.00  0.00     0.030 C 
HETATM   17  C   UNK N   1      19.958  18.120   3.299  0.00  0.00     0.274 C 
HETATM   18  O   UNK N   1      23.480  21.269   2.943  0.00  0.00    -0.290 OA
ENDROOT
BRANCH   7  19
HETATM   19  C   UNK N   1      24.853  15.779   5.001  0.00  0.00     0.131 C 
BRANCH  19  20
HETATM   20  C   UNK N   1      24.409  15.558   6.422  0.00  0.00     0.040 C 
BRANCH  20  21
HETATM   21  C   UNK N   1      23.781  14.221   6.787  0.00  0.00     0.133 C 
BRANCH  21  22
HETATM   22  N   UNK N   1      22.395  14.456   7.235  0.00  0.00    -0.319 N 
HETATM   23  H   UNK N   1      21.704  14.972   6.691  0.00  0.00     0.172 HD
BRANCH  22  24
HETATM   24  S   UNK N   1      22.059  13.730   8.845  0.00  0.00     0.230 S 
HETATM   25  O   UNK N   1      20.686  13.065   8.650  0.00  0.00    -0.206 OA
HETATM   26  O   UNK N   1      22.691  12.547   8.092  0.00  0.00    -0.206 OA
BRANCH  24  27
HETATM   27  C   UNK N   1      23.023  12.623   9.942  0.00  0.00     0.121 C 
HETATM   28  C   UNK N   1      22.220  12.213  11.154  0.00  0.00     0.027 C 
HETATM   29  C   UNK N   1      23.503  11.376   9.199  0.00  0.00     0.027 C 
ENDBRANCH  24  27
ENDBRANCH  22  24
ENDBRANCH  21  22
ENDBRANCH  20  21
ENDBRANCH  19  20
ENDBRANCH   7  19
TORSDOF 6
ENDMDL
MODEL 9
REMARK VINA RESULT:      -6.7     11.691     14.821
REMARK  6 active torsions:
REMARK  status: ('A' for Active; 'I' for Inactive)
REMARK    1  A    between atoms: N_7  and  C_18 
REMARK    2  A    between atoms: C_18  and  C_19 
REMARK    3  A    between atoms: C_19  and  C_20 
REMARK    4  A    between atoms: C_20  and  N_21 
REMARK    5  A    between atoms: N_21  and  S_22 
REMARK    6  A    between atoms: S_22  and  C_23 
ROOT
HETATM    1  C   UNK N   1      39.089  12.512   9.667  0.00  0.00     0.002 A 
HETATM    2  C   UNK N   1      38.157  13.451  10.148  0.00  0.00     0.030 A 
HETATM    3  C   UNK N   1      37.232  13.970   9.244  0.00  0.00     0.046 A 
HETATM    4  C   UNK N   1      37.220  13.592   7.925  0.00  0.00     0.007 A 
HETATM    5  C   UNK N   1      38.131  12.669   7.418  0.00  0.00     0.015 A 
HETATM    6  C   UNK N   1      39.076  12.124   8.308  0.00  0.00     0.001 A 
HETATM    7  N   UNK N   1      36.256  14.872   9.487  0.00  0.00    -0.347 N 
HETATM    8  C   UNK N   1      35.613  15.067   8.299  0.00  0.00     0.060 A 
HETATM    9  C   UNK N   1      36.199  14.288   7.322  0.00  0.00     0.049 A 
HETATM   10  C   UNK N   1      34.386  15.890   7.944  0.00  0.00     0.274 C 
HETATM   11  N   UNK N   1      34.503  16.366   6.541  0.00  0.00     0.106 N 
HETATM   12  C   UNK N   1      34.617  15.260   5.569  0.00  0.00     0.356 C 
HETATM   13  C   UNK N   1      35.727  14.305   5.935  0.00  0.00     0.190 C 
HETATM   14  C   UNK N   1      34.080  17.087   8.844  0.00  0.00     0.042 C 
HETATM   15  C   UNK N   1      32.723  17.712   8.485  0.00  0.00     0.004 C 
HETATM   16  C   UNK N   1      32.234  17.319   7.087  0.00  0.00     0.030 C 
HETATM   17  C   UNK N   1      33.405  17.248   6.101  0.00  0.00     0.274 C 
HETATM   18  O   UNK N   1      36.220  13.572   5.093  0.00  0.00    -0.290 OA
ENDROOT
BRANCH   7  19
HETATM   19  C   UNK N   1      36.052  15.464  10.807  0.00  0.00     0.131 C 
BRANCH  19  20
HETATM   20  C   UNK N   1      34.990  14.777  11.622  0.00  0.00     0.040 C 
BRANCH  20  21
HETATM   21  C   UNK N   1      35.419  13.756  12.664  0.00  0.00     0.133 C 
BRANCH  21  22
HETATM   22  N   UNK N   1      36.691  14.199  13.267  0.00  0.00    -0.319 N 
HETATM   23  H   UNK N   1      37.324  14.867  12.826  0.00  0.00     0.172 HD
BRANCH  22  24
HETATM   24  S   UNK N   1      37.000  13.435  14.864  0.00  0.00     0.230 S 
HETATM   25  O   UNK N   1      37.419  14.622  15.747  0.00  0.00    -0.206 OA
HETATM   26  O   UNK N   1      35.540  13.894  15.013  0.00  0.00    -0.206 OA
BRANCH  24  27
HETATM   27  C   UNK N   1      36.009  12.319  15.928  0.00  0.00     0.121 C 
HETATM   28  C   UNK N   1      34.702  12.959  16.331  0.00  0.00     0.027 C 
HETATM   29  C   UNK N   1      35.735  10.983  15.236  0.00  0.00     0.027 C 
ENDBRANCH  24  27
ENDBRANCH  22  24
ENDBRANCH  21  22
ENDBRANCH  20  21
ENDBRANCH  19  20
ENDBRANCH   7  19
TORSDOF 6
ENDMDL
