MODEL 1
REMARK VINA RESULT:      -7.1      0.000      0.000
REMARK  8 active torsions:
REMARK  status: ('A' for Active; 'I' for Inactive)
REMARK    1  A    between atoms: C_1  and  N_12 
REMARK    2  A    between atoms: C_2  and  C_7 
REMARK       I    between atoms: C_7  and  N_9 
REMARK    3  A    between atoms: N_9  and  O_10 
REMARK    4  A    between atoms: N_12  and  S_13 
REMARK    5  A    between atoms: N_12  and  C_14 
REMARK    6  A    between atoms: S_13  and  C_22 
REMARK    7  A    between atoms: C_14  and  C_20 
REMARK    8  A    between atoms: C_25  and  O_28 
ROOT
HETATM    1  N   UNK N   1      20.774  16.213   4.563  0.00  0.00    -0.266 N 
ENDROOT
BRANCH   1   2
HETATM    2  C   UNK N   1      21.903  15.760   3.752  0.00  0.00     0.067 A 
HETATM    3  C   UNK N   1      21.751  15.346   2.379  0.00  0.00     0.062 A 
HETATM    4  C   UNK N   1      22.853  14.824   1.686  0.00  0.00     0.019 A 
HETATM    5  C   UNK N   1      24.103  14.732   2.268  0.00  0.00     0.002 A 
HETATM    6  C   UNK N   1      24.290  15.170   3.565  0.00  0.00     0.009 A 
HETATM    7  C   UNK N   1      23.228  15.672   4.316  0.00  0.00    -0.033 A 
HETATM    8  C   UNK N   1      23.569  16.040   5.722  0.00  0.00     0.050 C 
BRANCH   3   9
HETATM    9  C   UNK N   1      20.532  15.526   1.563  0.00  0.00     0.277 C 
HETATM   10  O   UNK N   1      20.515  16.357   0.670  0.00  0.00    -0.265 OA
HETATM   11  N   UNK N   1      19.482  14.686   1.715  0.00  0.00    -0.233 N 
HETATM   12  H   UNK N   1      19.525  13.976   2.395  0.00  0.00     0.197 HD
BRANCH  11  13
HETATM   13  O   UNK N   1      18.384  14.803   0.956  0.00  0.00    -0.287 OA
HETATM   14  H   UNK N   1      17.500  14.620   1.310  0.00  0.00     0.244 HD
ENDBRANCH  11  13
ENDBRANCH   3   9
ENDBRANCH   1   2
BRANCH   1  15
HETATM   15  S   UNK N   1      19.862  15.036   5.567  0.00  0.00     0.265 S 
HETATM   16  O   UNK N   1      19.342  13.959   4.604  0.00  0.00    -0.200 OA
HETATM   17  O   UNK N   1      18.540  15.764   5.863  0.00  0.00    -0.200 OA
BRANCH  15  18
HETATM   18  C   UNK N   1      20.496  14.315   7.099  0.00  0.00     0.080 A 
HETATM   19  C   UNK N   1      21.184  13.096   7.086  0.00  0.00     0.028 A 
HETATM   20  C   UNK N   1      21.764  12.603   8.261  0.00  0.00     0.038 A 
HETATM   21  C   UNK N   1      21.665  13.329   9.462  0.00  0.00     0.068 A 
HETATM   22  C   UNK N   1      20.967  14.540   9.472  0.00  0.00     0.038 A 
HETATM   23  C   UNK N   1      20.390  15.034   8.297  0.00  0.00     0.028 A 
BRANCH  21  24
HETATM   24  O   UNK N   1      22.236  12.890  10.611  0.00  0.00    -0.356 OA
HETATM   25  C   UNK N   1      22.808  11.645  10.743  0.00  0.00     0.210 C 
ENDBRANCH  21  24
ENDBRANCH  15  18
ENDBRANCH   1  15
BRANCH   1  26
HETATM   26  C   UNK N   1      20.682  17.644   4.851  0.00  0.00     0.182 C 
BRANCH  26  27
HETATM   27  C   UNK N   1      20.715  18.643   3.738  0.00  0.00    -0.024 A 
HETATM   28  C   UNK N   1      19.702  18.686   2.781  0.00  0.00     0.096 A 
HETATM   29  N   UNK N   1      19.817  19.502   1.698  0.00  0.00    -0.375 N 
HETATM   30  C   UNK N   1      20.928  20.262   1.495  0.00  0.00     0.087 A 
ATOM     31  HN  UNK N   1      19.054  19.544   1.023  1.00  0.00     0.164 HD
HETATM   32  C   UNK N   1      21.977  20.230   2.415  0.00  0.00     0.018 A 
HETATM   33  C   UNK N   1      21.868  19.411   3.542  0.00  0.00     0.011 A 
ENDBRANCH  26  27
ENDBRANCH   1  26
TORSDOF 8
ENDMDL
MODEL 2
REMARK VINA RESULT:      -7.0      2.296      4.325
REMARK  8 active torsions:
REMARK  status: ('A' for Active; 'I' for Inactive)
REMARK    1  A    between atoms: C_1  and  N_12 
REMARK    2  A    between atoms: C_2  and  C_7 
REMARK       I    between atoms: C_7  and  N_9 
REMARK    3  A    between atoms: N_9  and  O_10 
REMARK    4  A    between atoms: N_12  and  S_13 
REMARK    5  A    between atoms: N_12  and  C_14 
REMARK    6  A    between atoms: S_13  and  C_22 
REMARK    7  A    between atoms: C_14  and  C_20 
REMARK    8  A    between atoms: C_25  and  O_28 
ROOT
HETATM    1  N   UNK N   1      22.219  17.019   4.423  0.00  0.00    -0.266 N 
ENDROOT
BRANCH   1   2
HETATM    2  C   UNK N   1      22.925  18.227   3.996  0.00  0.00     0.067 A 
HETATM    3  C   UNK N   1      22.245  19.345   3.392  0.00  0.00     0.062 A 
HETATM    4  C   UNK N   1      22.991  20.432   2.910  0.00  0.00     0.019 A 
HETATM    5  C   UNK N   1      24.366  20.485   3.036  0.00  0.00     0.002 A 
HETATM    6  C   UNK N   1      25.038  19.451   3.658  0.00  0.00     0.009 A 
HETATM    7  C   UNK N   1      24.358  18.330   4.132  0.00  0.00    -0.033 A 
HETATM    8  C   UNK N   1      25.225  17.266   4.717  0.00  0.00     0.050 C 
BRANCH   3   9
HETATM    9  C   UNK N   1      20.780  19.521   3.326  0.00  0.00     0.277 C 
HETATM   10  O   UNK N   1      20.251  20.454   3.908  0.00  0.00    -0.265 OA
HETATM   11  N   UNK N   1      20.036  18.729   2.519  0.00  0.00    -0.233 N 
HETATM   12  H   UNK N   1      20.476  18.016   2.001  0.00  0.00     0.197 HD
BRANCH  11  13
HETATM   13  O   UNK N   1      18.712  18.897   2.410  0.00  0.00    -0.287 OA
HETATM   14  H   UNK N   1      18.134  18.901   3.190  0.00  0.00     0.244 HD
ENDBRANCH  11  13
ENDBRANCH   3   9
ENDBRANCH   1   2
BRANCH   1  15
HETATM   15  S   UNK N   1      21.354  16.995   5.995  0.00  0.00     0.265 S 
HETATM   16  O   UNK N   1      19.857  17.100   5.666  0.00  0.00    -0.200 OA
HETATM   17  O   UNK N   1      21.584  18.409   6.554  0.00  0.00    -0.200 OA
BRANCH  15  18
HETATM   18  C   UNK N   1      21.669  15.785   7.301  0.00  0.00     0.080 A 
HETATM   19  C   UNK N   1      20.822  15.691   8.411  0.00  0.00     0.028 A 
HETATM   20  C   UNK N   1      21.013  14.679   9.359  0.00  0.00     0.038 A 
HETATM   21  C   UNK N   1      22.054  13.745   9.203  0.00  0.00     0.068 A 
HETATM   22  C   UNK N   1      22.905  13.850   8.097  0.00  0.00     0.038 A 
HETATM   23  C   UNK N   1      22.711  14.859   7.149  0.00  0.00     0.028 A 
BRANCH  21  24
HETATM   24  O   UNK N   1      22.251  12.740  10.090  0.00  0.00    -0.356 OA
HETATM   25  C   UNK N   1      23.498  12.339  10.513  0.00  0.00     0.210 C 
ENDBRANCH  21  24
ENDBRANCH  15  18
ENDBRANCH   1  15
BRANCH   1  26
HETATM   26  C   UNK N   1      21.894  16.030   3.395  0.00  0.00     0.182 C 
BRANCH  26  27
HETATM   27  C   UNK N   1      22.200  14.583   3.614  0.00  0.00    -0.024 A 
HETATM   28  C   UNK N   1      21.202  13.686   3.993  0.00  0.00     0.096 A 
HETATM   29  N   UNK N   1      21.522  12.406   4.326  0.00  0.00    -0.375 N 
HETATM   30  C   UNK N   1      22.813  11.976   4.341  0.00  0.00     0.087 A 
ATOM     31  HN  UNK N   1      20.777  11.754   4.572  1.00  0.00     0.164 HD
HETATM   32  C   UNK N   1      23.846  12.848   3.994  0.00  0.00     0.018 A 
HETATM   33  C   UNK N   1      23.535  14.161   3.631  0.00  0.00     0.011 A 
ENDBRANCH  26  27
ENDBRANCH   1  26
TORSDOF 8
ENDMDL
MODEL 3
REMARK VINA RESULT:      -6.8     13.734     17.139
REMARK  8 active torsions:
REMARK  status: ('A' for Active; 'I' for Inactive)
REMARK    1  A    between atoms: C_1  and  N_12 
REMARK    2  A    between atoms: C_2  and  C_7 
REMARK       I    between atoms: C_7  and  N_9 
REMARK    3  A    between atoms: N_9  and  O_10 
REMARK    4  A    between atoms: N_12  and  S_13 
REMARK    5  A    between atoms: N_12  and  C_14 
REMARK    6  A    between atoms: S_13  and  C_22 
REMARK    7  A    between atoms: C_14  and  C_20 
REMARK    8  A    between atoms: C_25  and  O_28 
ROOT
HETATM    1  N   UNK N   1      35.991  13.478  10.788  0.00  0.00    -0.266 N 
ENDROOT
BRANCH   1   2
HETATM    2  C   UNK N   1      35.276  12.336  11.357  0.00  0.00     0.067 A 
HETATM    3  C   UNK N   1      35.271  12.054  12.771  0.00  0.00     0.062 A 
HETATM    4  C   UNK N   1      34.654  10.887  13.244  0.00  0.00     0.019 A 
HETATM    5  C   UNK N   1      34.006  10.010  12.394  0.00  0.00     0.002 A 
HETATM    6  C   UNK N   1      33.950  10.282  11.041  0.00  0.00     0.009 A 
HETATM    7  C   UNK N   1      34.568  11.411  10.506  0.00  0.00    -0.033 A 
HETATM    8  C   UNK N   1      34.481  11.533   9.021  0.00  0.00     0.050 C 
BRANCH   3   9
HETATM    9  C   UNK N   1      35.773  12.961  13.824  0.00  0.00     0.277 C 
HETATM   10  O   UNK N   1      34.987  13.624  14.482  0.00  0.00    -0.265 OA
HETATM   11  N   UNK N   1      37.086  12.964  14.151  0.00  0.00    -0.233 N 
HETATM   12  H   UNK N   1      37.707  12.380  13.659  0.00  0.00     0.197 HD
BRANCH  11  13
HETATM   13  O   UNK N   1      37.556  13.746  15.132  0.00  0.00    -0.287 OA
HETATM   14  H   UNK N   1      38.274  14.380  14.976  0.00  0.00     0.244 HD
ENDBRANCH  11  13
ENDBRANCH   3   9
ENDBRANCH   1   2
BRANCH   1  15
HETATM   15  S   UNK N   1      35.186  15.080  10.689  0.00  0.00     0.265 S 
HETATM   16  O   UNK N   1      35.900  15.985  11.703  0.00  0.00    -0.200 OA
HETATM   17  O   UNK N   1      33.861  14.864  11.440  0.00  0.00    -0.200 OA
BRANCH  15  18
HETATM   18  C   UNK N   1      34.852  15.945   9.137  0.00  0.00     0.080 A 
HETATM   19  C   UNK N   1      34.669  15.234   7.945  0.00  0.00     0.028 A 
HETATM   20  C   UNK N   1      34.303  15.906   6.773  0.00  0.00     0.038 A 
HETATM   21  C   UNK N   1      34.111  17.300   6.783  0.00  0.00     0.068 A 
HETATM   22  C   UNK N   1      34.305  18.007   7.974  0.00  0.00     0.038 A 
HETATM   23  C   UNK N   1      34.668  17.334   9.146  0.00  0.00     0.028 A 
BRANCH  21  24
HETATM   24  O   UNK N   1      33.733  17.977   5.672  0.00  0.00    -0.356 OA
HETATM   25  C   UNK N   1      32.972  17.420   4.669  0.00  0.00     0.210 C 
ENDBRANCH  21  24
ENDBRANCH  15  18
ENDBRANCH   1  15
BRANCH   1  26
HETATM   26  C   UNK N   1      37.448  13.386  10.703  0.00  0.00     0.182 C 
BRANCH  26  27
HETATM   27  C   UNK N   1      38.105  12.935   9.437  0.00  0.00    -0.024 A 
HETATM   28  C   UNK N   1      39.122  11.982   9.455  0.00  0.00     0.096 A 
HETATM   29  N   UNK N   1      39.805  11.687   8.316  0.00  0.00    -0.375 N 
HETATM   30  C   UNK N   1      39.549  12.334   7.146  0.00  0.00     0.087 A 
ATOM     31  HN  UNK N   1      40.526  10.966   8.339  1.00  0.00     0.164 HD
HETATM   32  C   UNK N   1      38.556  13.314   7.089  0.00  0.00     0.018 A 
HETATM   33  C   UNK N   1      37.833  13.616   8.245  0.00  0.00     0.011 A 
ENDBRANCH  26  27
ENDBRANCH   1  26
TORSDOF 8
ENDMDL
MODEL 4
REMARK VINA RESULT:      -6.7     14.211     16.034
REMARK  8 active torsions:
REMARK  status: ('A' for Active; 'I' for Inactive)
REMARK    1  A    between atoms: C_1  and  N_12 
REMARK    2  A    between atoms: C_2  and  C_7 
REMARK       I    between atoms: C_7  and  N_9 
REMARK    3  A    between atoms: N_9  and  O_10 
REMARK    4  A    between atoms: N_12  and  S_13 
REMARK    5  A    between atoms: N_12  and  C_14 
REMARK    6  A    between atoms: S_13  and  C_22 
REMARK    7  A    between atoms: C_14  and  C_20 
REMARK    8  A    between atoms: C_25  and  O_28 
ROOT
HETATM    1  N   UNK N   1      27.379  25.121  -5.933  0.00  0.00    -0.266 N 
ENDROOT
BRANCH   1   2
HETATM    2  C   UNK N   1      27.769  26.485  -6.288  0.00  0.00     0.067 A 
HETATM    3  C   UNK N   1      27.145  27.645  -5.701  0.00  0.00     0.062 A 
HETATM    4  C   UNK N   1      27.491  28.925  -6.158  0.00  0.00     0.019 A 
HETATM    5  C   UNK N   1      28.452  29.115  -7.134  0.00  0.00     0.002 A 
HETATM    6  C   UNK N   1      29.103  28.025  -7.677  0.00  0.00     0.009 A 
HETATM    7  C   UNK N   1      28.785  26.726  -7.285  0.00  0.00    -0.033 A 
HETATM    8  C   UNK N   1      29.522  25.650  -8.009  0.00  0.00     0.050 C 
BRANCH   3   9
HETATM    9  C   UNK N   1      26.225  27.626  -4.545  0.00  0.00     0.277 C 
HETATM   10  O   UNK N   1      25.027  27.775  -4.718  0.00  0.00    -0.265 OA
HETATM   11  N   UNK N   1      26.688  27.316  -3.312  0.00  0.00    -0.233 N 
HETATM   12  H   UNK N   1      27.648  27.134  -3.188  0.00  0.00     0.197 HD
BRANCH  11  13
HETATM   13  O   UNK N   1      25.866  27.251  -2.257  0.00  0.00    -0.287 OA
HETATM   14  H   UNK N   1      25.697  28.024  -1.695  0.00  0.00     0.244 HD
ENDBRANCH  11  13
ENDBRANCH   3   9
ENDBRANCH   1   2
BRANCH   1  15
HETATM   15  S   UNK N   1      28.160  24.300  -4.541  0.00  0.00     0.265 S 
HETATM   16  O   UNK N   1      27.064  24.108  -3.482  0.00  0.00    -0.200 OA
HETATM   17  O   UNK N   1      28.964  25.423  -3.865  0.00  0.00    -0.200 OA
BRANCH  15  18
HETATM   18  C   UNK N   1      29.206  22.834  -4.694  0.00  0.00     0.080 A 
HETATM   19  C   UNK N   1      29.325  22.162  -5.917  0.00  0.00     0.028 A 
HETATM   20  C   UNK N   1      30.221  21.096  -6.051  0.00  0.00     0.038 A 
HETATM   21  C   UNK N   1      31.014  20.692  -4.961  0.00  0.00     0.068 A 
HETATM   22  C   UNK N   1      30.884  21.358  -3.739  0.00  0.00     0.038 A 
HETATM   23  C   UNK N   1      29.991  22.426  -3.607  0.00  0.00     0.028 A 
BRANCH  21  24
HETATM   24  O   UNK N   1      31.909  19.679  -5.065  0.00  0.00    -0.356 OA
HETATM   25  C   UNK N   1      33.141  19.693  -4.452  0.00  0.00     0.210 C 
ENDBRANCH  21  24
ENDBRANCH  15  18
ENDBRANCH   1  15
BRANCH   1  26
HETATM   26  C   UNK N   1      26.100  24.631  -6.447  0.00  0.00     0.182 C 
BRANCH  26  27
HETATM   27  C   UNK N   1      26.054  23.428  -7.335  0.00  0.00    -0.024 A 
HETATM   28  C   UNK N   1      26.457  23.502  -8.667  0.00  0.00     0.096 A 
HETATM   29  N   UNK N   1      26.275  22.440  -9.498  0.00  0.00    -0.375 N 
HETATM   30  C   UNK N   1      25.665  21.300  -9.072  0.00  0.00     0.087 A 
ATOM     31  HN  UNK N   1      26.603  22.499 -10.462  1.00  0.00     0.164 HD
HETATM   32  C   UNK N   1      25.222  21.193  -7.753  0.00  0.00     0.018 A 
HETATM   33  C   UNK N   1      25.417  22.267  -6.881  0.00  0.00     0.011 A 
ENDBRANCH  26  27
ENDBRANCH   1  26
TORSDOF 8
ENDMDL
MODEL 5
REMARK VINA RESULT:      -6.7      1.626      3.556
REMARK  8 active torsions:
REMARK  status: ('A' for Active; 'I' for Inactive)
REMARK    1  A    between atoms: C_1  and  N_12 
REMARK    2  A    between atoms: C_2  and  C_7 
REMARK       I    between atoms: C_7  and  N_9 
REMARK    3  A    between atoms: N_9  and  O_10 
REMARK    4  A    between atoms: N_12  and  S_13 
REMARK    5  A    between atoms: N_12  and  C_14 
REMARK    6  A    between atoms: S_13  and  C_22 
REMARK    7  A    between atoms: C_14  and  C_20 
REMARK    8  A    between atoms: C_25  and  O_28 
ROOT
HETATM    1  N   UNK N   1      21.705  15.420   4.800  0.00  0.00    -0.266 N 
ENDROOT
BRANCH   1   2
HETATM    2  C   UNK N   1      21.162  16.595   4.119  0.00  0.00     0.067 A 
HETATM    3  C   UNK N   1      20.504  16.510   2.839  0.00  0.00     0.062 A 
HETATM    4  C   UNK N   1      20.097  17.685   2.189  0.00  0.00     0.019 A 
HETATM    5  C   UNK N   1      20.269  18.931   2.761  0.00  0.00     0.002 A 
HETATM    6  C   UNK N   1      20.849  19.038   4.010  0.00  0.00     0.009 A 
HETATM    7  C   UNK N   1      21.301  17.911   4.695  0.00  0.00    -0.033 A 
HETATM    8  C   UNK N   1      21.968  18.191   6.000  0.00  0.00     0.050 C 
BRANCH   3   9
HETATM    9  C   UNK N   1      20.099  15.258   2.168  0.00  0.00     0.277 C 
HETATM   10  O   UNK N   1      20.775  14.809   1.257  0.00  0.00    -0.265 OA
HETATM   11  N   UNK N   1      19.057  14.537   2.644  0.00  0.00    -0.233 N 
HETATM   12  H   UNK N   1      18.553  14.872   3.421  0.00  0.00     0.197 HD
BRANCH  11  13
HETATM   13  O   UNK N   1      18.700  13.377   2.079  0.00  0.00    -0.287 OA
HETATM   14  H   UNK N   1      17.882  13.293   1.562  0.00  0.00     0.244 HD
ENDBRANCH  11  13
ENDBRANCH   3   9
ENDBRANCH   1   2
BRANCH   1  15
HETATM   15  S   UNK N   1      20.630  14.391   5.804  0.00  0.00     0.265 S 
HETATM   16  O   UNK N   1      20.200  13.217   4.912  0.00  0.00    -0.200 OA
HETATM   17  O   UNK N   1      19.308  15.175   5.837  0.00  0.00    -0.200 OA
BRANCH  15  18
HETATM   18  C   UNK N   1      21.036  13.845   7.479  0.00  0.00     0.080 A 
HETATM   19  C   UNK N   1      20.448  14.456   8.594  0.00  0.00     0.028 A 
HETATM   20  C   UNK N   1      20.685  13.953   9.879  0.00  0.00     0.038 A 
HETATM   21  C   UNK N   1      21.511  12.828  10.062  0.00  0.00     0.068 A 
HETATM   22  C   UNK N   1      22.104  12.229   8.946  0.00  0.00     0.038 A 
HETATM   23  C   UNK N   1      21.864  12.729   7.662  0.00  0.00     0.028 A 
BRANCH  21  24
HETATM   24  O   UNK N   1      21.741  12.303  11.290  0.00  0.00    -0.356 OA
HETATM   25  C   UNK N   1      22.996  11.971  11.746  0.00  0.00     0.210 C 
ENDBRANCH  21  24
ENDBRANCH  15  18
ENDBRANCH   1  15
BRANCH   1  26
HETATM   26  C   UNK N   1      22.982  14.893   4.320  0.00  0.00     0.182 C 
BRANCH  26  27
HETATM   27  C   UNK N   1      24.254  15.632   4.588  0.00  0.00    -0.024 A 
HETATM   28  C   UNK N   1      24.807  15.672   5.867  0.00  0.00     0.096 A 
HETATM   29  N   UNK N   1      25.883  16.464   6.124  0.00  0.00    -0.375 N 
HETATM   30  C   UNK N   1      26.424  17.263   5.164  0.00  0.00     0.087 A 
ATOM     31  HN  UNK N   1      26.294  16.459   7.057  1.00  0.00     0.164 HD
HETATM   32  C   UNK N   1      25.886  17.274   3.876  0.00  0.00     0.018 A 
HETATM   33  C   UNK N   1      24.791  16.454   3.590  0.00  0.00     0.011 A 
ENDBRANCH  26  27
ENDBRANCH   1  26
TORSDOF 8
ENDMDL
MODEL 6
REMARK VINA RESULT:      -6.7      6.302      9.206
REMARK  8 active torsions:
REMARK  status: ('A' for Active; 'I' for Inactive)
REMARK    1  A    between atoms: C_1  and  N_12 
REMARK    2  A    between atoms: C_2  and  C_7 
REMARK       I    between atoms: C_7  and  N_9 
REMARK    3  A    between atoms: N_9  and  O_10 
REMARK    4  A    between atoms: N_12  and  S_13 
REMARK    5  A    between atoms: N_12  and  C_14 
REMARK    6  A    between atoms: S_13  and  C_22 
REMARK    7  A    between atoms: C_14  and  C_20 
REMARK    8  A    between atoms: C_25  and  O_28 
ROOT
HETATM    1  N   UNK N   1      28.034  17.687   5.412  0.00  0.00    -0.266 N 
ENDROOT
BRANCH   1   2
HETATM    2  C   UNK N   1      27.639  19.028   5.843  0.00  0.00     0.067 A 
HETATM    3  C   UNK N   1      27.694  19.442   7.223  0.00  0.00     0.062 A 
HETATM    4  C   UNK N   1      27.204  20.706   7.588  0.00  0.00     0.019 A 
HETATM    5  C   UNK N   1      26.705  21.592   6.651  0.00  0.00     0.002 A 
HETATM    6  C   UNK N   1      26.689  21.241   5.316  0.00  0.00     0.009 A 
HETATM    7  C   UNK N   1      27.135  19.990   4.893  0.00  0.00    -0.033 A 
HETATM    8  C   UNK N   1      26.991  19.730   3.430  0.00  0.00     0.050 C 
BRANCH   3   9
HETATM    9  C   UNK N   1      28.340  18.688   8.316  0.00  0.00     0.277 C 
HETATM   10  O   UNK N   1      29.462  18.992   8.687  0.00  0.00    -0.265 OA
HETATM   11  N   UNK N   1      27.644  17.747   8.997  0.00  0.00    -0.233 N 
HETATM   12  H   UNK N   1      26.716  17.548   8.735  0.00  0.00     0.197 HD
BRANCH  11  13
HETATM   13  O   UNK N   1      28.195  17.081  10.019  0.00  0.00    -0.287 OA
HETATM   14  H   UNK N   1      28.839  16.369   9.875  0.00  0.00     0.244 HD
ENDBRANCH  11  13
ENDBRANCH   3   9
ENDBRANCH   1   2
BRANCH   1  15
HETATM   15  S   UNK N   1      26.819  16.367   5.365  0.00  0.00     0.265 S 
HETATM   16  O   UNK N   1      26.687  15.850   6.805  0.00  0.00    -0.200 OA
HETATM   17  O   UNK N   1      27.591  15.189   4.749  0.00  0.00    -0.200 OA
BRANCH  15  18
HETATM   18  C   UNK N   1      25.209  16.507   4.554  0.00  0.00     0.080 A 
HETATM   19  C   UNK N   1      24.788  15.548   3.625  0.00  0.00     0.028 A 
HETATM   20  C   UNK N   1      23.497  15.608   3.087  0.00  0.00     0.038 A 
HETATM   21  C   UNK N   1      22.610  16.628   3.477  0.00  0.00     0.068 A 
HETATM   22  C   UNK N   1      23.039  17.590   4.397  0.00  0.00     0.038 A 
HETATM   23  C   UNK N   1      24.328  17.528   4.937  0.00  0.00     0.028 A 
BRANCH  21  24
HETATM   24  O   UNK N   1      21.347  16.700   2.993  0.00  0.00    -0.356 OA
HETATM   25  C   UNK N   1      20.540  17.804   3.147  0.00  0.00     0.210 C 
ENDBRANCH  21  24
ENDBRANCH  15  18
ENDBRANCH   1  15
BRANCH   1  26
HETATM   26  C   UNK N   1      29.278  17.563   4.652  0.00  0.00     0.182 C 
BRANCH  26  27
HETATM   27  C   UNK N   1      30.535  17.117   5.327  0.00  0.00    -0.024 A 
HETATM   28  C   UNK N   1      30.496  16.431   6.540  0.00  0.00     0.096 A 
HETATM   29  N   UNK N   1      31.648  16.159   7.211  0.00  0.00    -0.375 N 
HETATM   30  C   UNK N   1      32.857  16.576   6.747  0.00  0.00     0.087 A 
ATOM     31  HN  UNK N   1      31.604  15.630   8.082  1.00  0.00     0.164 HD
HETATM   32  C   UNK N   1      32.940  17.288   5.549  0.00  0.00     0.018 A 
HETATM   33  C   UNK N   1      31.769  17.562   4.839  0.00  0.00     0.011 A 
ENDBRANCH  26  27
ENDBRANCH   1  26
TORSDOF 8
ENDMDL
MODEL 7
REMARK VINA RESULT:      -6.7     14.163     15.716
REMARK  8 active torsions:
REMARK  status: ('A' for Active; 'I' for Inactive)
REMARK    1  A    between atoms: C_1  and  N_12 
REMARK    2  A    between atoms: C_2  and  C_7 
REMARK       I    between atoms: C_7  and  N_9 
REMARK    3  A    between atoms: N_9  and  O_10 
REMARK    4  A    between atoms: N_12  and  S_13 
REMARK    5  A    between atoms: N_12  and  C_14 
REMARK    6  A    between atoms: S_13  and  C_22 
REMARK    7  A    between atoms: C_14  and  C_20 
REMARK    8  A    between atoms: C_25  and  O_28 
ROOT
HETATM    1  N   UNK N   1      29.158  24.637  -4.923  0.00  0.00    -0.266 N 
ENDROOT
BRANCH   1   2
HETATM    2  C   UNK N   1      27.992  24.035  -5.568  0.00  0.00     0.067 A 
HETATM    3  C   UNK N   1      26.643  24.321  -5.148  0.00  0.00     0.062 A 
HETATM    4  C   UNK N   1      25.571  23.633  -5.737  0.00  0.00     0.019 A 
HETATM    5  C   UNK N   1      25.766  22.711  -6.749  0.00  0.00     0.002 A 
HETATM    6  C   UNK N   1      27.044  22.455  -7.207  0.00  0.00     0.009 A 
HETATM    7  C   UNK N   1      28.152  23.085  -6.643  0.00  0.00    -0.033 A 
HETATM    8  C   UNK N   1      29.470  22.655  -7.195  0.00  0.00     0.050 C 
BRANCH   3   9
HETATM    9  C   UNK N   1      26.251  25.387  -4.202  0.00  0.00     0.277 C 
HETATM   10  O   UNK N   1      26.474  25.255  -3.010  0.00  0.00    -0.265 OA
HETATM   11  N   UNK N   1      25.766  26.562  -4.665  0.00  0.00    -0.233 N 
HETATM   12  H   UNK N   1      25.648  26.688  -5.634  0.00  0.00     0.197 HD
BRANCH  11  13
HETATM   13  O   UNK N   1      25.445  27.558  -3.829  0.00  0.00    -0.287 OA
HETATM   14  H   UNK N   1      25.538  27.465  -2.868  0.00  0.00     0.244 HD
ENDBRANCH  11  13
ENDBRANCH   3   9
ENDBRANCH   1   2
BRANCH   1  15
HETATM   15  S   UNK N   1      30.040  23.737  -3.645  0.00  0.00     0.265 S 
HETATM   16  O   UNK N   1      28.995  23.356  -2.586  0.00  0.00    -0.200 OA
HETATM   17  O   UNK N   1      30.783  24.841  -2.875  0.00  0.00    -0.200 OA
BRANCH  15  18
HETATM   18  C   UNK N   1      31.184  22.377  -3.978  0.00  0.00     0.080 A 
HETATM   19  C   UNK N   1      30.723  21.057  -4.057  0.00  0.00     0.028 A 
HETATM   20  C   UNK N   1      31.598  20.027  -4.422  0.00  0.00     0.038 A 
HETATM   21  C   UNK N   1      32.945  20.308  -4.719  0.00  0.00     0.068 A 
HETATM   22  C   UNK N   1      33.402  21.627  -4.628  0.00  0.00     0.038 A 
HETATM   23  C   UNK N   1      32.527  22.656  -4.266  0.00  0.00     0.028 A 
BRANCH  21  24
HETATM   24  O   UNK N   1      33.811  19.338  -5.098  0.00  0.00    -0.356 OA
HETATM   25  C   UNK N   1      34.282  18.368  -4.242  0.00  0.00     0.210 C 
ENDBRANCH  21  24
ENDBRANCH  15  18
ENDBRANCH   1  15
BRANCH   1  26
HETATM   26  C   UNK N   1      29.807  25.753  -5.612  0.00  0.00     0.182 C 
BRANCH  26  27
HETATM   27  C   UNK N   1      29.189  27.115  -5.593  0.00  0.00    -0.024 A 
HETATM   28  C   UNK N   1      29.052  27.826  -4.402  0.00  0.00     0.096 A 
HETATM   29  N   UNK N   1      28.362  28.999  -4.379  0.00  0.00    -0.375 N 
HETATM   30  C   UNK N   1      27.755  29.489  -5.495  0.00  0.00     0.087 A 
ATOM     31  HN  UNK N   1      28.296  29.522  -3.506  1.00  0.00     0.164 HD
HETATM   32  C   UNK N   1      27.845  28.796  -6.703  0.00  0.00     0.018 A 
HETATM   33  C   UNK N   1      28.565  27.599  -6.749  0.00  0.00     0.011 A 
ENDBRANCH  26  27
ENDBRANCH   1  26
TORSDOF 8
ENDMDL
MODEL 8
REMARK VINA RESULT:      -6.7      6.542      9.301
REMARK  8 active torsions:
REMARK  status: ('A' for Active; 'I' for Inactive)
REMARK    1  A    between atoms: C_1  and  N_12 
REMARK    2  A    between atoms: C_2  and  C_7 
REMARK       I    between atoms: C_7  and  N_9 
REMARK    3  A    between atoms: N_9  and  O_10 
REMARK    4  A    between atoms: N_12  and  S_13 
REMARK    5  A    between atoms: N_12  and  C_14 
REMARK    6  A    between atoms: S_13  and  C_22 
REMARK    7  A    between atoms: C_14  and  C_20 
REMARK    8  A    between atoms: C_25  and  O_28 
ROOT
HETATM    1  N   UNK N   1      28.594  16.688   5.739  0.00  0.00    -0.266 N 
ENDROOT
BRANCH   1   2
HETATM    2  C   UNK N   1      29.675  17.117   6.625  0.00  0.00     0.067 A 
HETATM    3  C   UNK N   1      31.064  17.026   6.248  0.00  0.00     0.062 A 
HETATM    4  C   UNK N   1      32.059  17.357   7.180  0.00  0.00     0.019 A 
HETATM    5  C   UNK N   1      31.747  17.813   8.447  0.00  0.00     0.002 A 
HETATM    6  C   UNK N   1      30.425  17.960   8.817  0.00  0.00     0.009 A 
HETATM    7  C   UNK N   1      29.390  17.622   7.946  0.00  0.00    -0.033 A 
HETATM    8  C   UNK N   1      28.017  17.768   8.511  0.00  0.00     0.050 C 
BRANCH   3   9
HETATM    9  C   UNK N   1      31.563  16.714   4.893  0.00  0.00     0.277 C 
HETATM   10  O   UNK N   1      31.979  15.595   4.639  0.00  0.00    -0.265 OA
HETATM   11  N   UNK N   1      31.439  17.622   3.897  0.00  0.00    -0.233 N 
HETATM   12  H   UNK N   1      31.044  18.502   4.092  0.00  0.00     0.197 HD
BRANCH  11  13
HETATM   13  O   UNK N   1      31.845  17.345   2.651  0.00  0.00    -0.287 OA
HETATM   14  H   UNK N   1      31.287  16.845   2.034  0.00  0.00     0.244 HD
ENDBRANCH  11  13
ENDBRANCH   3   9
ENDBRANCH   1   2
BRANCH   1  15
HETATM   15  S   UNK N   1      28.006  17.785   4.446  0.00  0.00     0.265 S 
HETATM   16  O   UNK N   1      28.565  17.235   3.125  0.00  0.00    -0.200 OA
HETATM   17  O   UNK N   1      28.899  19.028   4.595  0.00  0.00    -0.200 OA
BRANCH  15  18
HETATM   18  C   UNK N   1      26.285  18.312   4.276  0.00  0.00     0.080 A 
HETATM   19  C   UNK N   1      25.964  19.659   4.071  0.00  0.00     0.028 A 
HETATM   20  C   UNK N   1      24.638  20.039   3.832  0.00  0.00     0.038 A 
HETATM   21  C   UNK N   1      23.617  19.071   3.791  0.00  0.00     0.068 A 
HETATM   22  C   UNK N   1      23.941  17.728   4.008  0.00  0.00     0.038 A 
HETATM   23  C   UNK N   1      25.267  17.349   4.243  0.00  0.00     0.028 A 
BRANCH  21  24
HETATM   24  O   UNK N   1      22.328  19.403   3.539  0.00  0.00    -0.356 OA
HETATM   25  C   UNK N   1      21.961  20.393   2.655  0.00  0.00     0.210 C 
ENDBRANCH  21  24
ENDBRANCH  15  18
ENDBRANCH   1  15
BRANCH   1  26
HETATM   26  C   UNK N   1      28.313  15.254   5.664  0.00  0.00     0.182 C 
BRANCH  26  27
HETATM   27  C   UNK N   1      26.912  14.749   5.807  0.00  0.00    -0.024 A 
HETATM   28  C   UNK N   1      26.314  13.994   4.800  0.00  0.00     0.096 A 
HETATM   29  N   UNK N   1      24.996  13.665   4.882  0.00  0.00    -0.375 N 
HETATM   30  C   UNK N   1      24.220  14.089   5.916  0.00  0.00     0.087 A 
ATOM     31  HN  UNK N   1      24.580  13.086   4.152  1.00  0.00     0.164 HD
HETATM   32  C   UNK N   1      24.773  14.869   6.934  0.00  0.00     0.018 A 
HETATM   33  C   UNK N   1      26.128  15.202   6.874  0.00  0.00     0.011 A 
ENDBRANCH  26  27
ENDBRANCH   1  26
TORSDOF 8
ENDMDL
MODEL 9
REMARK VINA RESULT:      -6.6      2.549      3.593
REMARK  8 active torsions:
REMARK  status: ('A' for Active; 'I' for Inactive)
REMARK    1  A    between atoms: C_1  and  N_12 
REMARK    2  A    between atoms: C_2  and  C_7 
REMARK       I    between atoms: C_7  and  N_9 
REMARK    3  A    between atoms: N_9  and  O_10 
REMARK    4  A    between atoms: N_12  and  S_13 
REMARK    5  A    between atoms: N_12  and  C_14 
REMARK    6  A    between atoms: S_13  and  C_22 
REMARK    7  A    between atoms: C_14  and  C_20 
REMARK    8  A    between atoms: C_25  and  O_28 
ROOT
HETATM    1  N   UNK N   1      22.339  16.723   4.238  0.00  0.00    -0.266 N 
ENDROOT
BRANCH   1   2
HETATM    2  C   UNK N   1      21.605  16.384   3.019  0.00  0.00     0.067 A 
HETATM    3  C   UNK N   1      20.826  17.355   2.291  0.00  0.00     0.062 A 
HETATM    4  C   UNK N   1      20.062  16.945   1.188  0.00  0.00     0.019 A 
HETATM    5  C   UNK N   1      20.066  15.636   0.745  0.00  0.00     0.002 A 
HETATM    6  C   UNK N   1      20.844  14.696   1.391  0.00  0.00     0.009 A 
HETATM    7  C   UNK N   1      21.604  15.033   2.510  0.00  0.00    -0.033 A 
HETATM    8  C   UNK N   1      22.337  13.897   3.142  0.00  0.00     0.050 C 
BRANCH   3   9
HETATM    9  C   UNK N   1      20.838  18.813   2.531  0.00  0.00     0.277 C 
HETATM   10  O   UNK N   1      21.150  19.575   1.631  0.00  0.00    -0.265 OA
HETATM   11  N   UNK N   1      20.381  19.313   3.702  0.00  0.00    -0.233 N 
HETATM   12  H   UNK N   1      20.070  18.696   4.403  0.00  0.00     0.197 HD
BRANCH  11  13
HETATM   13  O   UNK N   1      20.342  20.633   3.925  0.00  0.00    -0.287 OA
HETATM   14  H   UNK N   1      21.151  21.147   4.078  0.00  0.00     0.244 HD
ENDBRANCH  11  13
ENDBRANCH   3   9
ENDBRANCH   1   2
BRANCH   1  15
HETATM   15  S   UNK N   1      21.489  16.742   5.818  0.00  0.00     0.265 S 
HETATM   16  O   UNK N   1      19.998  16.935   5.504  0.00  0.00    -0.200 OA
HETATM   17  O   UNK N   1      21.806  18.138   6.380  0.00  0.00    -0.200 OA
BRANCH  15  18
HETATM   18  C   UNK N   1      21.747  15.510   7.116  0.00  0.00     0.080 A 
HETATM   19  C   UNK N   1      22.812  14.604   7.043  0.00  0.00     0.028 A 
HETATM   20  C   UNK N   1      23.065  13.729   8.106  0.00  0.00     0.038 A 
HETATM   21  C   UNK N   1      22.257  13.754   9.257  0.00  0.00     0.068 A 
HETATM   22  C   UNK N   1      21.187  14.653   9.320  0.00  0.00     0.038 A 
HETATM   23  C   UNK N   1      20.937  15.530   8.260  0.00  0.00     0.028 A 
BRANCH  21  24
HETATM   24  O   UNK N   1      22.490  12.936  10.312  0.00  0.00    -0.356 OA
HETATM   25  C   UNK N   1      21.491  12.280  10.995  0.00  0.00     0.210 C 
ENDBRANCH  21  24
ENDBRANCH  15  18
ENDBRANCH   1  15
BRANCH   1  26
HETATM   26  C   UNK N   1      23.798  16.631   4.193  0.00  0.00     0.182 C 
BRANCH  26  27
HETATM   27  C   UNK N   1      24.623  17.838   3.878  0.00  0.00    -0.024 A 
HETATM   28  C   UNK N   1      26.015  17.771   3.850  0.00  0.00     0.096 A 
HETATM   29  N   UNK N   1      26.753  18.904   3.703  0.00  0.00    -0.375 N 
HETATM   30  C   UNK N   1      26.166  20.129   3.619  0.00  0.00     0.087 A 
ATOM     31  HN  UNK N   1      27.770  18.835   3.654  1.00  0.00     0.164 HD
HETATM   32  C   UNK N   1      24.776  20.246   3.669  0.00  0.00     0.018 A 
HETATM   33  C   UNK N   1      24.002  19.090   3.802  0.00  0.00     0.011 A 
ENDBRANCH  26  27
ENDBRANCH   1  26
TORSDOF 8
ENDMDL
