MODEL 1
REMARK VINA RESULT:      -6.2      0.000      0.000
REMARK  5 active torsions:
REMARK  status: ('A' for Active; 'I' for Inactive)
REMARK    1  A    between atoms: N_2  and  C_16 
REMARK    2  A    between atoms: C_17  and  O_3 
REMARK    3  A    between atoms: N_5  and  C_18 
REMARK    4  A    between atoms: C_16  and  C_17 
REMARK    5  A    between atoms: C_17  and  C_18 
ROOT
HETATM    1  C   UNK N   1      35.409  11.543  18.240  0.00  0.00     0.011 A 
HETATM    2  N   UNK N   1      36.504  12.959  14.524  0.00  0.00    -0.343 N 
HETATM    3  C   UNK N   1      35.163  12.908  17.977  0.00  0.00     0.021 A 
HETATM    4  C   UNK N   1      35.504  13.468  16.734  0.00  0.00     0.032 A 
HETATM    5  C   UNK N   1      36.096  12.640  15.782  0.00  0.00     0.046 A 
HETATM    6  C   UNK N   1      36.332  11.307  16.042  0.00  0.00     0.005 A 
HETATM    7  C   UNK N   1      35.998  10.722  17.262  0.00  0.00     0.033 A 
HETATM    8  C   UNK N   1      36.893  10.776  14.906  0.00  0.00     0.005 A 
HETATM    9  C   UNK N   1      36.991  11.810  13.997  0.00  0.00     0.046 A 
HETATM   10  C   UNK N   1      37.505  11.603  12.716  0.00  0.00     0.032 A 
HETATM   11  C   UNK N   1      37.919  10.299  12.379  0.00  0.00     0.021 A 
HETATM   12  C   UNK N   1      37.812   9.243  13.315  0.00  0.00     0.011 A 
HETATM   13  C   UNK N   1      37.295   9.481  14.601  0.00  0.00     0.033 A 
HETATM   14 Br   UNK N   1      38.347   7.480  12.827  0.00  0.00    -0.051 Br
HETATM   15 Br   UNK N   1      34.929  10.809  19.930  0.00  0.00    -0.051 Br
ENDROOT
BRANCH   2  16
HETATM   16  C   UNK N   1      36.395  14.247  13.828  0.00  0.00     0.163 C 
BRANCH  16  17
HETATM   17  C   UNK N   1      35.699  14.161  12.468  0.00  0.00     0.164 C 
BRANCH  17  18
HETATM   18  O   UNK N   1      34.402  13.665  12.609  0.00  0.00    -0.392 OA
HETATM   19  H   UNK N   1      33.592  13.153  12.754  0.00  0.00     0.210 HD
ENDBRANCH  17  18
BRANCH  17  20
HETATM   20  C   UNK N   1      35.667  15.551  11.839  0.00  0.00     0.304 C 
BRANCH  20  21
HETATM   21  N   UNK N   1      36.159  15.533  10.466  0.00  0.00     0.082 N 
HETATM   22  C   UNK N   1      36.965  14.336  10.322  0.00  0.00     0.309 C 
HETATM   23  C   UNK N   1      35.023  15.370   9.571  0.00  0.00     0.309 C 
ENDBRANCH  20  21
ENDBRANCH  17  20
ENDBRANCH  16  17
ENDBRANCH   2  16
TORSDOF 5
ENDMDL
MODEL 2
REMARK VINA RESULT:      -6.1     22.937     25.846
REMARK  5 active torsions:
REMARK  status: ('A' for Active; 'I' for Inactive)
REMARK    1  A    between atoms: N_2  and  C_16 
REMARK    2  A    between atoms: C_17  and  O_3 
REMARK    3  A    between atoms: N_5  and  C_18 
REMARK    4  A    between atoms: C_16  and  C_17 
REMARK    5  A    between atoms: C_17  and  C_18 
ROOT
HETATM    1  C   UNK N   1      30.020  22.661  -4.458  0.00  0.00     0.011 A 
HETATM    2  N   UNK N   1      26.929  23.895  -6.895  0.00  0.00    -0.343 N 
HETATM    3  C   UNK N   1      29.696  21.831  -5.554  0.00  0.00     0.021 A 
HETATM    4  C   UNK N   1      28.658  22.181  -6.433  0.00  0.00     0.032 A 
HETATM    5  C   UNK N   1      27.959  23.361  -6.185  0.00  0.00     0.046 A 
HETATM    6  C   UNK N   1      28.279  24.170  -5.116  0.00  0.00     0.005 A 
HETATM    7  C   UNK N   1      29.308  23.853  -4.232  0.00  0.00     0.033 A 
HETATM    8  C   UNK N   1      27.430  25.249  -5.170  0.00  0.00     0.005 A 
HETATM    9  C   UNK N   1      26.613  25.052  -6.264  0.00  0.00     0.046 A 
HETATM   10  C   UNK N   1      25.639  25.986  -6.620  0.00  0.00     0.032 A 
HETATM   11  C   UNK N   1      25.519  27.143  -5.824  0.00  0.00     0.021 A 
HETATM   12  C   UNK N   1      26.363  27.341  -4.706  0.00  0.00     0.011 A 
HETATM   13  C   UNK N   1      27.333  26.380  -4.367  0.00  0.00     0.033 A 
HETATM   14 Br   UNK N   1      26.207  28.929  -3.663  0.00  0.00    -0.051 Br
HETATM   15 Br   UNK N   1      31.436  22.165  -3.287  0.00  0.00    -0.051 Br
ENDROOT
BRANCH   2  16
HETATM   16  C   UNK N   1      26.310  23.390  -8.127  0.00  0.00     0.163 C 
BRANCH  16  17
HETATM   17  C   UNK N   1      25.431  22.156  -7.921  0.00  0.00     0.164 C 
BRANCH  17  18
HETATM   18  O   UNK N   1      24.099  22.443  -8.228  0.00  0.00    -0.392 OA
HETATM   19  H   UNK N   1      23.180  22.749  -8.274  0.00  0.00     0.210 HD
ENDBRANCH  17  18
BRANCH  17  20
HETATM   20  C   UNK N   1      25.944  21.027  -8.810  0.00  0.00     0.304 C 
BRANCH  20  21
HETATM   21  N   UNK N   1      26.693  21.540  -9.953  0.00  0.00     0.082 N 
HETATM   22  C   UNK N   1      27.992  20.894  -9.931  0.00  0.00     0.309 C 
HETATM   23  C   UNK N   1      26.036  21.093 -11.172  0.00  0.00     0.309 C 
ENDBRANCH  20  21
ENDBRANCH  17  20
ENDBRANCH  16  17
ENDBRANCH   2  16
TORSDOF 5
ENDMDL
MODEL 3
REMARK VINA RESULT:      -6.1      2.919      4.899
REMARK  5 active torsions:
REMARK  status: ('A' for Active; 'I' for Inactive)
REMARK    1  A    between atoms: N_2  and  C_16 
REMARK    2  A    between atoms: C_17  and  O_3 
REMARK    3  A    between atoms: N_5  and  C_18 
REMARK    4  A    between atoms: C_16  and  C_17 
REMARK    5  A    between atoms: C_17  and  C_18 
ROOT
HETATM    1  C   UNK N   1      33.455   9.728  10.684  0.00  0.00     0.011 A 
HETATM    2  N   UNK N   1      35.856  12.841  11.932  0.00  0.00    -0.343 N 
HETATM    3  C   UNK N   1      33.998  10.561   9.681  0.00  0.00     0.021 A 
HETATM    4  C   UNK N   1      34.828  11.641  10.022  0.00  0.00     0.032 A 
HETATM    5  C   UNK N   1      35.088  11.867  11.373  0.00  0.00     0.046 A 
HETATM    6  C   UNK N   1      34.559  11.051  12.349  0.00  0.00     0.005 A 
HETATM    7  C   UNK N   1      33.739   9.967  12.041  0.00  0.00     0.033 A 
HETATM    8  C   UNK N   1      35.022  11.523  13.553  0.00  0.00     0.005 A 
HETATM    9  C   UNK N   1      35.808  12.621  13.268  0.00  0.00     0.046 A 
HETATM   10  C   UNK N   1      36.456  13.331  14.279  0.00  0.00     0.032 A 
HETATM   11  C   UNK N   1      36.284  12.887  15.605  0.00  0.00     0.021 A 
HETATM   12  C   UNK N   1      35.480  11.758  15.890  0.00  0.00     0.011 A 
HETATM   13  C   UNK N   1      34.834  11.064  14.852  0.00  0.00     0.033 A 
HETATM   14 Br   UNK N   1      35.288  11.155  17.688  0.00  0.00    -0.051 Br
HETATM   15 Br   UNK N   1      32.339   8.266  10.192  0.00  0.00    -0.051 Br
ENDROOT
BRANCH   2  16
HETATM   16  C   UNK N   1      36.640  13.885  11.260  0.00  0.00     0.163 C 
BRANCH  16  17
HETATM   17  C   UNK N   1      36.018  15.280  11.340  0.00  0.00     0.164 C 
BRANCH  17  18
HETATM   18  O   UNK N   1      36.923  16.248  10.902  0.00  0.00    -0.392 OA
HETATM   19  H   UNK N   1      37.403  16.978  10.481  0.00  0.00     0.210 HD
ENDBRANCH  17  18
BRANCH  17  20
HETATM   20  C   UNK N   1      34.757  15.311  10.483  0.00  0.00     0.304 C 
BRANCH  20  21
HETATM   21  N   UNK N   1      34.997  15.954   9.195  0.00  0.00     0.082 N 
HETATM   22  C   UNK N   1      34.773  14.949   8.173  0.00  0.00     0.309 C 
HETATM   23  C   UNK N   1      33.980  16.975   8.992  0.00  0.00     0.309 C 
ENDBRANCH  20  21
ENDBRANCH  17  20
ENDBRANCH  16  17
ENDBRANCH   2  16
TORSDOF 5
ENDMDL
MODEL 4
REMARK VINA RESULT:      -6.1      0.726      4.280
REMARK  5 active torsions:
REMARK  status: ('A' for Active; 'I' for Inactive)
REMARK    1  A    between atoms: N_2  and  C_16 
REMARK    2  A    between atoms: C_17  and  O_3 
REMARK    3  A    between atoms: N_5  and  C_18 
REMARK    4  A    between atoms: C_16  and  C_17 
REMARK    5  A    between atoms: C_17  and  C_18 
ROOT
HETATM    1  C   UNK N   1      37.998   8.667  14.043  0.00  0.00     0.011 A 
HETATM    2  N   UNK N   1      36.459  12.464  14.519  0.00  0.00    -0.343 N 
HETATM    3  C   UNK N   1      38.099   9.543  12.939  0.00  0.00     0.021 A 
HETATM    4  C   UNK N   1      37.601  10.854  13.021  0.00  0.00     0.032 A 
HETATM    5  C   UNK N   1      37.003  11.255  14.213  0.00  0.00     0.046 A 
HETATM    6  C   UNK N   1      36.909  10.399  15.290  0.00  0.00     0.005 A 
HETATM    7  C   UNK N   1      37.400   9.096  15.242  0.00  0.00     0.033 A 
HETATM    8  C   UNK N   1      36.299  11.100  16.301  0.00  0.00     0.005 A 
HETATM    9  C   UNK N   1      36.031  12.358  15.799  0.00  0.00     0.046 A 
HETATM   10  C   UNK N   1      35.426  13.339  16.587  0.00  0.00     0.032 A 
HETATM   11  C   UNK N   1      35.100  13.003  17.916  0.00  0.00     0.021 A 
HETATM   12  C   UNK N   1      35.382  11.713  18.425  0.00  0.00     0.011 A 
HETATM   13  C   UNK N   1      35.988  10.742  17.607  0.00  0.00     0.033 A 
HETATM   14 Br   UNK N   1      34.963  11.291  20.236  0.00  0.00    -0.051 Br
HETATM   15 Br   UNK N   1      38.688   6.898  13.906  0.00  0.00    -0.051 Br
ENDROOT
BRANCH   2  16
HETATM   16  C   UNK N   1      36.393  13.672  13.687  0.00  0.00     0.163 C 
BRANCH  16  17
HETATM   17  C   UNK N   1      35.683  13.468  12.348  0.00  0.00     0.164 C 
BRANCH  17  18
HETATM   18  O   UNK N   1      34.304  13.639  12.491  0.00  0.00    -0.392 OA
HETATM   19  H   UNK N   1      33.397  13.937  12.657  0.00  0.00     0.210 HD
ENDBRANCH  17  18
BRANCH  17  20
HETATM   20  C   UNK N   1      36.235  14.467  11.335  0.00  0.00     0.304 C 
BRANCH  20  21
HETATM   21  N   UNK N   1      35.170  15.231  10.696  0.00  0.00     0.082 N 
HETATM   22  C   UNK N   1      35.449  16.633  10.942  0.00  0.00     0.309 C 
HETATM   23  C   UNK N   1      35.267  15.042   9.256  0.00  0.00     0.309 C 
ENDBRANCH  20  21
ENDBRANCH  17  20
ENDBRANCH  16  17
ENDBRANCH   2  16
TORSDOF 5
ENDMDL
MODEL 5
REMARK VINA RESULT:      -6.0     21.662     24.630
REMARK  5 active torsions:
REMARK  status: ('A' for Active; 'I' for Inactive)
REMARK    1  A    between atoms: N_2  and  C_16 
REMARK    2  A    between atoms: C_17  and  O_3 
REMARK    3  A    between atoms: N_5  and  C_18 
REMARK    4  A    between atoms: C_16  and  C_17 
REMARK    5  A    between atoms: C_17  and  C_18 
ROOT
HETATM    1  C   UNK N   1      26.921  22.145  -8.631  0.00  0.00     0.011 A 
HETATM    2  N   UNK N   1      28.365  23.929  -5.204  0.00  0.00    -0.343 N 
HETATM    3  C   UNK N   1      26.282  23.331  -8.208  0.00  0.00     0.021 A 
HETATM    4  C   UNK N   1      26.715  24.001  -7.052  0.00  0.00     0.032 A 
HETATM    5  C   UNK N   1      27.781  23.457  -6.339  0.00  0.00     0.046 A 
HETATM    6  C   UNK N   1      28.404  22.300  -6.756  0.00  0.00     0.005 A 
HETATM    7  C   UNK N   1      28.003  21.617  -7.902  0.00  0.00     0.033 A 
HETATM    8  C   UNK N   1      29.416  22.051  -5.861  0.00  0.00     0.005 A 
HETATM    9  C   UNK N   1      29.365  23.060  -4.920  0.00  0.00     0.046 A 
HETATM   10  C   UNK N   1      30.280  23.118  -3.868  0.00  0.00     0.032 A 
HETATM   11  C   UNK N   1      31.264  22.111  -3.800  0.00  0.00     0.021 A 
HETATM   12  C   UNK N   1      31.313  21.082  -4.770  0.00  0.00     0.011 A 
HETATM   13  C   UNK N   1      30.374  21.045  -5.817  0.00  0.00     0.033 A 
HETATM   14 Br   UNK N   1      32.673  19.750  -4.677  0.00  0.00    -0.051 Br
HETATM   15 Br   UNK N   1      26.318  21.261 -10.206  0.00  0.00    -0.051 Br
ENDROOT
BRANCH   2  16
HETATM   16  C   UNK N   1      28.050  25.153  -4.456  0.00  0.00     0.163 C 
BRANCH  16  17
HETATM   17  C   UNK N   1      26.679  25.133  -3.779  0.00  0.00     0.164 C 
BRANCH  17  18
HETATM   18  O   UNK N   1      26.691  24.291  -2.666  0.00  0.00    -0.392 OA
HETATM   19  H   UNK N   1      26.690  23.875  -1.790  0.00  0.00     0.210 HD
ENDBRANCH  17  18
BRANCH  17  20
HETATM   20  C   UNK N   1      26.312  26.554  -3.362  0.00  0.00     0.304 C 
BRANCH  20  21
HETATM   21  N   UNK N   1      26.267  27.458  -4.506  0.00  0.00     0.082 N 
HETATM   22  C   UNK N   1      25.066  27.137  -5.252  0.00  0.00     0.309 C 
HETATM   23  C   UNK N   1      26.091  28.816  -4.013  0.00  0.00     0.309 C 
ENDBRANCH  20  21
ENDBRANCH  17  20
ENDBRANCH  16  17
ENDBRANCH   2  16
TORSDOF 5
ENDMDL
MODEL 6
REMARK VINA RESULT:      -6.0      2.983      3.686
REMARK  5 active torsions:
REMARK  status: ('A' for Active; 'I' for Inactive)
REMARK    1  A    between atoms: N_2  and  C_16 
REMARK    2  A    between atoms: C_17  and  O_3 
REMARK    3  A    between atoms: N_5  and  C_18 
REMARK    4  A    between atoms: C_16  and  C_17 
REMARK    5  A    between atoms: C_17  and  C_18 
ROOT
HETATM    1  C   UNK N   1      35.457  12.461  15.559  0.00  0.00     0.011 A 
HETATM    2  N   UNK N   1      35.661  13.309  11.527  0.00  0.00    -0.343 N 
HETATM    3  C   UNK N   1      36.123  13.650  15.187  0.00  0.00     0.021 A 
HETATM    4  C   UNK N   1      36.234  14.012  13.834  0.00  0.00     0.032 A 
HETATM    5  C   UNK N   1      35.677  13.162  12.880  0.00  0.00     0.046 A 
HETATM    6  C   UNK N   1      35.026  12.004  13.247  0.00  0.00     0.005 A 
HETATM    7  C   UNK N   1      34.893  11.623  14.581  0.00  0.00     0.033 A 
HETATM    8  C   UNK N   1      34.579  11.418  12.088  0.00  0.00     0.005 A 
HETATM    9  C   UNK N   1      34.986  12.235  11.053  0.00  0.00     0.046 A 
HETATM   10  C   UNK N   1      34.672  11.934   9.726  0.00  0.00     0.032 A 
HETATM   11  C   UNK N   1      33.921  10.768   9.478  0.00  0.00     0.021 A 
HETATM   12  C   UNK N   1      33.503   9.938  10.545  0.00  0.00     0.011 A 
HETATM   13  C   UNK N   1      33.838  10.261  11.872  0.00  0.00     0.033 A 
HETATM   14 Br   UNK N   1      32.459   8.383  10.190  0.00  0.00    -0.051 Br
HETATM   15 Br   UNK N   1      35.316  11.999  17.401  0.00  0.00    -0.051 Br
ENDROOT
BRANCH   2  16
HETATM   16  C   UNK N   1      36.192  14.416  10.722  0.00  0.00     0.163 C 
BRANCH  16  17
HETATM   17  C   UNK N   1      35.388  15.712  10.841  0.00  0.00     0.164 C 
BRANCH  17  18
HETATM   18  O   UNK N   1      36.214  16.822  10.652  0.00  0.00    -0.392 OA
HETATM   19  H   UNK N   1      36.933  17.458  10.515  0.00  0.00     0.210 HD
ENDBRANCH  17  18
BRANCH  17  20
HETATM   20  C   UNK N   1      34.274  15.702   9.800  0.00  0.00     0.304 C 
BRANCH  20  21
HETATM   21  N   UNK N   1      34.522  16.668   8.735  0.00  0.00     0.082 N 
HETATM   22  C   UNK N   1      34.678  15.913   7.507  0.00  0.00     0.309 C 
HETATM   23  C   UNK N   1      33.327  17.483   8.564  0.00  0.00     0.309 C 
ENDBRANCH  20  21
ENDBRANCH  17  20
ENDBRANCH  16  17
ENDBRANCH   2  16
TORSDOF 5
ENDMDL
MODEL 7
REMARK VINA RESULT:      -5.9     14.801     17.148
REMARK  5 active torsions:
REMARK  status: ('A' for Active; 'I' for Inactive)
REMARK    1  A    between atoms: N_2  and  C_16 
REMARK    2  A    between atoms: C_17  and  O_3 
REMARK    3  A    between atoms: N_5  and  C_18 
REMARK    4  A    between atoms: C_16  and  C_17 
REMARK    5  A    between atoms: C_17  and  C_18 
ROOT
HETATM    1  C   UNK N   1      25.239  15.411   5.496  0.00  0.00     0.011 A 
HETATM    2  N   UNK N   1      21.370  15.733   6.890  0.00  0.00    -0.343 N 
HETATM    3  C   UNK N   1      24.376  16.281   4.795  0.00  0.00     0.021 A 
HETATM    4  C   UNK N   1      23.043  16.449   5.207  0.00  0.00     0.032 A 
HETATM    5  C   UNK N   1      22.604  15.728   6.316  0.00  0.00     0.046 A 
HETATM    6  C   UNK N   1      23.450  14.881   6.999  0.00  0.00     0.005 A 
HETATM    7  C   UNK N   1      24.778  14.699   6.619  0.00  0.00     0.033 A 
HETATM    8  C   UNK N   1      22.725  14.352   8.038  0.00  0.00     0.005 A 
HETATM    9  C   UNK N   1      21.456  14.886   7.944  0.00  0.00     0.046 A 
HETATM   10  C   UNK N   1      20.464  14.568   8.872  0.00  0.00     0.032 A 
HETATM   11  C   UNK N   1      20.802  13.682   9.915  0.00  0.00     0.021 A 
HETATM   12  C   UNK N   1      22.106  13.141  10.008  0.00  0.00     0.011 A 
HETATM   13  C   UNK N   1      23.085  13.475   9.056  0.00  0.00     0.033 A 
HETATM   14 Br   UNK N   1      22.552  11.971  11.446  0.00  0.00    -0.051 Br
HETATM   15 Br   UNK N   1      27.042  15.208   4.919  0.00  0.00    -0.051 Br
ENDROOT
BRANCH   2  16
HETATM   16  C   UNK N   1      20.192  16.526   6.516  0.00  0.00     0.163 C 
BRANCH  16  17
HETATM   17  C   UNK N   1      19.292  15.852   5.479  0.00  0.00     0.164 C 
BRANCH  17  18
HETATM   18  O   UNK N   1      17.955  15.911   5.875  0.00  0.00    -0.392 OA
HETATM   19  H   UNK N   1      17.021  15.764   6.091  0.00  0.00     0.210 HD
ENDBRANCH  17  18
BRANCH  17  20
HETATM   20  C   UNK N   1      19.475  16.551   4.135  0.00  0.00     0.304 C 
BRANCH  20  21
HETATM   21  N   UNK N   1      20.259  15.741   3.209  0.00  0.00     0.082 N 
HETATM   22  C   UNK N   1      19.528  14.506   3.003  0.00  0.00     0.309 C 
HETATM   23  C   UNK N   1      20.291  16.417   1.920  0.00  0.00     0.309 C 
ENDBRANCH  20  21
ENDBRANCH  17  20
ENDBRANCH  16  17
ENDBRANCH   2  16
TORSDOF 5
ENDMDL
MODEL 8
REMARK VINA RESULT:      -5.9     24.288     27.587
REMARK  5 active torsions:
REMARK  status: ('A' for Active; 'I' for Inactive)
REMARK    1  A    between atoms: N_2  and  C_16 
REMARK    2  A    between atoms: C_17  and  O_3 
REMARK    3  A    between atoms: N_5  and  C_18 
REMARK    4  A    between atoms: C_16  and  C_17 
REMARK    5  A    between atoms: C_17  and  C_18 
ROOT
HETATM    1  C   UNK N   1      29.327  28.054  -9.420  0.00  0.00     0.011 A 
HETATM    2  N   UNK N   1      26.490  26.368  -6.946  0.00  0.00    -0.343 N 
HETATM    3  C   UNK N   1      28.774  26.820  -9.826  0.00  0.00     0.021 A 
HETATM    4  C   UNK N   1      27.800  26.181  -9.041  0.00  0.00     0.032 A 
HETATM    5  C   UNK N   1      27.408  26.796  -7.854  0.00  0.00     0.046 A 
HETATM    6  C   UNK N   1      27.948  28.002  -7.462  0.00  0.00     0.005 A 
HETATM    7  C   UNK N   1      28.909  28.663  -8.223  0.00  0.00     0.033 A 
HETATM    8  C   UNK N   1      27.338  28.342  -6.279  0.00  0.00     0.005 A 
HETATM    9  C   UNK N   1      26.455  27.322  -5.985  0.00  0.00     0.046 A 
HETATM   10  C   UNK N   1      25.650  27.366  -4.846  0.00  0.00     0.032 A 
HETATM   11  C   UNK N   1      25.765  28.490  -4.005  0.00  0.00     0.021 A 
HETATM   12  C   UNK N   1      26.669  29.534  -4.314  0.00  0.00     0.011 A 
HETATM   13  C   UNK N   1      27.472  29.462  -5.466  0.00  0.00     0.033 A 
HETATM   14 Br   UNK N   1      26.784  31.062  -3.180  0.00  0.00    -0.051 Br
HETATM   15 Br   UNK N   1      30.640  28.901 -10.508  0.00  0.00    -0.051 Br
ENDROOT
BRANCH   2  16
HETATM   16  C   UNK N   1      25.647  25.167  -6.996  0.00  0.00     0.163 C 
BRANCH  16  17
HETATM   17  C   UNK N   1      26.084  24.059  -6.036  0.00  0.00     0.164 C 
BRANCH  17  18
HETATM   18  O   UNK N   1      25.312  22.911  -6.225  0.00  0.00    -0.392 OA
HETATM   19  H   UNK N   1      24.948  22.020  -6.337  0.00  0.00     0.210 HD
ENDBRANCH  17  18
BRANCH  17  20
HETATM   20  C   UNK N   1      27.558  23.747  -6.277  0.00  0.00     0.304 C 
BRANCH  20  21
HETATM   21  N   UNK N   1      28.298  23.641  -5.024  0.00  0.00     0.082 N 
HETATM   22  C   UNK N   1      29.478  24.475  -5.157  0.00  0.00     0.309 C 
HETATM   23  C   UNK N   1      27.497  24.235  -3.964  0.00  0.00     0.309 C 
ENDBRANCH  20  21
ENDBRANCH  17  20
ENDBRANCH  16  17
ENDBRANCH   2  16
TORSDOF 5
ENDMDL
MODEL 9
REMARK VINA RESULT:      -5.8     21.659     24.483
REMARK  5 active torsions:
REMARK  status: ('A' for Active; 'I' for Inactive)
REMARK    1  A    between atoms: N_2  and  C_16 
REMARK    2  A    between atoms: C_17  and  O_3 
REMARK    3  A    between atoms: N_5  and  C_18 
REMARK    4  A    between atoms: C_16  and  C_17 
REMARK    5  A    between atoms: C_17  and  C_18 
ROOT
HETATM    1  C   UNK N   1      31.157  22.360  -3.978  0.00  0.00     0.011 A 
HETATM    2  N   UNK N   1      27.530  24.303  -4.271  0.00  0.00    -0.343 N 
HETATM    3  C   UNK N   1      30.768  23.161  -2.881  0.00  0.00     0.021 A 
HETATM    4  C   UNK N   1      29.547  23.853  -2.901  0.00  0.00     0.032 A 
HETATM    5  C   UNK N   1      28.742  23.732  -4.033  0.00  0.00     0.046 A 
HETATM    6  C   UNK N   1      29.123  22.947  -5.100  0.00  0.00     0.005 A 
HETATM    7  C   UNK N   1      30.325  22.243  -5.106  0.00  0.00     0.033 A 
HETATM    8  C   UNK N   1      28.112  23.022  -6.027  0.00  0.00     0.005 A 
HETATM    9  C   UNK N   1      27.154  23.861  -5.495  0.00  0.00     0.046 A 
HETATM   10  C   UNK N   1      25.971  24.138  -6.182  0.00  0.00     0.032 A 
HETATM   11  C   UNK N   1      25.784  23.526  -7.438  0.00  0.00     0.021 A 
HETATM   12  C   UNK N   1      26.768  22.664  -7.975  0.00  0.00     0.011 A 
HETATM   13  C   UNK N   1      27.954  22.407  -7.263  0.00  0.00     0.033 A 
HETATM   14 Br   UNK N   1      26.480  21.821  -9.660  0.00  0.00    -0.051 Br
HETATM   15 Br   UNK N   1      32.815  21.426  -3.920  0.00  0.00    -0.051 Br
ENDROOT
BRANCH   2  16
HETATM   16  C   UNK N   1      26.737  25.165  -3.386  0.00  0.00     0.163 C 
BRANCH  16  17
HETATM   17  C   UNK N   1      26.640  26.618  -3.856  0.00  0.00     0.164 C 
BRANCH  17  18
HETATM   18  O   UNK N   1      25.873  27.372  -2.966  0.00  0.00    -0.392 OA
HETATM   19  H   UNK N   1      25.488  27.861  -2.223  0.00  0.00     0.210 HD
ENDBRANCH  17  18
BRANCH  17  20
HETATM   20  C   UNK N   1      28.046  27.200  -3.963  0.00  0.00     0.304 C 
BRANCH  20  21
HETATM   21  N   UNK N   1      28.285  27.794  -5.274  0.00  0.00     0.082 N 
HETATM   22  C   UNK N   1      29.248  26.948  -5.952  0.00  0.00     0.309 C 
HETATM   23  C   UNK N   1      27.055  27.712  -6.048  0.00  0.00     0.309 C 
ENDBRANCH  20  21
ENDBRANCH  17  20
ENDBRANCH  16  17
ENDBRANCH   2  16
TORSDOF 5
ENDMDL
