REMARK  5 active torsions:
REMARK  status: ('A' for Active; 'I' for Inactive)
REMARK    1  A    between atoms: N_2  and  C_16 
REMARK    2  A    between atoms: C_17  and  O_3 
REMARK    3  A    between atoms: N_5  and  C_18 
REMARK    4  A    between atoms: C_16  and  C_17 
REMARK    5  A    between atoms: C_17  and  C_18 
ROOT
HETATM    1  C   UNK N   1       3.002  -3.898   0.007  0.00  0.00     0.011 A 
HETATM    2  N   UNK N   1       1.837   0.038  -0.400  0.00  0.00    -0.343 N 
HETATM    3  C   UNK N   1       1.636  -3.658  -0.260  0.00  0.00     0.021 A 
HETATM    4  C   UNK N   1       1.159  -2.346  -0.415  0.00  0.00     0.032 A 
HETATM    5  C   UNK N   1       2.069  -1.298  -0.289  0.00  0.00     0.046 A 
HETATM    6  C   UNK N   1       3.402  -1.536  -0.031  0.00  0.00     0.005 A 
HETATM    7  C   UNK N   1       3.906  -2.826   0.120  0.00  0.00     0.033 A 
HETATM    8  C   UNK N   1       4.022  -0.311   0.007  0.00  0.00     0.005 A 
HETATM    9  C   UNK N   1       3.040   0.633  -0.217  0.00  0.00     0.046 A 
HETATM   10  C   UNK N   1       3.341   1.995  -0.264  0.00  0.00     0.032 A 
HETATM   11  C   UNK N   1       4.685   2.376  -0.079  0.00  0.00     0.021 A 
HETATM   12  C   UNK N   1       5.687   1.403   0.146  0.00  0.00     0.011 A 
HETATM   13  C   UNK N   1       5.355   0.037   0.194  0.00  0.00     0.033 A 
HETATM   14 Br   UNK N   1       7.504   1.938   0.361  0.00  0.00    -0.051 Br
HETATM   15 Br   UNK N   1       3.622  -5.687   0.205  0.00  0.00    -0.051 Br
ENDROOT
BRANCH   2  16
HETATM   16  C   UNK N   1       0.578   0.723  -0.718  0.00  0.00     0.163 C 
BRANCH  16  17
HETATM   17  C   UNK N   1      -0.619   0.237   0.101  0.00  0.00     0.164 C 
BRANCH  17  18
HETATM   18  O   UNK N   1      -0.361   0.356   1.468  0.00  0.00    -0.392 OA
HETATM   19  H   UNK N   1      -0.200   0.242   2.417  0.00  0.00     0.210 HD
ENDBRANCH  17  18
BRANCH  17  20
HETATM   20  C   UNK N   1      -1.846   1.061  -0.277  0.00  0.00     0.304 C 
BRANCH  20  21
HETATM   21  N   UNK N   1      -3.054   0.555   0.366  0.00  0.00     0.082 N 
HETATM   22  C   UNK N   1      -4.081   1.564   0.190  0.00  0.00     0.309 C 
HETATM   23  C   UNK N   1      -3.507  -0.620  -0.364  0.00  0.00     0.309 C 
ENDBRANCH  20  21
ENDBRANCH  17  20
ENDBRANCH  16  17
ENDBRANCH   2  16
TORSDOF 5
