MODEL 1
REMARK VINA RESULT:      -6.2      0.000      0.000
REMARK  4 active torsions:
REMARK  status: ('A' for Active; 'I' for Inactive)
REMARK    1  A    between atoms: C_2  and  O_4 
REMARK    2  A    between atoms: O_4  and  C_12 
REMARK    3  A    between atoms: C_12  and  C_16 
REMARK    4  A    between atoms: O_13  and  C_17 
ROOT
HETATM    1  C   UNK N   1      29.747  17.799   8.985  0.00  0.00     0.017 A 
HETATM    2  C   UNK N   1      32.165  17.905   8.757  0.00  0.00     0.038 A 
HETATM    3  C   UNK N   1      29.541  17.298   6.233  0.00  0.00     0.074 A 
HETATM    4  O   UNK N   1      31.887  17.410   6.063  0.00  0.00    -0.274 OA
HETATM    5  C   UNK N   1      30.901  17.729   8.198  0.00  0.00    -0.001 A 
HETATM    6  C   UNK N   1      30.797  17.478   6.816  0.00  0.00     0.092 A 
HETATM    7  C   UNK N   1      33.109  17.572   6.558  0.00  0.00     0.304 A 
HETATM    8  O   UNK N   1      34.063  17.496   5.803  0.00  0.00    -0.259 OA
HETATM    9  C   UNK N   1      28.490  17.617   8.393  0.00  0.00     0.037 A 
HETATM   10  C   UNK N   1      33.298  17.828   7.937  0.00  0.00     0.115 A 
HETATM   11  C   UNK N   1      28.388  17.368   7.019  0.00  0.00     0.068 A 
ENDROOT
BRANCH  10  12
HETATM   12  C   UNK N   1      34.656  18.013   8.517  0.00  0.00     0.299 C 
HETATM   13  O   UNK N   1      35.222  19.095   8.423  0.00  0.00    -0.259 OA
BRANCH  12  14
HETATM   14  O   UNK N   1      35.257  16.975   9.148  0.00  0.00    -0.318 OA
BRANCH  14  15
HETATM   15  C   UNK N   1      35.305  16.832  10.512  0.00  0.00     0.174 C 
HETATM   16  C   UNK N   1      34.729  15.477  10.875  0.00  0.00     0.034 C 
ENDBRANCH  14  15
ENDBRANCH  12  14
ENDBRANCH  10  12
BRANCH  11  17
HETATM   17  O   UNK N   1      27.184  17.194   6.453  0.00  0.00    -0.361 OA
HETATM   18  H   UNK N   1      26.455  17.712   6.734  0.00  0.00     0.217 HD
ENDBRANCH  11  17
TORSDOF 4
ENDMDL
MODEL 2
REMARK VINA RESULT:      -6.1      2.100      3.218
REMARK  4 active torsions:
REMARK  status: ('A' for Active; 'I' for Inactive)
REMARK    1  A    between atoms: C_2  and  O_4 
REMARK    2  A    between atoms: O_4  and  C_12 
REMARK    3  A    between atoms: C_12  and  C_16 
REMARK    4  A    between atoms: O_13  and  C_17 
ROOT
HETATM    1  C   UNK N   1      33.062  17.006   3.826  0.00  0.00     0.017 A 
HETATM    2  C   UNK N   1      33.736  17.565   6.094  0.00  0.00     0.038 A 
HETATM    3  C   UNK N   1      30.403  16.813   4.698  0.00  0.00     0.074 A 
HETATM    4  O   UNK N   1      31.105  17.357   6.879  0.00  0.00    -0.274 OA
HETATM    5  C   UNK N   1      32.747  17.237   5.170  0.00  0.00    -0.001 A 
HETATM    6  C   UNK N   1      31.411  17.140   5.607  0.00  0.00     0.092 A 
HETATM    7  C   UNK N   1      32.019  17.672   7.791  0.00  0.00     0.304 A 
HETATM    8  O   UNK N   1      31.660  17.857   8.942  0.00  0.00    -0.259 OA
HETATM    9  C   UNK N   1      32.044  16.679   2.921  0.00  0.00     0.037 A 
HETATM   10  C   UNK N   1      33.383  17.789   7.432  0.00  0.00     0.115 A 
HETATM   11  C   UNK N   1      30.717  16.582   3.357  0.00  0.00     0.068 A 
ENDROOT
BRANCH  10  12
HETATM   12  C   UNK N   1      34.425  18.140   8.433  0.00  0.00     0.299 C 
HETATM   13  O   UNK N   1      35.067  19.176   8.316  0.00  0.00    -0.259 OA
BRANCH  12  14
HETATM   14  O   UNK N   1      34.657  17.302   9.474  0.00  0.00    -0.318 OA
BRANCH  14  15
HETATM   15  C   UNK N   1      34.985  15.976   9.332  0.00  0.00     0.174 C 
HETATM   16  C   UNK N   1      34.037  15.152  10.179  0.00  0.00     0.034 C 
ENDBRANCH  14  15
ENDBRANCH  12  14
ENDBRANCH  10  12
BRANCH  11  17
HETATM   17  O   UNK N   1      29.744  16.268   2.488  0.00  0.00    -0.361 OA
HETATM   18  H   UNK N   1      29.536  16.853   1.786  0.00  0.00     0.217 HD
ENDBRANCH  11  17
TORSDOF 4
ENDMDL
MODEL 3
REMARK VINA RESULT:      -6.0     12.842     15.510
REMARK  4 active torsions:
REMARK  status: ('A' for Active; 'I' for Inactive)
REMARK    1  A    between atoms: C_2  and  O_4 
REMARK    2  A    between atoms: O_4  and  C_12 
REMARK    3  A    between atoms: C_12  and  C_16 
REMARK    4  A    between atoms: O_13  and  C_17 
ROOT
HETATM    1  C   UNK N   1      30.502  22.081  -5.168  0.00  0.00     0.017 A 
HETATM    2  C   UNK N   1      28.419  23.287  -5.513  0.00  0.00     0.038 A 
HETATM    3  C   UNK N   1      30.346  22.658  -2.428  0.00  0.00     0.074 A 
HETATM    4  O   UNK N   1      28.332  23.816  -2.812  0.00  0.00    -0.274 OA
HETATM    5  C   UNK N   1      29.426  22.823  -4.669  0.00  0.00    -0.001 A 
HETATM    6  C   UNK N   1      29.349  23.113  -3.293  0.00  0.00     0.092 A 
HETATM    7  C   UNK N   1      27.352  24.276  -3.583  0.00  0.00     0.304 A 
HETATM    8  O   UNK N   1      26.451  24.915  -3.069  0.00  0.00    -0.259 OA
HETATM    9  C   UNK N   1      31.498  21.629  -4.294  0.00  0.00     0.037 A 
HETATM   10  C   UNK N   1      27.357  24.027  -4.977  0.00  0.00     0.115 A 
HETATM   11  C   UNK N   1      31.420  21.917  -2.926  0.00  0.00     0.068 A 
ENDROOT
BRANCH  10  12
HETATM   12  C   UNK N   1      26.273  24.531  -5.862  0.00  0.00     0.299 C 
HETATM   13  O   UNK N   1      25.244  23.884  -6.002  0.00  0.00    -0.259 OA
BRANCH  12  14
HETATM   14  O   UNK N   1      26.437  25.711  -6.510  0.00  0.00    -0.318 OA
BRANCH  14  15
HETATM   15  C   UNK N   1      26.274  26.938  -5.918  0.00  0.00     0.174 C 
HETATM   16  C   UNK N   1      24.798  27.146  -5.641  0.00  0.00     0.034 C 
ENDBRANCH  14  15
ENDBRANCH  12  14
ENDBRANCH  10  12
BRANCH  11  17
HETATM   17  O   UNK N   1      32.376  21.483  -2.090  0.00  0.00    -0.361 OA
HETATM   18  H   UNK N   1      33.157  21.987  -1.969  0.00  0.00     0.217 HD
ENDBRANCH  11  17
TORSDOF 4
ENDMDL
MODEL 4
REMARK VINA RESULT:      -6.0      2.256      6.036
REMARK  4 active torsions:
REMARK  status: ('A' for Active; 'I' for Inactive)
REMARK    1  A    between atoms: C_2  and  O_4 
REMARK    2  A    between atoms: O_4  and  C_12 
REMARK    3  A    between atoms: C_12  and  C_16 
REMARK    4  A    between atoms: O_13  and  C_17 
ROOT
HETATM    1  C   UNK N   1      34.527  14.149  10.144  0.00  0.00     0.017 A 
HETATM    2  C   UNK N   1      33.971  15.777   8.426  0.00  0.00     0.038 A 
HETATM    3  C   UNK N   1      35.930  16.140  11.532  0.00  0.00     0.074 A 
HETATM    4  O   UNK N   1      35.366  17.681   9.843  0.00  0.00    -0.274 OA
HETATM    5  C   UNK N   1      34.593  15.447   9.627  0.00  0.00    -0.001 A 
HETATM    6  C   UNK N   1      35.299  16.447  10.326  0.00  0.00     0.092 A 
HETATM    7  C   UNK N   1      34.786  18.035   8.702  0.00  0.00     0.304 A 
HETATM    8  O   UNK N   1      34.892  19.189   8.322  0.00  0.00    -0.259 OA
HETATM    9  C   UNK N   1      35.164  13.849  11.355  0.00  0.00     0.037 A 
HETATM   10  C   UNK N   1      34.059  17.089   7.941  0.00  0.00     0.115 A 
HETATM   11  C   UNK N   1      35.864  14.844  12.048  0.00  0.00     0.068 A 
ENDROOT
BRANCH  10  12
HETATM   12  C   UNK N   1      33.401  17.459   6.660  0.00  0.00     0.299 C 
HETATM   13  O   UNK N   1      34.076  17.683   5.663  0.00  0.00    -0.259 OA
BRANCH  12  14
HETATM   14  O   UNK N   1      32.048  17.546   6.607  0.00  0.00    -0.318 OA
BRANCH  14  15
HETATM   15  C   UNK N   1      31.280  16.950   5.638  0.00  0.00     0.174 C 
HETATM   16  C   UNK N   1      31.259  15.456   5.892  0.00  0.00     0.034 C 
ENDBRANCH  14  15
ENDBRANCH  12  14
ENDBRANCH  10  12
BRANCH  11  17
HETATM   17  O   UNK N   1      36.474  14.555  13.208  0.00  0.00    -0.361 OA
HETATM   18  H   UNK N   1      36.065  13.974  13.820  0.00  0.00     0.217 HD
ENDBRANCH  11  17
TORSDOF 4
ENDMDL
MODEL 5
REMARK VINA RESULT:      -5.9      7.091     10.267
REMARK  4 active torsions:
REMARK  status: ('A' for Active; 'I' for Inactive)
REMARK    1  A    between atoms: C_2  and  O_4 
REMARK    2  A    between atoms: O_4  and  C_12 
REMARK    3  A    between atoms: C_12  and  C_16 
REMARK    4  A    between atoms: O_13  and  C_17 
ROOT
HETATM    1  C   UNK N   1      21.010  17.523   3.979  0.00  0.00     0.017 A 
HETATM    2  C   UNK N   1      23.257  18.445   4.084  0.00  0.00     0.038 A 
HETATM    3  C   UNK N   1      20.245  19.659   2.330  0.00  0.00     0.074 A 
HETATM    4  O   UNK N   1      22.436  20.512   2.462  0.00  0.00    -0.274 OA
HETATM    5  C   UNK N   1      21.943  18.505   3.628  0.00  0.00    -0.001 A 
HETATM    6  C   UNK N   1      21.557  19.577   2.799  0.00  0.00     0.092 A 
HETATM    7  C   UNK N   1      23.698  20.491   2.876  0.00  0.00     0.304 A 
HETATM    8  O   UNK N   1      24.447  21.386   2.523  0.00  0.00    -0.259 OA
HETATM    9  C   UNK N   1      19.695  17.612   3.504  0.00  0.00     0.037 A 
HETATM   10  C   UNK N   1      24.163  19.447   3.711  0.00  0.00     0.115 A 
HETATM   11  C   UNK N   1      19.314  18.679   2.681  0.00  0.00     0.068 A 
ENDROOT
BRANCH  10  12
HETATM   12  C   UNK N   1      25.571  19.399   4.188  0.00  0.00     0.299 C 
HETATM   13  O   UNK N   1      26.395  18.706   3.606  0.00  0.00    -0.259 OA
BRANCH  12  14
HETATM   14  O   UNK N   1      25.931  20.130   5.273  0.00  0.00    -0.318 OA
BRANCH  14  15
HETATM   15  C   UNK N   1      27.054  20.918   5.326  0.00  0.00     0.174 C 
HETATM   16  C   UNK N   1      27.764  20.656   6.639  0.00  0.00     0.034 C 
ENDBRANCH  14  15
ENDBRANCH  12  14
ENDBRANCH  10  12
BRANCH  11  17
HETATM   17  O   UNK N   1      18.054  18.762   2.227  0.00  0.00    -0.361 OA
HETATM   18  H   UNK N   1      17.758  18.177   1.557  0.00  0.00     0.217 HD
ENDBRANCH  11  17
TORSDOF 4
ENDMDL
MODEL 6
REMARK VINA RESULT:      -5.6      9.814     11.659
REMARK  4 active torsions:
REMARK  status: ('A' for Active; 'I' for Inactive)
REMARK    1  A    between atoms: C_2  and  O_4 
REMARK    2  A    between atoms: O_4  and  C_12 
REMARK    3  A    between atoms: C_12  and  C_16 
REMARK    4  A    between atoms: O_13  and  C_17 
ROOT
HETATM    1  C   UNK N   1      24.376  12.593  10.189  0.00  0.00     0.017 A 
HETATM    2  C   UNK N   1      23.470  13.529   8.136  0.00  0.00     0.038 A 
HETATM    3  C   UNK N   1      21.762  12.209  11.130  0.00  0.00     0.074 A 
HETATM    4  O   UNK N   1      20.932  13.123   9.125  0.00  0.00    -0.274 OA
HETATM    5  C   UNK N   1      23.285  12.966   9.396  0.00  0.00    -0.001 A 
HETATM    6  C   UNK N   1      21.972  12.772   9.871  0.00  0.00     0.092 A 
HETATM    7  C   UNK N   1      21.067  13.663   7.918  0.00  0.00     0.304 A 
HETATM    8  O   UNK N   1      20.063  13.959   7.293  0.00  0.00    -0.259 OA
HETATM    9  C   UNK N   1      24.157  12.029  11.452  0.00  0.00     0.037 A 
HETATM   10  C   UNK N   1      22.352  13.889   7.371  0.00  0.00     0.115 A 
HETATM   11  C   UNK N   1      22.852  11.838  11.922  0.00  0.00     0.068 A 
ENDROOT
BRANCH  10  12
HETATM   12  C   UNK N   1      22.530  14.492   6.023  0.00  0.00     0.299 C 
HETATM   13  O   UNK N   1      22.602  13.776   5.033  0.00  0.00    -0.259 OA
BRANCH  12  14
HETATM   14  O   UNK N   1      22.612  15.841   5.903  0.00  0.00    -0.318 OA
BRANCH  14  15
HETATM   15  C   UNK N   1      21.582  16.634   5.462  0.00  0.00     0.174 C 
HETATM   16  C   UNK N   1      21.238  17.627   6.554  0.00  0.00     0.034 C 
ENDBRANCH  14  15
ENDBRANCH  12  14
ENDBRANCH  10  12
BRANCH  11  17
HETATM   17  O   UNK N   1      22.644  11.297  13.132  0.00  0.00    -0.361 OA
HETATM   18  H   UNK N   1      22.241  10.454  13.206  0.00  0.00     0.217 HD
ENDBRANCH  11  17
TORSDOF 4
ENDMDL
MODEL 7
REMARK VINA RESULT:      -5.5      8.035     11.297
REMARK  4 active torsions:
REMARK  status: ('A' for Active; 'I' for Inactive)
REMARK    1  A    between atoms: C_2  and  O_4 
REMARK    2  A    between atoms: O_4  and  C_12 
REMARK    3  A    between atoms: C_12  and  C_16 
REMARK    4  A    between atoms: O_13  and  C_17 
ROOT
HETATM    1  C   UNK N   1      35.174  13.473  18.444  0.00  0.00     0.017 A 
HETATM    2  C   UNK N   1      35.382  13.326  16.027  0.00  0.00     0.038 A 
HETATM    3  C   UNK N   1      35.490  10.691  18.609  0.00  0.00     0.074 A 
HETATM    4  O   UNK N   1      35.685  10.600  16.264  0.00  0.00    -0.274 OA
HETATM    5  C   UNK N   1      35.355  12.719  17.280  0.00  0.00    -0.001 A 
HETATM    6  C   UNK N   1      35.513  11.322  17.364  0.00  0.00     0.092 A 
HETATM    7  C   UNK N   1      35.716  11.140  15.051  0.00  0.00     0.304 A 
HETATM    8  O   UNK N   1      35.878  10.412  14.087  0.00  0.00    -0.259 OA
HETATM    9  C   UNK N   1      35.152  12.833  19.690  0.00  0.00     0.037 A 
HETATM   10  C   UNK N   1      35.565  12.538  14.883  0.00  0.00     0.115 A 
HETATM   11  C   UNK N   1      35.310  11.444  19.772  0.00  0.00     0.068 A 
ENDROOT
BRANCH  10  12
HETATM   12  C   UNK N   1      35.596  13.168  13.536  0.00  0.00     0.299 C 
HETATM   13  O   UNK N   1      34.554  13.366  12.925  0.00  0.00    -0.259 OA
BRANCH  12  14
HETATM   14  O   UNK N   1      36.788  13.520  12.993  0.00  0.00    -0.318 OA
BRANCH  14  15
HETATM   15  C   UNK N   1      37.113  13.333  11.673  0.00  0.00     0.174 C 
HETATM   16  C   UNK N   1      37.683  11.939  11.510  0.00  0.00     0.034 C 
ENDBRANCH  14  15
ENDBRANCH  12  14
ENDBRANCH  10  12
BRANCH  11  17
HETATM   17  O   UNK N   1      35.288  10.833  20.966  0.00  0.00    -0.361 OA
HETATM   18  H   UNK N   1      35.298   9.897  21.014  0.00  0.00     0.217 HD
ENDBRANCH  11  17
TORSDOF 4
ENDMDL
MODEL 8
REMARK VINA RESULT:      -5.5      8.513     11.011
REMARK  4 active torsions:
REMARK  status: ('A' for Active; 'I' for Inactive)
REMARK    1  A    between atoms: C_2  and  O_4 
REMARK    2  A    between atoms: O_4  and  C_12 
REMARK    3  A    between atoms: C_12  and  C_16 
REMARK    4  A    between atoms: O_13  and  C_17 
ROOT
HETATM    1  C   UNK N   1      35.753  10.762  17.986  0.00  0.00     0.017 A 
HETATM    2  C   UNK N   1      35.721  10.783  15.555  0.00  0.00     0.038 A 
HETATM    3  C   UNK N   1      34.945  13.447  17.989  0.00  0.00     0.074 A 
HETATM    4  O   UNK N   1      34.928  13.419  15.634  0.00  0.00    -0.274 OA
HETATM    5  C   UNK N   1      35.539  11.429  16.775  0.00  0.00    -0.001 A 
HETATM    6  C   UNK N   1      35.133  12.779  16.778  0.00  0.00     0.092 A 
HETATM    7  C   UNK N   1      35.091  12.838  14.450  0.00  0.00     0.304 A 
HETATM    8  O   UNK N   1      34.883  13.492  13.442  0.00  0.00    -0.259 OA
HETATM    9  C   UNK N   1      35.562  11.440  19.196  0.00  0.00     0.037 A 
HETATM   10  C   UNK N   1      35.497  11.485  14.363  0.00  0.00     0.115 A 
HETATM   11  C   UNK N   1      35.158  12.780  19.197  0.00  0.00     0.068 A 
ENDROOT
BRANCH  10  12
HETATM   12  C   UNK N   1      35.686  10.811  13.050  0.00  0.00     0.299 C 
HETATM   13  O   UNK N   1      34.727  10.326  12.464  0.00  0.00    -0.259 OA
BRANCH  12  14
HETATM   14  O   UNK N   1      36.928  10.741  12.511  0.00  0.00    -0.318 OA
BRANCH  14  15
HETATM   15  C   UNK N   1      37.248  11.208  11.261  0.00  0.00     0.174 C 
HETATM   16  C   UNK N   1      37.660  12.661  11.381  0.00  0.00     0.034 C 
ENDBRANCH  14  15
ENDBRANCH  12  14
ENDBRANCH  10  12
BRANCH  11  17
HETATM   17  O   UNK N   1      34.975  13.428  20.358  0.00  0.00    -0.361 OA
HETATM   18  H   UNK N   1      34.189  13.295  20.851  0.00  0.00     0.217 HD
ENDBRANCH  11  17
TORSDOF 4
ENDMDL
MODEL 9
REMARK VINA RESULT:      -5.2      3.796      8.099
REMARK  4 active torsions:
REMARK  status: ('A' for Active; 'I' for Inactive)
REMARK    1  A    between atoms: C_2  and  O_4 
REMARK    2  A    between atoms: O_4  and  C_12 
REMARK    3  A    between atoms: C_12  and  C_16 
REMARK    4  A    between atoms: O_13  and  C_17 
ROOT
HETATM    1  C   UNK N   1      36.267  13.830  14.318  0.00  0.00     0.017 A 
HETATM    2  C   UNK N   1      35.789  15.172  12.348  0.00  0.00     0.038 A 
HETATM    3  C   UNK N   1      37.521  11.930  12.680  0.00  0.00     0.074 A 
HETATM    4  O   UNK N   1      37.035  13.264  10.802  0.00  0.00    -0.274 OA
HETATM    5  C   UNK N   1      36.336  14.034  12.935  0.00  0.00    -0.001 A 
HETATM    6  C   UNK N   1      36.966  13.078  12.114  0.00  0.00     0.092 A 
HETATM    7  C   UNK N   1      36.526  14.336  10.203  0.00  0.00     0.304 A 
HETATM    8  O   UNK N   1      36.629  14.437   8.993  0.00  0.00    -0.259 OA
HETATM    9  C   UNK N   1      36.826  12.675  14.878  0.00  0.00     0.037 A 
HETATM   10  C   UNK N   1      35.877  15.341  10.959  0.00  0.00     0.115 A 
HETATM   11  C   UNK N   1      37.452  11.726  14.060  0.00  0.00     0.068 A 
ENDROOT
BRANCH  10  12
HETATM   12  C   UNK N   1      35.300  16.551  10.314  0.00  0.00     0.299 C 
HETATM   13  O   UNK N   1      35.899  17.617  10.358  0.00  0.00    -0.259 OA
BRANCH  12  14
HETATM   14  O   UNK N   1      34.105  16.459   9.678  0.00  0.00    -0.318 OA
BRANCH  14  15
HETATM   15  C   UNK N   1      33.731  17.265   8.633  0.00  0.00     0.174 C 
HETATM   16  C   UNK N   1      34.369  16.736   7.364  0.00  0.00     0.034 C 
ENDBRANCH  14  15
ENDBRANCH  12  14
ENDBRANCH  10  12
BRANCH  11  17
HETATM   17  O   UNK N   1      37.987  10.620  14.599  0.00  0.00    -0.361 OA
HETATM   18  H   UNK N   1      38.648  10.693  15.261  0.00  0.00     0.217 HD
ENDBRANCH  11  17
TORSDOF 4
ENDMDL
