REMARK  4 active torsions:
REMARK  status: ('A' for Active; 'I' for Inactive)
REMARK    1  A    between atoms: C_2  and  O_4 
REMARK    2  A    between atoms: O_4  and  C_12 
REMARK    3  A    between atoms: C_12  and  C_16 
REMARK    4  A    between atoms: O_13  and  C_17 
ROOT
HETATM    1  C   UNK N   1      -3.040  -1.054  -0.000  0.00  0.00     0.017 A 
HETATM    2  C   UNK N   1      -0.609  -1.064  -0.000  0.00  0.00     0.038 A 
HETATM    3  C   UNK N   1      -2.997   1.750   0.000  0.00  0.00     0.074 A 
HETATM    4  O   UNK N   1      -0.643   1.689   0.000  0.00  0.00    -0.274 OA
HETATM    5  C   UNK N   1      -1.818  -0.373  -0.000  0.00  0.00    -0.001 A 
HETATM    6  C   UNK N   1      -1.798   1.036   0.000  0.00  0.00     0.092 A 
HETATM    7  C   UNK N   1       0.531   1.067   0.000  0.00  0.00     0.304 A 
HETATM    8  O   UNK N   1       1.550   1.736   0.000  0.00  0.00    -0.259 OA
HETATM    9  C   UNK N   1      -4.239  -0.330  -0.000  0.00  0.00     0.037 A 
HETATM   10  C   UNK N   1       0.595  -0.347   0.000  0.00  0.00     0.115 A 
HETATM   11  C   UNK N   1      -4.217   1.070  -0.000  0.00  0.00     0.068 A 
ENDROOT
BRANCH  10  12
HETATM   12  C   UNK N   1       1.896  -1.068   0.000  0.00  0.00     0.299 C 
HETATM   13  O   UNK N   1       1.921  -2.292  -0.000  0.00  0.00    -0.259 OA
BRANCH  12  14
HETATM   14  O   UNK N   1       3.051  -0.357   0.000  0.00  0.00    -0.318 OA
BRANCH  14  15
HETATM   15  C   UNK N   1       4.300  -0.926  -0.000  0.00  0.00     0.174 C 
HETATM   16  C   UNK N   1       5.334   0.182  -0.000  0.00  0.00     0.034 C 
ENDBRANCH  14  15
ENDBRANCH  12  14
ENDBRANCH  10  12
BRANCH  11  17
HETATM   17  O   UNK N   1      -5.367   1.762  -0.000  0.00  0.00    -0.361 OA
HETATM   18  H   UNK N   1      -5.350   2.699  -0.000  0.00  0.00     0.217 HD
ENDBRANCH  11  17
TORSDOF 4
