REMARK  4 active torsions:
REMARK  status: ('A' for Active; 'I' for Inactive)
REMARK    1  A    between atoms: C_6  and  C_9 
REMARK    2  A    between atoms: C_11  and  O_19 
REMARK    3  A    between atoms: C_12  and  O_16 
REMARK    4  A    between atoms: C_15  and  O_16 
ROOT
HETATM    1  C   UNK N   1      -0.046   0.669  -0.027  0.00  0.00    -0.005 A 
HETATM    2  C   UNK N   1       1.122  -0.103   0.044  0.00  0.00     0.053 A 
HETATM    3  C   UNK N   1       1.071  -1.504   0.033  0.00  0.00     0.102 A 
HETATM    4  C   UNK N   1      -0.194  -2.149  -0.056  0.00  0.00     0.108 A 
HETATM    5  C   UNK N   1      -1.356  -1.364  -0.133  0.00  0.00     0.041 A 
HETATM    6  C   UNK N   1      -1.283   0.025  -0.116  0.00  0.00     0.017 A 
ENDROOT
BRANCH   1   7
HETATM    7  C   UNK N   1       0.027   2.146  -0.014  0.00  0.00     0.058 A 
HETATM    8  N   UNK N   1       1.234   2.776   0.034  0.00  0.00    -0.297 N 
HETATM    9  N   UNK N   1       1.325   4.109   0.042  0.00  0.00    -0.266 N 
ATOM     10  HN  UNK N   1       2.087   2.218   0.063  1.00  0.00     0.187 HD
HETATM   11  C   UNK N   1       0.204   4.897   0.006  0.00  0.00     0.259 A 
HETATM   12  H   UNK N   1       2.213   4.533   0.075  0.00  0.00     0.190 HD
HETATM   13  O   UNK N   1       0.308   6.110   0.014  0.00  0.00    -0.267 OA
HETATM   14  C   UNK N   1      -1.052   4.304  -0.041  0.00  0.00     0.078 A 
HETATM   15  C   UNK N   1      -1.142   2.916  -0.052  0.00  0.00     0.037 A 
ENDBRANCH   1   7
BRANCH   3  16
HETATM   16  O   UNK N   1       2.252  -2.174   0.103  0.00  0.00    -0.353 OA
HETATM   17  C   UNK N   1       2.400  -3.542   0.070  0.00  0.00     0.210 C 
ENDBRANCH   3  16
BRANCH   4  18
HETATM   18  O   UNK N   1      -0.282  -3.505  -0.061  0.00  0.00    -0.287 OA
BRANCH  18  19
HETATM   19  C   UNK N   1      -1.447  -4.212  -0.291  0.00  0.00     0.505 C 
HETATM   20  F   UNK N   1      -1.187  -5.565  -0.182  0.00  0.00    -0.184 F 
HETATM   21  F   UNK N   1      -2.425  -3.868   0.626  0.00  0.00    -0.184 F 
ENDBRANCH  18  19
ENDBRANCH   4  18
TORSDOF 4
