MODEL 1
REMARK VINA RESULT:      -6.2      0.000      0.000
REMARK  4 active torsions:
REMARK  status: ('A' for Active; 'I' for Inactive)
REMARK    1  A    between atoms: C_6  and  C_9 
REMARK    2  A    between atoms: C_11  and  O_19 
REMARK    3  A    between atoms: C_12  and  O_16 
REMARK    4  A    between atoms: C_15  and  O_16 
ROOT
HETATM    1  C   UNK N   1      35.502  14.262  12.567  0.00  0.00    -0.005 A 
HETATM    2  C   UNK N   1      36.375  14.761  13.544  0.00  0.00     0.053 A 
HETATM    3  C   UNK N   1      36.645  14.041  14.716  0.00  0.00     0.102 A 
HETATM    4  C   UNK N   1      36.020  12.778  14.911  0.00  0.00     0.108 A 
HETATM    5  C   UNK N   1      35.152  12.287  13.922  0.00  0.00     0.041 A 
HETATM    6  C   UNK N   1      34.895  13.019  12.768  0.00  0.00     0.017 A 
ENDROOT
BRANCH   1   7
HETATM    7  C   UNK N   1      35.229  15.035  11.336  0.00  0.00     0.058 A 
HETATM    8  N   UNK N   1      35.121  16.392  11.385  0.00  0.00    -0.297 N 
HETATM    9  N   UNK N   1      34.879  17.113  10.286  0.00  0.00    -0.266 N 
ATOM     10  HN  UNK N   1      35.228  16.869  12.280  1.00  0.00     0.187 HD
HETATM   11  C   UNK N   1      34.727  16.512   9.063  0.00  0.00     0.259 A 
HETATM   12  H   UNK N   1      34.809  18.092  10.355  0.00  0.00     0.190 HD
HETATM   13  O   UNK N   1      34.507  17.186   8.073  0.00  0.00    -0.267 OA
HETATM   14  C   UNK N   1      34.825  15.129   8.959  0.00  0.00     0.078 A 
HETATM   15  C   UNK N   1      35.080  14.384  10.106  0.00  0.00     0.037 A 
ENDBRANCH   1   7
BRANCH   3  16
HETATM   16  O   UNK N   1      37.506  14.598  15.609  0.00  0.00    -0.353 OA
HETATM   17  C   UNK N   1      37.340  15.815  16.230  0.00  0.00     0.210 C 
ENDBRANCH   3  16
BRANCH   4  18
HETATM   18  O   UNK N   1      36.252  12.056  16.039  0.00  0.00    -0.287 OA
BRANCH  18  19
HETATM   19  C   UNK N   1      35.419  12.041  17.142  0.00  0.00     0.505 C 
HETATM   20  F   UNK N   1      34.572  13.131  17.088  0.00  0.00    -0.184 F 
HETATM   21  F   UNK N   1      34.659  10.884  17.173  0.00  0.00    -0.184 F 
ENDBRANCH  18  19
ENDBRANCH   4  18
TORSDOF 4
ENDMDL
MODEL 2
REMARK VINA RESULT:      -6.1     16.579     17.900
REMARK  4 active torsions:
REMARK  status: ('A' for Active; 'I' for Inactive)
REMARK    1  A    between atoms: C_6  and  C_9 
REMARK    2  A    between atoms: C_11  and  O_19 
REMARK    3  A    between atoms: C_12  and  O_16 
REMARK    4  A    between atoms: C_15  and  O_16 
ROOT
HETATM    1  C   UNK N   1      20.468  17.548   4.350  0.00  0.00    -0.005 A 
HETATM    2  C   UNK N   1      19.571  16.475   4.261  0.00  0.00     0.053 A 
HETATM    3  C   UNK N   1      19.397  15.581   5.327  0.00  0.00     0.102 A 
HETATM    4  C   UNK N   1      20.146  15.775   6.521  0.00  0.00     0.108 A 
HETATM    5  C   UNK N   1      21.037  16.858   6.599  0.00  0.00     0.041 A 
HETATM    6  C   UNK N   1      21.197  17.730   5.528  0.00  0.00     0.017 A 
ENDROOT
BRANCH   1   7
HETATM    7  C   UNK N   1      20.638  18.481   3.215  0.00  0.00     0.058 A 
HETATM    8  N   UNK N   1      20.166  18.156   1.979  0.00  0.00    -0.297 N 
HETATM    9  N   UNK N   1      20.304  18.985   0.940  0.00  0.00    -0.266 N 
ATOM     10  HN  UNK N   1      19.695  17.262   1.844  1.00  0.00     0.187 HD
HETATM   11  C   UNK N   1      20.931  20.196   1.076  0.00  0.00     0.259 A 
HETATM   12  H   UNK N   1      19.949  18.720   0.060  0.00  0.00     0.190 HD
HETATM   13  O   UNK N   1      21.047  20.936   0.117  0.00  0.00    -0.267 OA
HETATM   14  C   UNK N   1      21.434  20.574   2.315  0.00  0.00     0.078 A 
HETATM   15  C   UNK N   1      21.285  19.710   3.395  0.00  0.00     0.037 A 
ENDBRANCH   1   7
BRANCH   3  16
HETATM   16  O   UNK N   1      18.505  14.569   5.157  0.00  0.00    -0.353 OA
HETATM   17  C   UNK N   1      18.751  13.386   4.498  0.00  0.00     0.210 C 
ENDBRANCH   3  16
BRANCH   4  18
HETATM   18  O   UNK N   1      20.009  14.924   7.572  0.00  0.00    -0.287 OA
BRANCH  18  19
HETATM   19  C   UNK N   1      19.904  15.321   8.891  0.00  0.00     0.505 C 
HETATM   20  F   UNK N   1      21.170  15.507   9.413  0.00  0.00    -0.184 F 
HETATM   21  F   UNK N   1      19.197  16.506   8.997  0.00  0.00    -0.184 F 
ENDBRANCH  18  19
ENDBRANCH   4  18
TORSDOF 4
ENDMDL
MODEL 3
REMARK VINA RESULT:      -6.1      8.534     11.167
REMARK  4 active torsions:
REMARK  status: ('A' for Active; 'I' for Inactive)
REMARK    1  A    between atoms: C_6  and  C_9 
REMARK    2  A    between atoms: C_11  and  O_19 
REMARK    3  A    between atoms: C_12  and  O_16 
REMARK    4  A    between atoms: C_15  and  O_16 
ROOT
HETATM    1  C   UNK N   1      28.374  18.294   5.599  0.00  0.00    -0.005 A 
HETATM    2  C   UNK N   1      28.509  18.165   6.988  0.00  0.00     0.053 A 
HETATM    3  C   UNK N   1      29.673  17.633   7.560  0.00  0.00     0.102 A 
HETATM    4  C   UNK N   1      30.737  17.223   6.709  0.00  0.00     0.108 A 
HETATM    5  C   UNK N   1      30.591  17.364   5.319  0.00  0.00     0.041 A 
HETATM    6  C   UNK N   1      29.425  17.889   4.772  0.00  0.00     0.017 A 
ENDROOT
BRANCH   1   7
HETATM    7  C   UNK N   1      27.138  18.856   5.013  0.00  0.00     0.058 A 
HETATM    8  N   UNK N   1      25.920  18.533   5.531  0.00  0.00    -0.297 N 
HETATM    9  N   UNK N   1      24.790  19.032   5.021  0.00  0.00    -0.266 N 
ATOM     10  HN  UNK N   1      25.870  17.896   6.326  1.00  0.00     0.187 HD
HETATM   11  C   UNK N   1      24.812  19.889   3.951  0.00  0.00     0.259 A 
HETATM   12  H   UNK N   1      23.927  18.779   5.420  0.00  0.00     0.190 HD
HETATM   13  O   UNK N   1      23.772  20.333   3.502  0.00  0.00    -0.267 OA
HETATM   14  C   UNK N   1      26.029  20.249   3.384  0.00  0.00     0.078 A 
HETATM   15  C   UNK N   1      27.203  19.729   3.920  0.00  0.00     0.037 A 
ENDBRANCH   1   7
BRANCH   3  16
HETATM   16  O   UNK N   1      29.721  17.546   8.916  0.00  0.00    -0.353 OA
HETATM   17  C   UNK N   1      29.712  18.611   9.788  0.00  0.00     0.210 C 
ENDBRANCH   3  16
BRANCH   4  18
HETATM   18  O   UNK N   1      31.877  16.696   7.228  0.00  0.00    -0.287 OA
BRANCH  18  19
HETATM   19  C   UNK N   1      33.023  17.421   7.494  0.00  0.00     0.505 C 
HETATM   20  F   UNK N   1      33.600  17.812   6.300  0.00  0.00    -0.184 F 
HETATM   21  F   UNK N   1      32.734  18.549   8.243  0.00  0.00    -0.184 F 
ENDBRANCH  18  19
ENDBRANCH   4  18
TORSDOF 4
ENDMDL
MODEL 4
REMARK VINA RESULT:      -6.0      7.114     10.573
REMARK  4 active torsions:
REMARK  status: ('A' for Active; 'I' for Inactive)
REMARK    1  A    between atoms: C_6  and  C_9 
REMARK    2  A    between atoms: C_11  and  O_19 
REMARK    3  A    between atoms: C_12  and  O_16 
REMARK    4  A    between atoms: C_15  and  O_16 
ROOT
HETATM    1  C   UNK N   1      30.901  17.626   7.731  0.00  0.00    -0.005 A 
HETATM    2  C   UNK N   1      30.657  17.248   6.403  0.00  0.00     0.053 A 
HETATM    3  C   UNK N   1      29.414  17.479   5.797  0.00  0.00     0.102 A 
HETATM    4  C   UNK N   1      28.386  18.113   6.549  0.00  0.00     0.108 A 
HETATM    5  C   UNK N   1      28.645  18.492   7.876  0.00  0.00     0.041 A 
HETATM    6  C   UNK N   1      29.885  18.249   8.459  0.00  0.00     0.017 A 
ENDROOT
BRANCH   1   7
HETATM    7  C   UNK N   1      32.219  17.374   8.354  0.00  0.00     0.058 A 
HETATM    8  N   UNK N   1      32.368  16.380   9.274  0.00  0.00    -0.297 N 
HETATM    9  N   UNK N   1      33.549  16.131   9.847  0.00  0.00    -0.266 N 
ATOM     10  HN  UNK N   1      31.560  15.813   9.530  1.00  0.00     0.187 HD
HETATM   11  C   UNK N   1      34.659  16.870   9.533  0.00  0.00     0.259 A 
HETATM   12  H   UNK N   1      33.623  15.404  10.506  0.00  0.00     0.190 HD
HETATM   13  O   UNK N   1      35.727  16.628  10.066  0.00  0.00    -0.267 OA
HETATM   14  C   UNK N   1      34.561  17.898   8.602  0.00  0.00     0.078 A 
HETATM   15  C   UNK N   1      33.330  18.152   8.006  0.00  0.00     0.037 A 
ENDBRANCH   1   7
BRANCH   3  16
HETATM   16  O   UNK N   1      29.264  17.083   4.505  0.00  0.00    -0.353 OA
HETATM   17  C   UNK N   1      30.230  16.473   3.737  0.00  0.00     0.210 C 
ENDBRANCH   3  16
BRANCH   4  18
HETATM   18  O   UNK N   1      27.166  18.345   5.996  0.00  0.00    -0.287 OA
BRANCH  18  19
HETATM   19  C   UNK N   1      26.777  19.548   5.438  0.00  0.00     0.505 C 
HETATM   20  F   UNK N   1      26.358  20.401   6.442  0.00  0.00    -0.184 F 
HETATM   21  F   UNK N   1      27.826  20.140   4.756  0.00  0.00    -0.184 F 
ENDBRANCH  18  19
ENDBRANCH   4  18
TORSDOF 4
ENDMDL
MODEL 5
REMARK VINA RESULT:      -6.0      1.454      2.646
REMARK  4 active torsions:
REMARK  status: ('A' for Active; 'I' for Inactive)
REMARK    1  A    between atoms: C_6  and  C_9 
REMARK    2  A    between atoms: C_11  and  O_19 
REMARK    3  A    between atoms: C_12  and  O_16 
REMARK    4  A    between atoms: C_15  and  O_16 
ROOT
HETATM    1  C   UNK N   1      35.315  14.850  11.484  0.00  0.00    -0.005 A 
HETATM    2  C   UNK N   1      34.772  13.564  11.610  0.00  0.00     0.053 A 
HETATM    3  C   UNK N   1      34.998  12.787  12.755  0.00  0.00     0.102 A 
HETATM    4  C   UNK N   1      35.792  13.321  13.807  0.00  0.00     0.108 A 
HETATM    5  C   UNK N   1      36.325  14.613  13.671  0.00  0.00     0.041 A 
HETATM    6  C   UNK N   1      36.092  15.366  12.524  0.00  0.00     0.017 A 
ENDROOT
BRANCH   1   7
HETATM    7  C   UNK N   1      35.066  15.655  10.269  0.00  0.00     0.058 A 
HETATM    8  N   UNK N   1      34.908  17.006  10.357  0.00  0.00    -0.297 N 
HETATM    9  N   UNK N   1      34.687  17.755   9.273  0.00  0.00    -0.266 N 
ATOM     10  HN  UNK N   1      34.962  17.455  11.271  1.00  0.00     0.187 HD
HETATM   11  C   UNK N   1      34.606  17.191   8.026  0.00  0.00     0.259 A 
HETATM   12  H   UNK N   1      34.580  18.728   9.371  0.00  0.00     0.190 HD
HETATM   13  O   UNK N   1      34.403  17.891   7.050  0.00  0.00    -0.267 OA
HETATM   14  C   UNK N   1      34.757  15.817   7.881  0.00  0.00     0.078 A 
HETATM   15  C   UNK N   1      34.990  15.042   9.012  0.00  0.00     0.037 A 
ENDBRANCH   1   7
BRANCH   3  16
HETATM   16  O   UNK N   1      34.431  11.552  12.795  0.00  0.00    -0.353 OA
HETATM   17  C   UNK N   1      34.986  10.399  12.288  0.00  0.00     0.210 C 
ENDBRANCH   3  16
BRANCH   4  18
HETATM   18  O   UNK N   1      36.039  12.593  14.928  0.00  0.00    -0.287 OA
BRANCH  18  19
HETATM   19  C   UNK N   1      35.374  12.756  16.128  0.00  0.00     0.505 C 
HETATM   20  F   UNK N   1      35.961  13.786  16.838  0.00  0.00    -0.184 F 
HETATM   21  F   UNK N   1      34.040  13.060  15.919  0.00  0.00    -0.184 F 
ENDBRANCH  18  19
ENDBRANCH   4  18
TORSDOF 4
ENDMDL
MODEL 6
REMARK VINA RESULT:      -6.0     23.540     24.886
REMARK  4 active torsions:
REMARK  status: ('A' for Active; 'I' for Inactive)
REMARK    1  A    between atoms: C_6  and  C_9 
REMARK    2  A    between atoms: C_11  and  O_19 
REMARK    3  A    between atoms: C_12  and  O_16 
REMARK    4  A    between atoms: C_15  and  O_16 
ROOT
HETATM    1  C   UNK N   1      26.195  25.915  -5.777  0.00  0.00    -0.005 A 
HETATM    2  C   UNK N   1      25.990  25.819  -7.161  0.00  0.00     0.053 A 
HETATM    3  C   UNK N   1      25.910  24.575  -7.801  0.00  0.00     0.102 A 
HETATM    4  C   UNK N   1      26.036  23.389  -7.025  0.00  0.00     0.108 A 
HETATM    5  C   UNK N   1      26.234  23.498  -5.639  0.00  0.00     0.041 A 
HETATM    6  C   UNK N   1      26.315  24.743  -5.025  0.00  0.00     0.017 A 
ENDROOT
BRANCH   1   7
HETATM    7  C   UNK N   1      26.277  27.236  -5.119  0.00  0.00     0.058 A 
HETATM    8  N   UNK N   1      25.608  27.469  -3.955  0.00  0.00    -0.297 N 
HETATM    9  N   UNK N   1      25.671  28.653  -3.339  0.00  0.00    -0.266 N 
ATOM     10  HN  UNK N   1      25.049  26.722  -3.543  1.00  0.00     0.187 HD
HETATM   11  C   UNK N   1      26.409  29.685  -3.859  0.00  0.00     0.259 A 
HETATM   12  H   UNK N   1      25.178  28.788  -2.498  0.00  0.00     0.190 HD
HETATM   13  O   UNK N   1      26.454  30.756  -3.283  0.00  0.00    -0.267 OA
HETATM   14  C   UNK N   1      27.108  29.500  -5.046  0.00  0.00     0.078 A 
HETATM   15  C   UNK N   1      27.042  28.265  -5.682  0.00  0.00     0.037 A 
ENDBRANCH   1   7
BRANCH   3  16
HETATM   16  O   UNK N   1      25.708  24.574  -9.146  0.00  0.00    -0.353 OA
HETATM   17  C   UNK N   1      25.347  25.666  -9.902  0.00  0.00     0.210 C 
ENDBRANCH   3  16
BRANCH   4  18
HETATM   18  O   UNK N   1      25.972  22.165  -7.613  0.00  0.00    -0.287 OA
BRANCH  18  19
HETATM   19  C   UNK N   1      24.836  21.379  -7.659  0.00  0.00     0.505 C 
HETATM   20  F   UNK N   1      25.196  20.078  -7.956  0.00  0.00    -0.184 F 
HETATM   21  F   UNK N   1      24.172  21.395  -6.445  0.00  0.00    -0.184 F 
ENDBRANCH  18  19
ENDBRANCH   4  18
TORSDOF 4
ENDMDL
MODEL 7
REMARK VINA RESULT:      -5.8      7.841     10.689
REMARK  4 active torsions:
REMARK  status: ('A' for Active; 'I' for Inactive)
REMARK    1  A    between atoms: C_6  and  C_9 
REMARK    2  A    between atoms: C_11  and  O_19 
REMARK    3  A    between atoms: C_12  and  O_16 
REMARK    4  A    between atoms: C_15  and  O_16 
ROOT
HETATM    1  C   UNK N   1      28.759  18.241   6.249  0.00  0.00    -0.005 A 
HETATM    2  C   UNK N   1      29.832  17.667   5.552  0.00  0.00     0.053 A 
HETATM    3  C   UNK N   1      30.945  17.148   6.228  0.00  0.00     0.102 A 
HETATM    4  C   UNK N   1      30.980  17.204   7.649  0.00  0.00     0.108 A 
HETATM    5  C   UNK N   1      29.896  17.776   8.335  0.00  0.00     0.041 A 
HETATM    6  C   UNK N   1      28.803  18.289   7.645  0.00  0.00     0.017 A 
ENDROOT
BRANCH   1   7
HETATM    7  C   UNK N   1      27.593  18.783   5.520  0.00  0.00     0.058 A 
HETATM    8  N   UNK N   1      26.332  18.379   5.839  0.00  0.00    -0.297 N 
HETATM    9  N   UNK N   1      25.262  18.859   5.197  0.00  0.00    -0.266 N 
ATOM     10  HN  UNK N   1      26.200  17.697   6.585  1.00  0.00     0.187 HD
HETATM   11  C   UNK N   1      25.394  19.776   4.187  0.00  0.00     0.259 A 
HETATM   12  H   UNK N   1      24.364  18.548   5.454  0.00  0.00     0.190 HD
HETATM   13  O   UNK N   1      24.407  20.201   3.614  0.00  0.00    -0.267 OA
HETATM   14  C   UNK N   1      26.659  20.219   3.821  0.00  0.00     0.078 A 
HETATM   15  C   UNK N   1      27.769  19.719   4.493  0.00  0.00     0.037 A 
ENDBRANCH   1   7
BRANCH   3  16
HETATM   16  O   UNK N   1      31.939  16.607   5.474  0.00  0.00    -0.353 OA
HETATM   17  C   UNK N   1      32.931  17.313   4.832  0.00  0.00     0.210 C 
ENDBRANCH   3  16
BRANCH   4  18
HETATM   18  O   UNK N   1      32.046  16.718   8.337  0.00  0.00    -0.287 OA
BRANCH  18  19
HETATM   19  C   UNK N   1      33.205  17.429   8.587  0.00  0.00     0.505 C 
HETATM   20  F   UNK N   1      34.268  16.798   7.968  0.00  0.00    -0.184 F 
HETATM   21  F   UNK N   1      33.108  18.722   8.103  0.00  0.00    -0.184 F 
ENDBRANCH  18  19
ENDBRANCH   4  18
TORSDOF 4
ENDMDL
MODEL 8
REMARK VINA RESULT:      -5.8     19.542     22.279
REMARK  4 active torsions:
REMARK  status: ('A' for Active; 'I' for Inactive)
REMARK    1  A    between atoms: C_6  and  C_9 
REMARK    2  A    between atoms: C_11  and  O_19 
REMARK    3  A    between atoms: C_12  and  O_16 
REMARK    4  A    between atoms: C_15  and  O_16 
ROOT
HETATM    1  C   UNK N   1      28.833  23.455  -4.577  0.00  0.00    -0.005 A 
HETATM    2  C   UNK N   1      28.131  24.263  -3.672  0.00  0.00     0.053 A 
HETATM    3  C   UNK N   1      26.923  24.879  -4.031  0.00  0.00     0.102 A 
HETATM    4  C   UNK N   1      26.404  24.673  -5.339  0.00  0.00     0.108 A 
HETATM    5  C   UNK N   1      27.115  23.857  -6.234  0.00  0.00     0.041 A 
HETATM    6  C   UNK N   1      28.313  23.259  -5.860  0.00  0.00     0.017 A 
ENDROOT
BRANCH   1   7
HETATM    7  C   UNK N   1      30.105  22.814  -4.182  0.00  0.00     0.058 A 
HETATM    8  N   UNK N   1      30.100  21.681  -3.425  0.00  0.00    -0.297 N 
HETATM    9  N   UNK N   1      31.236  21.081  -3.060  0.00  0.00    -0.266 N 
ATOM     10  HN  UNK N   1      29.209  21.281  -3.133  1.00  0.00     0.187 HD
HETATM   11  C   UNK N   1      32.456  21.586  -3.429  0.00  0.00     0.259 A 
HETATM   12  H   UNK N   1      31.197  20.262  -2.514  0.00  0.00     0.190 HD
HETATM   13  O   UNK N   1      33.480  21.024  -3.086  0.00  0.00    -0.267 OA
HETATM   14  C   UNK N   1      32.517  22.741  -4.199  0.00  0.00     0.078 A 
HETATM   15  C   UNK N   1      31.332  23.361  -4.580  0.00  0.00     0.037 A 
ENDBRANCH   1   7
BRANCH   3  16
HETATM   16  O   UNK N   1      26.307  25.643  -3.090  0.00  0.00    -0.353 OA
HETATM   17  C   UNK N   1      26.354  27.017  -3.018  0.00  0.00     0.210 C 
ENDBRANCH   3  16
BRANCH   4  18
HETATM   18  O   UNK N   1      25.241  25.261  -5.724  0.00  0.00    -0.287 OA
BRANCH  18  19
HETATM   19  C   UNK N   1      25.158  26.476  -6.377  0.00  0.00     0.505 C 
HETATM   20  F   UNK N   1      24.243  27.281  -5.725  0.00  0.00    -0.184 F 
HETATM   21  F   UNK N   1      26.385  27.115  -6.394  0.00  0.00    -0.184 F 
ENDBRANCH  18  19
ENDBRANCH   4  18
TORSDOF 4
ENDMDL
MODEL 9
REMARK VINA RESULT:      -5.8     24.109     25.252
REMARK  4 active torsions:
REMARK  status: ('A' for Active; 'I' for Inactive)
REMARK    1  A    between atoms: C_6  and  C_9 
REMARK    2  A    between atoms: C_11  and  O_19 
REMARK    3  A    between atoms: C_12  and  O_16 
REMARK    4  A    between atoms: C_15  and  O_16 
ROOT
HETATM    1  C   UNK N   1      26.079  27.096  -6.131  0.00  0.00    -0.005 A 
HETATM    2  C   UNK N   1      27.071  28.047  -6.408  0.00  0.00     0.053 A 
HETATM    3  C   UNK N   1      27.312  29.121  -5.540  0.00  0.00     0.102 A 
HETATM    4  C   UNK N   1      26.534  29.241  -4.355  0.00  0.00     0.108 A 
HETATM    5  C   UNK N   1      25.547  28.278  -4.086  0.00  0.00     0.041 A 
HETATM    6  C   UNK N   1      25.322  27.222  -4.964  0.00  0.00     0.017 A 
ENDROOT
BRANCH   1   7
HETATM    7  C   UNK N   1      25.838  25.969  -7.059  0.00  0.00     0.058 A 
HETATM    8  N   UNK N   1      25.511  24.738  -6.577  0.00  0.00    -0.297 N 
HETATM    9  N   UNK N   1      25.284  23.707  -7.395  0.00  0.00    -0.266 N 
ATOM     10  HN  UNK N   1      25.435  24.601  -5.569  1.00  0.00     0.187 HD
HETATM   11  C   UNK N   1      25.377  23.846  -8.756  0.00  0.00     0.259 A 
HETATM   12  H   UNK N   1      25.047  22.830  -7.015  0.00  0.00     0.190 HD
HETATM   13  O   UNK N   1      25.167  22.894  -9.485  0.00  0.00    -0.267 OA
HETATM   14  C   UNK N   1      25.711  25.081  -9.299  0.00  0.00     0.078 A 
HETATM   15  C   UNK N   1      25.943  26.153  -8.443  0.00  0.00     0.037 A 
ENDBRANCH   1   7
BRANCH   3  16
HETATM   16  O   UNK N   1      28.295  29.996  -5.884  0.00  0.00    -0.353 OA
HETATM   17  C   UNK N   1      29.133  29.872  -6.968  0.00  0.00     0.210 C 
ENDBRANCH   3  16
BRANCH   4  18
HETATM   18  O   UNK N   1      26.734  30.274  -3.494  0.00  0.00    -0.287 OA
BRANCH  18  19
HETATM   19  C   UNK N   1      27.672  30.274  -2.479  0.00  0.00     0.505 C 
HETATM   20  F   UNK N   1      27.923  28.972  -2.090  0.00  0.00    -0.184 F 
HETATM   21  F   UNK N   1      28.857  30.853  -2.899  0.00  0.00    -0.184 F 
ENDBRANCH  18  19
ENDBRANCH   4  18
TORSDOF 4
ENDMDL
