MODEL 1
REMARK VINA RESULT:      -7.2      0.000      0.000
REMARK  5 active torsions:
REMARK  status: ('A' for Active; 'I' for Inactive)
REMARK    1  A    between atoms: N_8  and  C_11 
REMARK    2  A    between atoms: N_10  and  C_19 
REMARK    3  A    between atoms: C_11  and  C_12 
REMARK    4  A    between atoms: C_19  and  C_20 
REMARK    5  A    between atoms: C_20  and  O_22 
ROOT
HETATM    1  C   UNK N   1      32.998  12.901   6.282  0.00  0.00     0.025 A 
HETATM    2  C   UNK N   1      34.004  12.640   7.212  0.00  0.00     0.021 A 
HETATM    3  C   UNK N   1      34.466  13.657   8.063  0.00  0.00     0.059 A 
HETATM    4  C   UNK N   1      33.899  14.943   7.996  0.00  0.00     0.056 A 
HETATM    5  C   UNK N   1      32.881  15.187   7.056  0.00  0.00     0.054 A 
HETATM    6  C   UNK N   1      32.440  14.176   6.202  0.00  0.00     0.036 A 
HETATM    7  C   UNK N   1      35.491  13.411   8.973  0.00  0.00     0.264 A 
HETATM    8  N   UNK N   1      35.992  14.440   9.750  0.00  0.00    -0.261 N 
HETATM    9  C   UNK N   1      35.404  15.691   9.692  0.00  0.00     0.332 A 
HETATM   10  N   UNK N   1      34.342  15.932   8.838  0.00  0.00    -0.288 N 
HETATM   11 Cl   UNK N   1      31.187  14.509   5.028  0.00  0.00    -0.084 Cl
HETATM   12  O   UNK N   1      35.816  16.589  10.415  0.00  0.00    -0.246 OA
HETATM   13  O   UNK N   1      35.958  12.285   9.066  0.00  0.00    -0.267 OA
ENDROOT
BRANCH   8  14
HETATM   14  C   UNK N   1      37.120  14.209  10.674  0.00  0.00     0.178 C 
BRANCH  14  15
HETATM   15  C   UNK N   1      36.753  13.511  11.975  0.00  0.00    -0.001 A 
HETATM   16  C   UNK N   1      37.306  12.250  12.253  0.00  0.00     0.125 A 
HETATM   17  C   UNK N   1      37.094  11.648  13.500  0.00  0.00     0.062 A 
HETATM   18  F   UNK N   1      38.087  11.625  11.339  0.00  0.00    -0.205 F 
HETATM   19  C   UNK N   1      36.322  12.292  14.470  0.00  0.00     0.013 A 
HETATM   20  C   UNK N   1      35.730  13.523  14.186  0.00  0.00     0.020 A 
HETATM   21 Br   UNK N   1      36.115  11.514  16.198  0.00  0.00    -0.051 Br
HETATM   22  C   UNK N   1      35.940  14.127  12.944  0.00  0.00     0.013 A 
ENDBRANCH  14  15
ENDBRANCH   8  14
BRANCH  10  23
HETATM   23  C   UNK N   1      33.709  17.262   8.835  0.00  0.00     0.243 C 
BRANCH  23  24
HETATM   24  C   UNK N   1      34.475  18.239   7.976  0.00  0.00     0.158 C 
HETATM   25  O   UNK N   1      34.404  18.189   6.760  0.00  0.00    -0.649 OA
BRANCH  24  26
HETATM   26  O   UNK N   1      35.265  19.162   8.557  0.00  0.00    -0.775 OA
HETATM   27  H   UNK N   1      35.307  20.039   8.232  0.00  0.00     0.167 HD
ENDBRANCH  24  26
ENDBRANCH  23  24
ENDBRANCH  10  23
TORSDOF 5
ENDMDL
MODEL 2
REMARK VINA RESULT:      -7.0     17.100     20.210
REMARK  5 active torsions:
REMARK  status: ('A' for Active; 'I' for Inactive)
REMARK    1  A    between atoms: N_8  and  C_11 
REMARK    2  A    between atoms: N_10  and  C_19 
REMARK    3  A    between atoms: C_11  and  C_12 
REMARK    4  A    between atoms: C_19  and  C_20 
REMARK    5  A    between atoms: C_20  and  O_22 
ROOT
HETATM    1  C   UNK N   1      28.174  20.816  -8.230  0.00  0.00     0.025 A 
HETATM    2  C   UNK N   1      27.255  21.753  -7.757  0.00  0.00     0.021 A 
HETATM    3  C   UNK N   1      27.566  22.557  -6.649  0.00  0.00     0.059 A 
HETATM    4  C   UNK N   1      28.820  22.437  -6.022  0.00  0.00     0.056 A 
HETATM    5  C   UNK N   1      29.738  21.491  -6.515  0.00  0.00     0.054 A 
HETATM    6  C   UNK N   1      29.414  20.683  -7.606  0.00  0.00     0.036 A 
HETATM    7  C   UNK N   1      26.641  23.473  -6.154  0.00  0.00     0.264 A 
HETATM    8  N   UNK N   1      26.929  24.203  -5.014  0.00  0.00    -0.261 N 
HETATM    9  C   UNK N   1      28.177  24.094  -4.427  0.00  0.00     0.332 A 
HETATM   10  N   UNK N   1      29.128  23.234  -4.948  0.00  0.00    -0.288 N 
HETATM   11 Cl   UNK N   1      30.563  19.501  -8.189  0.00  0.00    -0.084 Cl
HETATM   12  O   UNK N   1      28.447  24.776  -3.447  0.00  0.00    -0.246 OA
HETATM   13  O   UNK N   1      25.568  23.612  -6.721  0.00  0.00    -0.267 OA
ENDROOT
BRANCH   8  14
HETATM   14  C   UNK N   1      25.935  25.131  -4.442  0.00  0.00     0.178 C 
BRANCH  14  15
HETATM   15  C   UNK N   1      26.268  26.607  -4.596  0.00  0.00    -0.001 A 
HETATM   16  C   UNK N   1      26.291  27.426  -3.454  0.00  0.00     0.125 A 
HETATM   17  C   UNK N   1      26.727  28.753  -3.549  0.00  0.00     0.062 A 
HETATM   18  F   UNK N   1      25.937  26.928  -2.244  0.00  0.00    -0.205 F 
HETATM   19  C   UNK N   1      27.130  29.276  -4.779  0.00  0.00     0.013 A 
HETATM   20  C   UNK N   1      27.068  28.484  -5.927  0.00  0.00     0.020 A 
HETATM   21 Br   UNK N   1      27.813  31.053  -4.886  0.00  0.00    -0.051 Br
HETATM   22  C   UNK N   1      26.634  27.160  -5.836  0.00  0.00     0.013 A 
ENDBRANCH  14  15
ENDBRANCH   8  14
BRANCH  10  23
HETATM   23  C   UNK N   1      30.462  23.176  -4.326  0.00  0.00     0.243 C 
BRANCH  23  24
HETATM   24  C   UNK N   1      30.440  22.392  -3.037  0.00  0.00     0.158 C 
HETATM   25  O   UNK N   1      30.336  21.177  -3.047  0.00  0.00    -0.649 OA
BRANCH  24  26
HETATM   26  O   UNK N   1      30.511  23.041  -1.859  0.00  0.00    -0.775 OA
HETATM   27  H   UNK N   1      31.001  22.691  -1.141  0.00  0.00     0.167 HD
ENDBRANCH  24  26
ENDBRANCH  23  24
ENDBRANCH  10  23
TORSDOF 5
ENDMDL
MODEL 3
REMARK VINA RESULT:      -6.8     18.916     21.624
REMARK  5 active torsions:
REMARK  status: ('A' for Active; 'I' for Inactive)
REMARK    1  A    between atoms: N_8  and  C_11 
REMARK    2  A    between atoms: N_10  and  C_19 
REMARK    3  A    between atoms: C_11  and  C_12 
REMARK    4  A    between atoms: C_19  and  C_20 
REMARK    5  A    between atoms: C_20  and  O_22 
ROOT
HETATM    1  C   UNK N   1      30.170  21.550  -5.415  0.00  0.00     0.025 A 
HETATM    2  C   UNK N   1      29.304  22.546  -4.965  0.00  0.00     0.021 A 
HETATM    3  C   UNK N   1      28.261  23.003  -5.785  0.00  0.00     0.059 A 
HETATM    4  C   UNK N   1      28.069  22.440  -7.060  0.00  0.00     0.056 A 
HETATM    5  C   UNK N   1      28.949  21.433  -7.497  0.00  0.00     0.054 A 
HETATM    6  C   UNK N   1      29.994  20.996  -6.683  0.00  0.00     0.036 A 
HETATM    7  C   UNK N   1      27.410  24.018  -5.353  0.00  0.00     0.264 A 
HETATM    8  N   UNK N   1      26.436  24.515  -6.200  0.00  0.00    -0.261 N 
HETATM    9  C   UNK N   1      26.242  23.931  -7.440  0.00  0.00     0.332 A 
HETATM   10  N   UNK N   1      27.039  22.879  -7.855  0.00  0.00    -0.288 N 
HETATM   11 Cl   UNK N   1      31.087  19.756  -7.254  0.00  0.00    -0.084 Cl
HETATM   12  O   UNK N   1      25.348  24.340  -8.169  0.00  0.00    -0.246 OA
HETATM   13  O   UNK N   1      27.545  24.480  -4.230  0.00  0.00    -0.267 OA
ENDROOT
BRANCH   8  14
HETATM   14  C   UNK N   1      25.568  25.633  -5.780  0.00  0.00     0.178 C 
BRANCH  14  15
HETATM   15  C   UNK N   1      26.218  27.007  -5.834  0.00  0.00    -0.001 A 
HETATM   16  C   UNK N   1      26.040  27.890  -4.756  0.00  0.00     0.125 A 
HETATM   17  C   UNK N   1      26.736  29.105  -4.719  0.00  0.00     0.062 A 
HETATM   18  F   UNK N   1      25.231  27.557  -3.720  0.00  0.00    -0.205 F 
HETATM   19  C   UNK N   1      27.603  29.452  -5.758  0.00  0.00     0.013 A 
HETATM   20  C   UNK N   1      27.750  28.602  -6.856  0.00  0.00     0.020 A 
HETATM   21 Br   UNK N   1      28.620  31.061  -5.658  0.00  0.00    -0.051 Br
HETATM   22  C   UNK N   1      27.058  27.390  -6.895  0.00  0.00     0.013 A 
ENDBRANCH  14  15
ENDBRANCH   8  14
BRANCH  10  23
HETATM   23  C   UNK N   1      26.777  22.251  -9.161  0.00  0.00     0.243 C 
BRANCH  23  24
HETATM   24  C   UNK N   1      25.735  21.165  -9.056  0.00  0.00     0.158 C 
HETATM   25  O   UNK N   1      25.504  20.622  -7.989  0.00  0.00    -0.649 OA
BRANCH  24  26
HETATM   26  O   UNK N   1      25.066  20.773 -10.157  0.00  0.00    -0.775 OA
HETATM   27  H   UNK N   1      24.230  21.136 -10.373  0.00  0.00     0.167 HD
ENDBRANCH  24  26
ENDBRANCH  23  24
ENDBRANCH  10  23
TORSDOF 5
ENDMDL
MODEL 4
REMARK VINA RESULT:      -6.8      4.418      6.830
REMARK  5 active torsions:
REMARK  status: ('A' for Active; 'I' for Inactive)
REMARK    1  A    between atoms: N_8  and  C_11 
REMARK    2  A    between atoms: N_10  and  C_19 
REMARK    3  A    between atoms: C_11  and  C_12 
REMARK    4  A    between atoms: C_19  and  C_20 
REMARK    5  A    between atoms: C_20  and  O_22 
ROOT
HETATM    1  C   UNK N   1      36.555  12.078   6.833  0.00  0.00     0.025 A 
HETATM    2  C   UNK N   1      36.005  13.260   6.338  0.00  0.00     0.021 A 
HETATM    3  C   UNK N   1      35.655  14.301   7.212  0.00  0.00     0.059 A 
HETATM    4  C   UNK N   1      35.879  14.165   8.595  0.00  0.00     0.056 A 
HETATM    5  C   UNK N   1      36.440  12.968   9.077  0.00  0.00     0.054 A 
HETATM    6  C   UNK N   1      36.768  11.931   8.203  0.00  0.00     0.036 A 
HETATM    7  C   UNK N   1      35.078  15.472   6.727  0.00  0.00     0.264 A 
HETATM    8  N   UNK N   1      34.665  16.458   7.606  0.00  0.00    -0.261 N 
HETATM    9  C   UNK N   1      34.918  16.321   8.959  0.00  0.00     0.332 A 
HETATM   10  N   UNK N   1      35.549  15.190   9.447  0.00  0.00    -0.288 N 
HETATM   11 Cl   UNK N   1      37.446  10.445   8.827  0.00  0.00    -0.084 Cl
HETATM   12  O   UNK N   1      34.595  17.215   9.730  0.00  0.00    -0.246 OA
HETATM   13  O   UNK N   1      34.921  15.614   5.524  0.00  0.00    -0.267 OA
ENDROOT
BRANCH   8  14
HETATM   14  C   UNK N   1      33.995  17.677   7.112  0.00  0.00     0.178 C 
BRANCH  14  15
HETATM   15  C   UNK N   1      32.486  17.566   6.960  0.00  0.00    -0.001 A 
HETATM   16  C   UNK N   1      31.937  17.411   5.676  0.00  0.00     0.125 A 
HETATM   17  C   UNK N   1      30.567  17.171   5.520  0.00  0.00     0.062 A 
HETATM   18  F   UNK N   1      32.734  17.447   4.579  0.00  0.00    -0.205 F 
HETATM   19  C   UNK N   1      29.733  17.094   6.638  0.00  0.00     0.013 A 
HETATM   20  C   UNK N   1      30.261  17.292   7.915  0.00  0.00     0.020 A 
HETATM   21 Br   UNK N   1      27.887  16.671   6.428  0.00  0.00    -0.051 Br
HETATM   22  C   UNK N   1      31.628  17.531   8.074  0.00  0.00     0.013 A 
ENDBRANCH  14  15
ENDBRANCH   8  14
BRANCH  10  23
HETATM   23  C   UNK N   1      35.845  15.096  10.886  0.00  0.00     0.243 C 
BRANCH  23  24
HETATM   24  C   UNK N   1      34.665  14.561  11.661  0.00  0.00     0.158 C 
HETATM   25  O   UNK N   1      34.831  13.852  12.640  0.00  0.00    -0.649 OA
BRANCH  24  26
HETATM   26  O   UNK N   1      33.414  14.849  11.257  0.00  0.00    -0.775 OA
HETATM   27  H   UNK N   1      33.120  14.630  10.395  0.00  0.00     0.167 HD
ENDBRANCH  24  26
ENDBRANCH  23  24
ENDBRANCH  10  23
TORSDOF 5
ENDMDL
MODEL 5
REMARK VINA RESULT:      -6.8     13.927     16.096
REMARK  5 active torsions:
REMARK  status: ('A' for Active; 'I' for Inactive)
REMARK    1  A    between atoms: N_8  and  C_11 
REMARK    2  A    between atoms: N_10  and  C_19 
REMARK    3  A    between atoms: C_11  and  C_12 
REMARK    4  A    between atoms: C_19  and  C_20 
REMARK    5  A    between atoms: C_20  and  O_22 
ROOT
HETATM    1  C   UNK N   1      22.138  12.393   9.124  0.00  0.00     0.025 A 
HETATM    2  C   UNK N   1      22.631  13.003   7.970  0.00  0.00     0.021 A 
HETATM    3  C   UNK N   1      22.211  14.295   7.615  0.00  0.00     0.059 A 
HETATM    4  C   UNK N   1      21.305  14.991   8.436  0.00  0.00     0.056 A 
HETATM    5  C   UNK N   1      20.822  14.363   9.599  0.00  0.00     0.054 A 
HETATM    6  C   UNK N   1      21.231  13.073   9.936  0.00  0.00     0.036 A 
HETATM    7  C   UNK N   1      22.676  14.897   6.449  0.00  0.00     0.264 A 
HETATM    8  N   UNK N   1      22.194  16.137   6.069  0.00  0.00    -0.261 N 
HETATM    9  C   UNK N   1      21.326  16.821   6.901  0.00  0.00     0.332 A 
HETATM   10  N   UNK N   1      20.906  16.260   8.095  0.00  0.00    -0.288 N 
HETATM   11 Cl   UNK N   1      20.602  12.305  11.376  0.00  0.00    -0.084 Cl
HETATM   12  O   UNK N   1      20.938  17.938   6.587  0.00  0.00    -0.246 OA
HETATM   13  O   UNK N   1      23.496  14.315   5.755  0.00  0.00    -0.267 OA
ENDROOT
BRANCH   8  14
HETATM   14  C   UNK N   1      22.631  16.761   4.804  0.00  0.00     0.178 C 
BRANCH  14  15
HETATM   15  C   UNK N   1      21.668  16.594   3.638  0.00  0.00    -0.001 A 
HETATM   16  C   UNK N   1      21.044  17.731   3.098  0.00  0.00     0.125 A 
HETATM   17  C   UNK N   1      20.262  17.623   1.943  0.00  0.00     0.062 A 
HETATM   18  F   UNK N   1      21.230  18.950   3.662  0.00  0.00    -0.205 F 
HETATM   19  C   UNK N   1      20.086  16.383   1.325  0.00  0.00     0.013 A 
HETATM   20  C   UNK N   1      20.663  15.240   1.879  0.00  0.00     0.020 A 
HETATM   21 Br   UNK N   1      19.100  16.255  -0.302  0.00  0.00    -0.051 Br
HETATM   22  C   UNK N   1      21.445  15.344   3.032  0.00  0.00     0.013 A 
ENDBRANCH  14  15
ENDBRANCH   8  14
BRANCH  10  23
HETATM   23  C   UNK N   1      20.018  17.033   8.979  0.00  0.00     0.243 C 
BRANCH  23  24
HETATM   24  C   UNK N   1      18.567  16.850   8.605  0.00  0.00     0.158 C 
HETATM   25  O   UNK N   1      17.678  17.183   9.372  0.00  0.00    -0.649 OA
BRANCH  24  26
HETATM   26  O   UNK N   1      18.247  16.293   7.422  0.00  0.00    -0.775 OA
HETATM   27  H   UNK N   1      18.791  16.407   6.669  0.00  0.00     0.167 HD
ENDBRANCH  24  26
ENDBRANCH  23  24
ENDBRANCH  10  23
TORSDOF 5
ENDMDL
MODEL 6
REMARK VINA RESULT:      -6.8      4.191      5.736
REMARK  5 active torsions:
REMARK  status: ('A' for Active; 'I' for Inactive)
REMARK    1  A    between atoms: N_8  and  C_11 
REMARK    2  A    between atoms: N_10  and  C_19 
REMARK    3  A    between atoms: C_11  and  C_12 
REMARK    4  A    between atoms: C_19  and  C_20 
REMARK    5  A    between atoms: C_20  and  O_22 
ROOT
HETATM    1  C   UNK N   1      34.083   9.394  10.926  0.00  0.00     0.025 A 
HETATM    2  C   UNK N   1      33.753   9.842  12.205  0.00  0.00     0.021 A 
HETATM    3  C   UNK N   1      34.398  10.961  12.754  0.00  0.00     0.059 A 
HETATM    4  C   UNK N   1      35.367  11.654  12.005  0.00  0.00     0.056 A 
HETATM    5  C   UNK N   1      35.684  11.192  10.714  0.00  0.00     0.054 A 
HETATM    6  C   UNK N   1      35.051  10.068  10.183  0.00  0.00     0.036 A 
HETATM    7  C   UNK N   1      34.094  11.395  14.043  0.00  0.00     0.264 A 
HETATM    8  N   UNK N   1      34.792  12.451  14.602  0.00  0.00    -0.261 N 
HETATM    9  C   UNK N   1      35.721  13.138  13.842  0.00  0.00     0.332 A 
HETATM   10  N   UNK N   1      35.986  12.757  12.538  0.00  0.00    -0.288 N 
HETATM   11 Cl   UNK N   1      35.475   9.501   8.583  0.00  0.00    -0.084 Cl
HETATM   12  O   UNK N   1      36.304  14.102  14.322  0.00  0.00    -0.246 OA
HETATM   13  O   UNK N   1      33.223  10.824  14.681  0.00  0.00    -0.267 OA
ENDROOT
BRANCH   8  14
HETATM   14  C   UNK N   1      34.525  12.882  15.988  0.00  0.00     0.178 C 
BRANCH  14  15
HETATM   15  C   UNK N   1      35.249  12.082  17.061  0.00  0.00    -0.001 A 
HETATM   16  C   UNK N   1      35.224  12.541  18.389  0.00  0.00     0.125 A 
HETATM   17  C   UNK N   1      35.764  11.756  19.415  0.00  0.00     0.062 A 
HETATM   18  F   UNK N   1      34.638  13.724  18.697  0.00  0.00    -0.205 F 
HETATM   19  C   UNK N   1      36.341  10.517  19.125  0.00  0.00     0.013 A 
HETATM   20  C   UNK N   1      36.412  10.074  17.803  0.00  0.00     0.020 A 
HETATM   21 Br   UNK N   1      36.989   9.410  20.535  0.00  0.00    -0.051 Br
HETATM   22  C   UNK N   1      35.874  10.854  16.777  0.00  0.00     0.013 A 
ENDBRANCH  14  15
ENDBRANCH   8  14
BRANCH  10  23
HETATM   23  C   UNK N   1      36.947  13.538  11.741  0.00  0.00     0.243 C 
BRANCH  23  24
HETATM   24  C   UNK N   1      36.308  14.771  11.152  0.00  0.00     0.158 C 
HETATM   25  O   UNK N   1      35.132  14.770  10.829  0.00  0.00    -0.649 OA
BRANCH  24  26
HETATM   26  O   UNK N   1      37.048  15.879  10.957  0.00  0.00    -0.775 OA
HETATM   27  H   UNK N   1      36.742  16.577  10.412  0.00  0.00     0.167 HD
ENDBRANCH  24  26
ENDBRANCH  23  24
ENDBRANCH  10  23
TORSDOF 5
ENDMDL
MODEL 7
REMARK VINA RESULT:      -6.7      4.371      7.300
REMARK  5 active torsions:
REMARK  status: ('A' for Active; 'I' for Inactive)
REMARK    1  A    between atoms: N_8  and  C_11 
REMARK    2  A    between atoms: N_10  and  C_19 
REMARK    3  A    between atoms: C_11  and  C_12 
REMARK    4  A    between atoms: C_19  and  C_20 
REMARK    5  A    between atoms: C_20  and  O_22 
ROOT
HETATM    1  C   UNK N   1      36.219  14.623  12.713  0.00  0.00     0.025 A 
HETATM    2  C   UNK N   1      35.791  15.636  11.855  0.00  0.00     0.021 A 
HETATM    3  C   UNK N   1      35.367  15.330  10.552  0.00  0.00     0.059 A 
HETATM    4  C   UNK N   1      35.349  13.994  10.112  0.00  0.00     0.056 A 
HETATM    5  C   UNK N   1      35.778  12.984  10.993  0.00  0.00     0.054 A 
HETATM    6  C   UNK N   1      36.216  13.298  12.280  0.00  0.00     0.036 A 
HETATM    7  C   UNK N   1      34.967  16.340   9.680  0.00  0.00     0.264 A 
HETATM    8  N   UNK N   1      34.626  16.035   8.374  0.00  0.00    -0.261 N 
HETATM    9  C   UNK N   1      34.586  14.714   7.967  0.00  0.00     0.332 A 
HETATM   10  N   UNK N   1      34.919  13.695   8.843  0.00  0.00    -0.288 N 
HETATM   11 Cl   UNK N   1      36.763  12.027  13.351  0.00  0.00    -0.084 Cl
HETATM   12  O   UNK N   1      34.238  14.441   6.825  0.00  0.00    -0.246 OA
HETATM   13  O   UNK N   1      34.939  17.498  10.070  0.00  0.00    -0.267 OA
ENDROOT
BRANCH   8  14
HETATM   14  C   UNK N   1      34.261  17.101   7.421  0.00  0.00     0.178 C 
BRANCH  14  15
HETATM   15  C   UNK N   1      32.767  17.307   7.227  0.00  0.00    -0.001 A 
HETATM   16  C   UNK N   1      32.214  17.139   5.946  0.00  0.00     0.125 A 
HETATM   17  C   UNK N   1      30.826  17.189   5.767  0.00  0.00     0.062 A 
HETATM   18  F   UNK N   1      33.012  16.882   4.881  0.00  0.00    -0.205 F 
HETATM   19  C   UNK N   1      29.983  17.417   6.856  0.00  0.00     0.013 A 
HETATM   20  C   UNK N   1      30.525  17.631   8.125  0.00  0.00     0.020 A 
HETATM   21 Br   UNK N   1      28.091  17.388   6.624  0.00  0.00    -0.051 Br
HETATM   22  C   UNK N   1      31.909  17.582   8.307  0.00  0.00     0.013 A 
ENDBRANCH  14  15
ENDBRANCH   8  14
BRANCH  10  23
HETATM   23  C   UNK N   1      34.823  12.297   8.391  0.00  0.00     0.243 C 
BRANCH  23  24
HETATM   24  C   UNK N   1      33.392  11.819   8.369  0.00  0.00     0.158 C 
HETATM   25  O   UNK N   1      32.920  11.308   7.367  0.00  0.00    -0.649 OA
BRANCH  24  26
HETATM   26  O   UNK N   1      32.617  11.978   9.459  0.00  0.00    -0.775 OA
HETATM   27  H   UNK N   1      31.957  12.641   9.493  0.00  0.00     0.167 HD
ENDBRANCH  24  26
ENDBRANCH  23  24
ENDBRANCH  10  23
TORSDOF 5
ENDMDL
MODEL 8
REMARK VINA RESULT:      -6.7     12.101     14.348
REMARK  5 active torsions:
REMARK  status: ('A' for Active; 'I' for Inactive)
REMARK    1  A    between atoms: N_8  and  C_11 
REMARK    2  A    between atoms: N_10  and  C_19 
REMARK    3  A    between atoms: C_11  and  C_12 
REMARK    4  A    between atoms: C_19  and  C_20 
REMARK    5  A    between atoms: C_20  and  O_22 
ROOT
HETATM    1  C   UNK N   1      22.411  12.158   9.207  0.00  0.00     0.025 A 
HETATM    2  C   UNK N   1      22.922  12.680   8.018  0.00  0.00     0.021 A 
HETATM    3  C   UNK N   1      22.505  13.939   7.558  0.00  0.00     0.059 A 
HETATM    4  C   UNK N   1      21.584  14.693   8.309  0.00  0.00     0.056 A 
HETATM    5  C   UNK N   1      21.083  14.154   9.508  0.00  0.00     0.054 A 
HETATM    6  C   UNK N   1      21.488  12.894   9.949  0.00  0.00     0.036 A 
HETATM    7  C   UNK N   1      22.989  14.453   6.358  0.00  0.00     0.264 A 
HETATM    8  N   UNK N   1      22.511  15.659   5.876  0.00  0.00    -0.261 N 
HETATM    9  C   UNK N   1      21.628  16.400   6.639  0.00  0.00     0.332 A 
HETATM   10  N   UNK N   1      21.188  15.931   7.865  0.00  0.00    -0.288 N 
HETATM   11 Cl   UNK N   1      20.837  12.237  11.433  0.00  0.00    -0.084 Cl
HETATM   12  O   UNK N   1      21.242  17.490   6.234  0.00  0.00    -0.246 OA
HETATM   13  O   UNK N   1      23.822  13.822   5.724  0.00  0.00    -0.267 OA
ENDROOT
BRANCH   8  14
HETATM   14  C   UNK N   1      22.968  16.186   4.575  0.00  0.00     0.178 C 
BRANCH  14  15
HETATM   15  C   UNK N   1      24.143  17.149   4.647  0.00  0.00    -0.001 A 
HETATM   16  C   UNK N   1      23.946  18.495   4.296  0.00  0.00     0.125 A 
HETATM   17  C   UNK N   1      24.972  19.428   4.483  0.00  0.00     0.062 A 
HETATM   18  F   UNK N   1      22.748  18.912   3.819  0.00  0.00    -0.205 F 
HETATM   19  C   UNK N   1      26.203  19.026   5.008  0.00  0.00     0.013 A 
HETATM   20  C   UNK N   1      26.424  17.683   5.316  0.00  0.00     0.020 A 
HETATM   21 Br   UNK N   1      27.564  20.316   5.350  0.00  0.00    -0.051 Br
HETATM   22  C   UNK N   1      25.401  16.749   5.131  0.00  0.00     0.013 A 
ENDBRANCH  14  15
ENDBRANCH   8  14
BRANCH  10  23
HETATM   23  C   UNK N   1      20.284  16.766   8.673  0.00  0.00     0.243 C 
BRANCH  23  24
HETATM   24  C   UNK N   1      18.837  16.414   8.428  0.00  0.00     0.158 C 
HETATM   25  O   UNK N   1      18.094  16.147   9.358  0.00  0.00    -0.649 OA
BRANCH  24  26
HETATM   26  O   UNK N   1      18.364  16.371   7.168  0.00  0.00    -0.775 OA
HETATM   27  H   UNK N   1      18.879  16.669   6.445  0.00  0.00     0.167 HD
ENDBRANCH  24  26
ENDBRANCH  23  24
ENDBRANCH  10  23
TORSDOF 5
ENDMDL
MODEL 9
REMARK VINA RESULT:      -6.4     16.016     17.828
REMARK  5 active torsions:
REMARK  status: ('A' for Active; 'I' for Inactive)
REMARK    1  A    between atoms: N_8  and  C_11 
REMARK    2  A    between atoms: N_10  and  C_19 
REMARK    3  A    between atoms: C_11  and  C_12 
REMARK    4  A    between atoms: C_19  and  C_20 
REMARK    5  A    between atoms: C_20  and  O_22 
ROOT
HETATM    1  C   UNK N   1      27.469  22.406  -8.406  0.00  0.00     0.025 A 
HETATM    2  C   UNK N   1      28.400  21.493  -7.910  0.00  0.00     0.021 A 
HETATM    3  C   UNK N   1      29.000  21.701  -6.658  0.00  0.00     0.059 A 
HETATM    4  C   UNK N   1      28.647  22.823  -5.885  0.00  0.00     0.056 A 
HETATM    5  C   UNK N   1      27.702  23.731  -6.399  0.00  0.00     0.054 A 
HETATM    6  C   UNK N   1      27.124  23.526  -7.652  0.00  0.00     0.036 A 
HETATM    7  C   UNK N   1      29.952  20.809  -6.169  0.00  0.00     0.264 A 
HETATM    8  N   UNK N   1      30.593  21.067  -4.971  0.00  0.00    -0.261 N 
HETATM    9  C   UNK N   1      30.214  22.158  -4.210  0.00  0.00     0.332 A 
HETATM   10  N   UNK N   1      29.224  23.017  -4.655  0.00  0.00    -0.288 N 
HETATM   11 Cl   UNK N   1      25.967  24.679  -8.279  0.00  0.00    -0.084 Cl
HETATM   12  O   UNK N   1      30.749  22.358  -3.127  0.00  0.00    -0.246 OA
HETATM   13  O   UNK N   1      30.230  19.811  -6.816  0.00  0.00    -0.267 OA
ENDROOT
BRANCH   8  14
HETATM   14  C   UNK N   1      31.649  20.164  -4.471  0.00  0.00     0.178 C 
BRANCH  14  15
HETATM   15  C   UNK N   1      33.072  20.609  -4.771  0.00  0.00    -0.001 A 
HETATM   16  C   UNK N   1      33.955  20.841  -3.703  0.00  0.00     0.125 A 
HETATM   17  C   UNK N   1      35.304  21.118  -3.953  0.00  0.00     0.062 A 
HETATM   18  F   UNK N   1      33.522  20.752  -2.421  0.00  0.00    -0.205 F 
HETATM   19  C   UNK N   1      35.779  21.179  -5.266  0.00  0.00     0.013 A 
HETATM   20  C   UNK N   1      34.900  20.996  -6.334  0.00  0.00     0.020 A 
HETATM   21 Br   UNK N   1      37.635  21.462  -5.599  0.00  0.00    -0.051 Br
HETATM   22  C   UNK N   1      33.553  20.719  -6.088  0.00  0.00     0.013 A 
ENDBRANCH  14  15
ENDBRANCH   8  14
BRANCH  10  23
HETATM   23  C   UNK N   1      28.812  24.144  -3.800  0.00  0.00     0.243 C 
BRANCH  23  24
HETATM   24  C   UNK N   1      27.744  23.733  -2.817  0.00  0.00     0.158 C 
HETATM   25  O   UNK N   1      26.583  24.068  -2.981  0.00  0.00    -0.649 OA
BRANCH  24  26
HETATM   26  O   UNK N   1      28.078  23.010  -1.731  0.00  0.00    -0.775 OA
HETATM   27  H   UNK N   1      27.426  22.579  -1.216  0.00  0.00     0.167 HD
ENDBRANCH  24  26
ENDBRANCH  23  24
ENDBRANCH  10  23
TORSDOF 5
ENDMDL
