MODEL 1
REMARK VINA RESULT:      -5.4      0.000      0.000
REMARK  8 active torsions:
REMARK  status: ('A' for Active; 'I' for Inactive)
REMARK    1  A    between atoms: N_2  and  C_9 
REMARK    2  A    between atoms: N_2  and  C_11 
REMARK    3  A    between atoms: N_2  and  C_12 
REMARK    4  A    between atoms: N_3  and  C_8 
REMARK    5  A    between atoms: N_3  and  C_13 
REMARK    6  A    between atoms: C_6  and  C_7 
REMARK    7  A    between atoms: C_6  and  C_8 
REMARK    8  A    between atoms: C_7  and  C_9 
ROOT
HETATM    1 Cl   UNK N   1      32.921  13.979   2.664  0.00  0.00    -0.084 Cl
HETATM    2  N   UNK N   1      34.074  17.328   6.353  0.00  0.00    -0.365 N 
ATOM      3  HN  UNK N   1      34.963  17.469   5.873  1.00  0.00     0.165 HD
HETATM    4  C   UNK N   1      31.663  16.948   7.663  0.00  0.00     0.042 A 
HETATM    5  C   UNK N   1      31.943  16.227   6.495  0.00  0.00     0.017 A 
HETATM    6  C   UNK N   1      32.599  17.861   8.154  0.00  0.00     0.047 A 
HETATM    7  C   UNK N   1      33.178  16.441   5.844  0.00  0.00     0.046 A 
HETATM    8  C   UNK N   1      31.016  15.330   5.950  0.00  0.00     0.018 A 
HETATM    9  C   UNK N   1      33.812  18.032   7.488  0.00  0.00     0.090 A 
HETATM   10  C   UNK N   1      33.470  15.751   4.665  0.00  0.00     0.054 A 
HETATM   11  C   UNK N   1      31.317  14.642   4.771  0.00  0.00     0.025 A 
HETATM   12  C   UNK N   1      32.543  14.852   4.131  0.00  0.00     0.036 A 
ENDROOT
BRANCH   4  13
HETATM   13  N   UNK N   1      30.404  16.840   8.285  0.00  0.00    -0.385 N 
HETATM   14  H   UNK N   1      30.087  15.986   8.658  0.00  0.00     0.160 HD
BRANCH  13  15
HETATM   15  C   UNK N   1      29.605  18.029   8.352  0.00  0.00     0.077 C 
HETATM   16  C   UNK N   1      29.515  18.642   9.739  0.00  0.00     0.032 C 
BRANCH  15  17
HETATM   17  C   UNK N   1      28.384  17.982   7.436  0.00  0.00     0.026 C 
BRANCH  17  18
HETATM   18  C   UNK N   1      28.695  18.085   5.956  0.00  0.00     0.032 C 
BRANCH  18  19
HETATM   19  C   UNK N   1      28.082  19.323   5.288  0.00  0.00     0.272 C 
BRANCH  19  20
HETATM   20  N   UNK N   1      26.615  19.322   5.371  0.00  0.00     0.087 N 
BRANCH  20  21
HETATM   21  C   UNK N   1      26.052  19.044   4.043  0.00  0.00     0.268 C 
HETATM   22  C   UNK N   1      26.065  20.291   3.181  0.00  0.00     0.037 C 
ENDBRANCH  20  21
BRANCH  20  23
HETATM   23  C   UNK N   1      26.221  20.626   5.926  0.00  0.00     0.268 C 
HETATM   24  C   UNK N   1      27.369  21.535   6.351  0.00  0.00     0.037 C 
ENDBRANCH  20  23
ENDBRANCH  19  20
ENDBRANCH  18  19
ENDBRANCH  17  18
ENDBRANCH  15  17
ENDBRANCH  13  15
ENDBRANCH   4  13
TORSDOF 8
ENDMDL
MODEL 2
REMARK VINA RESULT:      -5.4      2.184      3.968
REMARK  8 active torsions:
REMARK  status: ('A' for Active; 'I' for Inactive)
REMARK    1  A    between atoms: N_2  and  C_9 
REMARK    2  A    between atoms: N_2  and  C_11 
REMARK    3  A    between atoms: N_2  and  C_12 
REMARK    4  A    between atoms: N_3  and  C_8 
REMARK    5  A    between atoms: N_3  and  C_13 
REMARK    6  A    between atoms: C_6  and  C_7 
REMARK    7  A    between atoms: C_6  and  C_8 
REMARK    8  A    between atoms: C_7  and  C_9 
ROOT
HETATM    1 Cl   UNK N   1      33.753  15.999   5.894  0.00  0.00    -0.084 Cl
HETATM    2  N   UNK N   1      30.473  17.796   9.381  0.00  0.00    -0.365 N 
ATOM      3  HN  UNK N   1      31.209  17.650  10.071  1.00  0.00     0.165 HD
HETATM    4  C   UNK N   1      28.467  18.193   7.512  0.00  0.00     0.042 A 
HETATM    5  C   UNK N   1      29.698  17.662   7.110  0.00  0.00     0.017 A 
HETATM    6  C   UNK N   1      28.261  18.528   8.852  0.00  0.00     0.047 A 
HETATM    7  C   UNK N   1      30.706  17.472   8.081  0.00  0.00     0.046 A 
HETATM    8  C   UNK N   1      29.957  17.349   5.769  0.00  0.00     0.018 A 
HETATM    9  C   UNK N   1      29.278  18.312   9.782  0.00  0.00     0.090 A 
HETATM   10  C   UNK N   1      31.951  16.965   7.700  0.00  0.00     0.054 A 
HETATM   11  C   UNK N   1      31.204  16.840   5.398  0.00  0.00     0.025 A 
HETATM   12  C   UNK N   1      32.198  16.648   6.362  0.00  0.00     0.036 A 
ENDROOT
BRANCH   4  13
HETATM   13  N   UNK N   1      27.473  18.494   6.561  0.00  0.00    -0.385 N 
HETATM   14  H   UNK N   1      26.684  17.916   6.442  0.00  0.00     0.160 HD
BRANCH  13  15
HETATM   15  C   UNK N   1      27.659  19.678   5.773  0.00  0.00     0.077 C 
HETATM   16  C   UNK N   1      27.263  20.964   6.479  0.00  0.00     0.032 C 
BRANCH  15  17
HETATM   17  C   UNK N   1      27.346  19.468   4.294  0.00  0.00     0.026 C 
BRANCH  17  18
HETATM   18  C   UNK N   1      26.080  18.684   4.016  0.00  0.00     0.032 C 
BRANCH  18  19
HETATM   19  C   UNK N   1      24.830  19.565   3.895  0.00  0.00     0.272 C 
BRANCH  19  20
HETATM   20  N   UNK N   1      23.612  18.852   4.304  0.00  0.00     0.087 N 
BRANCH  20  21
HETATM   21  C   UNK N   1      23.837  17.403   4.199  0.00  0.00     0.268 C 
HETATM   22  C   UNK N   1      23.329  16.690   5.438  0.00  0.00     0.037 C 
ENDBRANCH  20  21
BRANCH  20  23
HETATM   23  C   UNK N   1      22.522  19.351   3.451  0.00  0.00     0.268 C 
HETATM   24  C   UNK N   1      21.119  19.226   4.035  0.00  0.00     0.037 C 
ENDBRANCH  20  23
ENDBRANCH  19  20
ENDBRANCH  18  19
ENDBRANCH  17  18
ENDBRANCH  15  17
ENDBRANCH  13  15
ENDBRANCH   4  13
TORSDOF 8
ENDMDL
MODEL 3
REMARK VINA RESULT:      -5.3      2.801      4.810
REMARK  8 active torsions:
REMARK  status: ('A' for Active; 'I' for Inactive)
REMARK    1  A    between atoms: N_2  and  C_9 
REMARK    2  A    between atoms: N_2  and  C_11 
REMARK    3  A    between atoms: N_2  and  C_12 
REMARK    4  A    between atoms: N_3  and  C_8 
REMARK    5  A    between atoms: N_3  and  C_13 
REMARK    6  A    between atoms: C_6  and  C_7 
REMARK    7  A    between atoms: C_6  and  C_8 
REMARK    8  A    between atoms: C_7  and  C_9 
ROOT
HETATM    1 Cl   UNK N   1      35.345  16.470  11.279  0.00  0.00    -0.084 Cl
HETATM    2  N   UNK N   1      35.320  14.026   6.787  0.00  0.00    -0.365 N 
ATOM      3  HN  UNK N   1      35.761  13.244   7.271  1.00  0.00     0.165 HD
HETATM    4  C   UNK N   1      34.125  16.147   5.466  0.00  0.00     0.042 A 
HETATM    5  C   UNK N   1      34.416  16.251   6.832  0.00  0.00     0.017 A 
HETATM    6  C   UNK N   1      34.432  14.969   4.780  0.00  0.00     0.047 A 
HETATM    7  C   UNK N   1      35.022  15.154   7.483  0.00  0.00     0.046 A 
HETATM    8  C   UNK N   1      34.090  17.401   7.563  0.00  0.00     0.018 A 
HETATM    9  C   UNK N   1      35.043  13.915   5.459  0.00  0.00     0.090 A 
HETATM   10  C   UNK N   1      35.301  15.227   8.850  0.00  0.00     0.054 A 
HETATM   11  C   UNK N   1      34.374  17.465   8.930  0.00  0.00     0.025 A 
HETATM   12  C   UNK N   1      34.980  16.380   9.571  0.00  0.00     0.036 A 
ENDROOT
BRANCH   4  13
HETATM   13  N   UNK N   1      33.429  17.176   4.803  0.00  0.00    -0.385 N 
HETATM   14  H   UNK N   1      33.840  18.057   4.648  0.00  0.00     0.160 HD
BRANCH  13  15
HETATM   15  C   UNK N   1      32.096  16.884   4.362  0.00  0.00     0.077 C 
HETATM   16  C   UNK N   1      31.892  17.014   2.862  0.00  0.00     0.032 C 
BRANCH  15  17
HETATM   17  C   UNK N   1      31.024  17.357   5.342  0.00  0.00     0.026 C 
BRANCH  17  18
HETATM   18  C   UNK N   1      30.267  16.247   6.043  0.00  0.00     0.032 C 
BRANCH  18  19
HETATM   19  C   UNK N   1      28.939  16.707   6.657  0.00  0.00     0.272 C 
BRANCH  19  20
HETATM   20  N   UNK N   1      28.963  18.134   7.010  0.00  0.00     0.087 N 
BRANCH  20  21
HETATM   21  C   UNK N   1      28.943  18.276   8.472  0.00  0.00     0.268 C 
HETATM   22  C   UNK N   1      30.334  18.564   9.002  0.00  0.00     0.037 C 
ENDBRANCH  20  21
BRANCH  20  23
HETATM   23  C   UNK N   1      27.814  18.756   6.333  0.00  0.00     0.268 C 
HETATM   24  C   UNK N   1      27.494  20.185   6.757  0.00  0.00     0.037 C 
ENDBRANCH  20  23
ENDBRANCH  19  20
ENDBRANCH  18  19
ENDBRANCH  17  18
ENDBRANCH  15  17
ENDBRANCH  13  15
ENDBRANCH   4  13
TORSDOF 8
ENDMDL
MODEL 4
REMARK VINA RESULT:      -5.3      2.419      4.416
REMARK  8 active torsions:
REMARK  status: ('A' for Active; 'I' for Inactive)
REMARK    1  A    between atoms: N_2  and  C_9 
REMARK    2  A    between atoms: N_2  and  C_11 
REMARK    3  A    between atoms: N_2  and  C_12 
REMARK    4  A    between atoms: N_3  and  C_8 
REMARK    5  A    between atoms: N_3  and  C_13 
REMARK    6  A    between atoms: C_6  and  C_7 
REMARK    7  A    between atoms: C_6  and  C_8 
REMARK    8  A    between atoms: C_7  and  C_9 
ROOT
HETATM    1 Cl   UNK N   1      34.015  16.681   5.779  0.00  0.00    -0.084 Cl
HETATM    2  N   UNK N   1      30.681  18.017   9.419  0.00  0.00    -0.365 N 
ATOM      3  HN  UNK N   1      31.468  18.006  10.068  1.00  0.00     0.165 HD
HETATM    4  C   UNK N   1      28.541  18.049   7.661  0.00  0.00     0.042 A 
HETATM    5  C   UNK N   1      29.818  17.710   7.198  0.00  0.00     0.017 A 
HETATM    6  C   UNK N   1      28.357  18.378   9.006  0.00  0.00     0.047 A 
HETATM    7  C   UNK N   1      30.894  17.705   8.114  0.00  0.00     0.046 A 
HETATM    8  C   UNK N   1      30.051  17.411   5.849  0.00  0.00     0.018 A 
HETATM    9  C   UNK N   1      29.443  18.347   9.879  0.00  0.00     0.090 A 
HETATM   10  C   UNK N   1      32.181  17.392   7.670  0.00  0.00     0.054 A 
HETATM   11  C   UNK N   1      31.342  17.098   5.415  0.00  0.00     0.025 A 
HETATM   12  C   UNK N   1      32.404  17.087   6.325  0.00  0.00     0.036 A 
ENDROOT
BRANCH   4  13
HETATM   13  N   UNK N   1      27.463  18.167   6.763  0.00  0.00    -0.385 N 
HETATM   14  H   UNK N   1      26.767  17.473   6.703  0.00  0.00     0.160 HD
BRANCH  13  15
HETATM   15  C   UNK N   1      27.423  19.341   5.941  0.00  0.00     0.077 C 
HETATM   16  C   UNK N   1      26.998  20.602   6.676  0.00  0.00     0.032 C 
BRANCH  15  17
HETATM   17  C   UNK N   1      26.936  19.062   4.521  0.00  0.00     0.026 C 
BRANCH  17  18
HETATM   18  C   UNK N   1      26.520  17.627   4.261  0.00  0.00     0.032 C 
BRANCH  18  19
HETATM   19  C   UNK N   1      27.494  16.864   3.354  0.00  0.00     0.272 C 
BRANCH  19  20
HETATM   20  N   UNK N   1      27.233  15.418   3.361  0.00  0.00     0.087 N 
BRANCH  20  21
HETATM   21  C   UNK N   1      28.395  14.715   3.920  0.00  0.00     0.268 C 
HETATM   22  C   UNK N   1      29.404  14.395   2.834  0.00  0.00     0.037 C 
ENDBRANCH  20  21
BRANCH  20  23
HETATM   23  C   UNK N   1      26.915  15.039   1.975  0.00  0.00     0.268 C 
HETATM   24  C   UNK N   1      25.430  14.978   1.633  0.00  0.00     0.037 C 
ENDBRANCH  20  23
ENDBRANCH  19  20
ENDBRANCH  18  19
ENDBRANCH  17  18
ENDBRANCH  15  17
ENDBRANCH  13  15
ENDBRANCH   4  13
TORSDOF 8
ENDMDL
MODEL 5
REMARK VINA RESULT:      -5.2      2.903      6.428
REMARK  8 active torsions:
REMARK  status: ('A' for Active; 'I' for Inactive)
REMARK    1  A    between atoms: N_2  and  C_9 
REMARK    2  A    between atoms: N_2  and  C_11 
REMARK    3  A    between atoms: N_2  and  C_12 
REMARK    4  A    between atoms: N_3  and  C_8 
REMARK    5  A    between atoms: N_3  and  C_13 
REMARK    6  A    between atoms: C_6  and  C_7 
REMARK    7  A    between atoms: C_6  and  C_8 
REMARK    8  A    between atoms: C_7  and  C_9 
ROOT
HETATM    1 Cl   UNK N   1      24.647  20.696   2.557  0.00  0.00    -0.084 Cl
HETATM    2  N   UNK N   1      25.494  16.665   5.588  0.00  0.00    -0.365 N 
ATOM      3  HN  UNK N   1      24.616  16.284   5.236  1.00  0.00     0.165 HD
HETATM    4  C   UNK N   1      27.878  17.696   6.550  0.00  0.00     0.042 A 
HETATM    5  C   UNK N   1      27.127  18.427   5.621  0.00  0.00     0.017 A 
HETATM    6  C   UNK N   1      27.423  16.447   6.979  0.00  0.00     0.047 A 
HETATM    7  C   UNK N   1      25.916  17.878   5.143  0.00  0.00     0.046 A 
HETATM    8  C   UNK N   1      27.567  19.666   5.138  0.00  0.00     0.018 A 
HETATM    9  C   UNK N   1      26.216  15.948   6.492  0.00  0.00     0.090 A 
HETATM   10  C   UNK N   1      25.162  18.578   4.198  0.00  0.00     0.054 A 
HETATM   11  C   UNK N   1      26.805  20.360   4.195  0.00  0.00     0.025 A 
HETATM   12  C   UNK N   1      25.604  19.817   3.728  0.00  0.00     0.036 A 
ENDROOT
BRANCH   4  13
HETATM   13  N   UNK N   1      29.138  18.159   6.973  0.00  0.00    -0.385 N 
HETATM   14  H   UNK N   1      29.593  18.903   6.515  0.00  0.00     0.160 HD
BRANCH  13  15
HETATM   15  C   UNK N   1      29.731  17.501   8.101  0.00  0.00     0.077 C 
HETATM   16  C   UNK N   1      29.713  18.321   9.381  0.00  0.00     0.032 C 
BRANCH  15  17
HETATM   17  C   UNK N   1      30.947  16.656   7.730  0.00  0.00     0.026 C 
BRANCH  17  18
HETATM   18  C   UNK N   1      31.548  16.965   6.374  0.00  0.00     0.032 C 
BRANCH  18  19
HETATM   19  C   UNK N   1      32.103  15.728   5.656  0.00  0.00     0.272 C 
BRANCH  19  20
HETATM   20  N   UNK N   1      31.414  15.476   4.382  0.00  0.00     0.087 N 
BRANCH  20  21
HETATM   21  C   UNK N   1      32.401  15.110   3.358  0.00  0.00     0.268 C 
HETATM   22  C   UNK N   1      33.224  16.316   2.948  0.00  0.00     0.037 C 
ENDBRANCH  20  21
BRANCH  20  23
HETATM   23  C   UNK N   1      30.649  16.693   4.067  0.00  0.00     0.268 C 
HETATM   24  C   UNK N   1      29.346  16.473   3.307  0.00  0.00     0.037 C 
ENDBRANCH  20  23
ENDBRANCH  19  20
ENDBRANCH  18  19
ENDBRANCH  17  18
ENDBRANCH  15  17
ENDBRANCH  13  15
ENDBRANCH   4  13
TORSDOF 8
ENDMDL
MODEL 6
REMARK VINA RESULT:      -5.2      7.965      9.984
REMARK  8 active torsions:
REMARK  status: ('A' for Active; 'I' for Inactive)
REMARK    1  A    between atoms: N_2  and  C_9 
REMARK    2  A    between atoms: N_2  and  C_11 
REMARK    3  A    between atoms: N_2  and  C_12 
REMARK    4  A    between atoms: N_3  and  C_8 
REMARK    5  A    between atoms: N_3  and  C_13 
REMARK    6  A    between atoms: C_6  and  C_7 
REMARK    7  A    between atoms: C_6  and  C_8 
REMARK    8  A    between atoms: C_7  and  C_9 
ROOT
HETATM    1 Cl   UNK N   1      23.146  11.577  13.100  0.00  0.00    -0.084 Cl
HETATM    2  N   UNK N   1      24.590  13.325   8.516  0.00  0.00    -0.365 N 
ATOM      3  HN  UNK N   1      25.552  13.187   8.826  1.00  0.00     0.165 HD
HETATM    4  C   UNK N   1      21.980  13.705   7.668  0.00  0.00     0.042 A 
HETATM    5  C   UNK N   1      22.231  13.216   8.957  0.00  0.00     0.017 A 
HETATM    6  C   UNK N   1      23.049  13.989   6.816  0.00  0.00     0.047 A 
HETATM    7  C   UNK N   1      23.570  13.028   9.364  0.00  0.00     0.046 A 
HETATM    8  C   UNK N   1      21.186  12.884   9.829  0.00  0.00     0.018 A 
HETATM    9  C   UNK N   1      24.357  13.802   7.262  0.00  0.00     0.090 A 
HETATM   10  C   UNK N   1      23.844  12.520  10.636  0.00  0.00     0.054 A 
HETATM   11  C   UNK N   1      21.469  12.378  11.100  0.00  0.00     0.025 A 
HETATM   12  C   UNK N   1      22.796  12.198  11.503  0.00  0.00     0.036 A 
ENDROOT
BRANCH   4  13
HETATM   13  N   UNK N   1      20.661  13.810   7.188  0.00  0.00    -0.385 N 
HETATM   14  H   UNK N   1      19.969  13.156   7.439  0.00  0.00     0.160 HD
BRANCH  13  15
HETATM   15  C   UNK N   1      20.369  14.911   6.317  0.00  0.00     0.077 C 
HETATM   16  C   UNK N   1      19.807  16.133   7.024  0.00  0.00     0.032 C 
BRANCH  15  17
HETATM   17  C   UNK N   1      19.825  14.473   4.959  0.00  0.00     0.026 C 
BRANCH  17  18
HETATM   18  C   UNK N   1      19.524  15.607   3.999  0.00  0.00     0.032 C 
BRANCH  18  19
HETATM   19  C   UNK N   1      20.595  15.788   2.915  0.00  0.00     0.272 C 
BRANCH  19  20
HETATM   20  N   UNK N   1      21.297  17.073   3.045  0.00  0.00     0.087 N 
BRANCH  20  21
HETATM   21  C   UNK N   1      22.528  16.879   3.824  0.00  0.00     0.268 C 
HETATM   22  C   UNK N   1      22.532  17.769   5.052  0.00  0.00     0.037 C 
ENDBRANCH  20  21
BRANCH  20  23
HETATM   23  C   UNK N   1      20.345  18.015   3.655  0.00  0.00     0.268 C 
HETATM   24  C   UNK N   1      19.881  19.156   2.757  0.00  0.00     0.037 C 
ENDBRANCH  20  23
ENDBRANCH  19  20
ENDBRANCH  18  19
ENDBRANCH  17  18
ENDBRANCH  15  17
ENDBRANCH  13  15
ENDBRANCH   4  13
TORSDOF 8
ENDMDL
MODEL 7
REMARK VINA RESULT:      -5.0      3.531      7.222
REMARK  8 active torsions:
REMARK  status: ('A' for Active; 'I' for Inactive)
REMARK    1  A    between atoms: N_2  and  C_9 
REMARK    2  A    between atoms: N_2  and  C_11 
REMARK    3  A    between atoms: N_2  and  C_12 
REMARK    4  A    between atoms: N_3  and  C_8 
REMARK    5  A    between atoms: N_3  and  C_13 
REMARK    6  A    between atoms: C_6  and  C_7 
REMARK    7  A    between atoms: C_6  and  C_8 
REMARK    8  A    between atoms: C_7  and  C_9 
ROOT
HETATM    1 Cl   UNK N   1      27.993  17.717   9.243  0.00  0.00    -0.084 Cl
HETATM    2  N   UNK N   1      33.013  18.030   8.316  0.00  0.00    -0.365 N 
ATOM      3  HN  UNK N   1      33.108  18.409   9.258  1.00  0.00     0.165 HD
HETATM    4  C   UNK N   1      32.759  17.005   5.755  0.00  0.00     0.042 A 
HETATM    5  C   UNK N   1      31.621  17.177   6.553  0.00  0.00     0.017 A 
HETATM    6  C   UNK N   1      34.016  17.343   6.260  0.00  0.00     0.047 A 
HETATM    7  C   UNK N   1      31.777  17.698   7.856  0.00  0.00     0.046 A 
HETATM    8  C   UNK N   1      30.347  16.815   6.097  0.00  0.00     0.018 A 
HETATM    9  C   UNK N   1      34.125  17.868   7.547  0.00  0.00     0.090 A 
HETATM   10  C   UNK N   1      30.659  17.857   8.679  0.00  0.00     0.054 A 
HETATM   11  C   UNK N   1      29.234  16.979   6.926  0.00  0.00     0.025 A 
HETATM   12  C   UNK N   1      29.391  17.501   8.214  0.00  0.00     0.036 A 
ENDROOT
BRANCH   4  13
HETATM   13  N   UNK N   1      32.660  16.393   4.490  0.00  0.00    -0.385 N 
HETATM   14  H   UNK N   1      32.058  16.746   3.795  0.00  0.00     0.160 HD
BRANCH  13  15
HETATM   15  C   UNK N   1      33.473  15.235   4.259  0.00  0.00     0.077 C 
HETATM   16  C   UNK N   1      33.777  14.970   2.794  0.00  0.00     0.032 C 
BRANCH  15  17
HETATM   17  C   UNK N   1      33.164  14.086   5.216  0.00  0.00     0.026 C 
BRANCH  17  18
HETATM   18  C   UNK N   1      34.373  13.499   5.918  0.00  0.00     0.032 C 
BRANCH  18  19
HETATM   19  C   UNK N   1      34.125  13.185   7.399  0.00  0.00     0.272 C 
BRANCH  19  20
HETATM   20  N   UNK N   1      34.900  14.066   8.284  0.00  0.00     0.087 N 
BRANCH  20  21
HETATM   21  C   UNK N   1      35.979  13.294   8.916  0.00  0.00     0.268 C 
HETATM   22  C   UNK N   1      35.587  11.836   9.054  0.00  0.00     0.037 C 
ENDBRANCH  20  21
BRANCH  20  23
HETATM   23  C   UNK N   1      33.946  14.652   9.239  0.00  0.00     0.268 C 
HETATM   24  C   UNK N   1      32.477  14.335   8.982  0.00  0.00     0.037 C 
ENDBRANCH  20  23
ENDBRANCH  19  20
ENDBRANCH  18  19
ENDBRANCH  17  18
ENDBRANCH  15  17
ENDBRANCH  13  15
ENDBRANCH   4  13
TORSDOF 8
ENDMDL
MODEL 8
REMARK VINA RESULT:      -4.9      7.838      9.805
REMARK  8 active torsions:
REMARK  status: ('A' for Active; 'I' for Inactive)
REMARK    1  A    between atoms: N_2  and  C_9 
REMARK    2  A    between atoms: N_2  and  C_11 
REMARK    3  A    between atoms: N_2  and  C_12 
REMARK    4  A    between atoms: N_3  and  C_8 
REMARK    5  A    between atoms: N_3  and  C_13 
REMARK    6  A    between atoms: C_6  and  C_7 
REMARK    7  A    between atoms: C_6  and  C_8 
REMARK    8  A    between atoms: C_7  and  C_9 
ROOT
HETATM    1 Cl   UNK N   1      34.748   9.572  17.958  0.00  0.00    -0.084 Cl
HETATM    2  N   UNK N   1      36.665  13.768  15.751  0.00  0.00    -0.365 N 
ATOM      3  HN  UNK N   1      37.182  13.921  16.616  1.00  0.00     0.165 HD
HETATM    4  C   UNK N   1      35.260  13.358  13.399  0.00  0.00     0.042 A 
HETATM    5  C   UNK N   1      35.112  12.461  14.464  0.00  0.00     0.017 A 
HETATM    6  C   UNK N   1      36.122  14.449  13.527  0.00  0.00     0.047 A 
HETATM    7  C   UNK N   1      35.843  12.690  15.652  0.00  0.00     0.046 A 
HETATM    8  C   UNK N   1      34.286  11.334  14.362  0.00  0.00     0.018 A 
HETATM    9  C   UNK N   1      36.813  14.647  14.721  0.00  0.00     0.090 A 
HETATM   10  C   UNK N   1      35.730  11.796  16.719  0.00  0.00     0.054 A 
HETATM   11  C   UNK N   1      34.178  10.447  15.436  0.00  0.00     0.025 A 
HETATM   12  C   UNK N   1      34.897  10.679  16.612  0.00  0.00     0.036 A 
ENDROOT
BRANCH   4  13
HETATM   13  N   UNK N   1      34.630  13.110  12.164  0.00  0.00    -0.385 N 
HETATM   14  H   UNK N   1      33.652  13.022  12.094  0.00  0.00     0.160 HD
BRANCH  13  15
HETATM   15  C   UNK N   1      35.476  12.993  11.012  0.00  0.00     0.077 C 
HETATM   16  C   UNK N   1      36.750  12.200  11.252  0.00  0.00     0.032 C 
BRANCH  15  17
HETATM   17  C   UNK N   1      35.491  14.253  10.149  0.00  0.00     0.026 C 
BRANCH  17  18
HETATM   18  C   UNK N   1      34.484  15.312  10.552  0.00  0.00     0.032 C 
BRANCH  18  19
HETATM   19  C   UNK N   1      34.295  16.407   9.494  0.00  0.00     0.272 C 
BRANCH  19  20
HETATM   20  N   UNK N   1      33.899  15.852   8.192  0.00  0.00     0.087 N 
BRANCH  20  21
HETATM   21  C   UNK N   1      34.177  16.836   7.137  0.00  0.00     0.268 C 
HETATM   22  C   UNK N   1      34.195  18.242   7.705  0.00  0.00     0.037 C 
ENDBRANCH  20  21
BRANCH  20  23
HETATM   23  C   UNK N   1      32.480  15.480   8.305  0.00  0.00     0.268 C 
HETATM   24  C   UNK N   1      31.680  15.536   7.008  0.00  0.00     0.037 C 
ENDBRANCH  20  23
ENDBRANCH  19  20
ENDBRANCH  18  19
ENDBRANCH  17  18
ENDBRANCH  15  17
ENDBRANCH  13  15
ENDBRANCH   4  13
TORSDOF 8
ENDMDL
MODEL 9
REMARK VINA RESULT:      -4.9      6.457      9.298
REMARK  8 active torsions:
REMARK  status: ('A' for Active; 'I' for Inactive)
REMARK    1  A    between atoms: N_2  and  C_9 
REMARK    2  A    between atoms: N_2  and  C_11 
REMARK    3  A    between atoms: N_2  and  C_12 
REMARK    4  A    between atoms: N_3  and  C_8 
REMARK    5  A    between atoms: N_3  and  C_13 
REMARK    6  A    between atoms: C_6  and  C_7 
REMARK    7  A    between atoms: C_6  and  C_8 
REMARK    8  A    between atoms: C_7  and  C_9 
ROOT
HETATM    1 Cl   UNK N   1      20.657  12.012  11.614  0.00  0.00    -0.084 Cl
HETATM    2  N   UNK N   1      20.437  16.067   8.506  0.00  0.00    -0.365 N 
ATOM      3  HN  UNK N   1      19.727  16.443   9.134  1.00  0.00     0.165 HD
HETATM    4  C   UNK N   1      22.363  15.051   6.794  0.00  0.00     0.042 A 
HETATM    5  C   UNK N   1      21.967  14.311   7.915  0.00  0.00     0.017 A 
HETATM    6  C   UNK N   1      21.790  16.301   6.551  0.00  0.00     0.047 A 
HETATM    7  C   UNK N   1      20.985  14.853   8.774  0.00  0.00     0.046 A 
HETATM    8  C   UNK N   1      22.544  13.070   8.213  0.00  0.00     0.018 A 
HETATM    9  C   UNK N   1      20.814  16.793   7.417  0.00  0.00     0.090 A 
HETATM   10  C   UNK N   1      20.591  14.143   9.912  0.00  0.00     0.054 A 
HETATM   11  C   UNK N   1      22.142  12.367   9.352  0.00  0.00     0.025 A 
HETATM   12  C   UNK N   1      21.166  12.902  10.198  0.00  0.00     0.036 A 
ENDROOT
BRANCH   4  13
HETATM   13  N   UNK N   1      23.410  14.595   5.970  0.00  0.00    -0.385 N 
HETATM   14  H   UNK N   1      23.790  13.693   6.074  0.00  0.00     0.160 HD
BRANCH  13  15
HETATM   15  C   UNK N   1      23.897  15.501   4.971  0.00  0.00     0.077 C 
HETATM   16  C   UNK N   1      23.645  15.048   3.543  0.00  0.00     0.032 C 
BRANCH  15  17
HETATM   17  C   UNK N   1      25.214  16.169   5.359  0.00  0.00     0.026 C 
BRANCH  17  18
HETATM   18  C   UNK N   1      25.433  17.543   4.756  0.00  0.00     0.032 C 
BRANCH  18  19
HETATM   19  C   UNK N   1      26.678  18.255   5.299  0.00  0.00     0.272 C 
BRANCH  19  20
HETATM   20  N   UNK N   1      26.639  19.702   5.043  0.00  0.00     0.087 N 
BRANCH  20  21
HETATM   21  C   UNK N   1      26.568  20.422   6.321  0.00  0.00     0.268 C 
HETATM   22  C   UNK N   1      27.253  21.771   6.218  0.00  0.00     0.037 C 
ENDBRANCH  20  21
BRANCH  20  23
HETATM   23  C   UNK N   1      25.491  19.944   4.155  0.00  0.00     0.268 C 
HETATM   24  C   UNK N   1      25.818  20.605   2.821  0.00  0.00     0.037 C 
ENDBRANCH  20  23
ENDBRANCH  19  20
ENDBRANCH  18  19
ENDBRANCH  17  18
ENDBRANCH  15  17
ENDBRANCH  13  15
ENDBRANCH   4  13
TORSDOF 8
ENDMDL
