REMARK  14 active torsions:
REMARK  status: ('A' for Active; 'I' for Inactive)
REMARK    1  A    between atoms: C_11  and  C_5 
REMARK    2  A    between atoms: C_12  and  C_6 
REMARK    3  A    between atoms: O_25  and  C_13 
REMARK    4  A    between atoms: O_26  and  C_14 
REMARK    5  A    between atoms: O_27  and  C_15 
REMARK    6  A    between atoms: O_29  and  C_16 
REMARK    7  A    between atoms: O_28  and  C_17 
REMARK    8  A    between atoms: O_30  and  C_18 
REMARK    9  A    between atoms: P_31  and  O_19 
REMARK   10  A    between atoms: P_31  and  O_20 
REMARK   11  A    between atoms: P_32  and  O_22 
REMARK   12  A    between atoms: P_32  and  O_23 
REMARK   13  A    between atoms: P_31  and  O_29 
REMARK   14  A    between atoms: P_32  and  O_30 
ROOT
HETATM    1  C   UNK N   1       0.035   0.025   1.174  0.00  0.00     0.017 A 
HETATM    2  C   UNK N   1      -0.017   1.391   1.306  0.00  0.00     0.040 A 
HETATM    3  C   UNK N   1       1.136  -0.646   0.640  0.00  0.00     0.001 A 
HETATM    4  C   UNK N   1       1.064   2.165   0.927  0.00  0.00     0.105 A 
HETATM    5  C   UNK N   1       2.320   0.124   0.350  0.00  0.00     0.128 A 
HETATM    6  C   UNK N   1       2.247   1.558   0.476  0.00  0.00     0.148 A 
ENDROOT
BRANCH   3   7
HETATM    7  C   UNK N   1       0.964  -2.127   0.444  0.00  0.00     0.015 C 
HETATM    8  C   UNK N   1      -0.213  -2.768   0.167  0.00  0.00     0.012 C 
BRANCH   8   9
HETATM    9  C   UNK N   1      -1.545  -2.149  -0.137  0.00  0.00    -0.031 A 
HETATM   10  C   UNK N   1      -2.707  -2.877   0.116  0.00  0.00     0.051 A 
HETATM   11  C   UNK N   1      -3.979  -2.316  -0.075  0.00  0.00     0.105 A 
HETATM   12  C   UNK N   1      -4.095  -0.979  -0.558  0.00  0.00     0.135 A 
HETATM   13  C   UNK N   1      -2.910  -0.261  -0.859  0.00  0.00     0.105 A 
HETATM   14  C   UNK N   1      -1.670  -0.862  -0.666  0.00  0.00     0.051 A 
BRANCH  11  15
HETATM   15  O   UNK N   1      -5.051  -3.093   0.236  0.00  0.00    -0.353 OA
HETATM   16  C   UNK N   1      -6.372  -2.720   0.139  0.00  0.00     0.210 C 
ENDBRANCH  11  15
BRANCH  12  17
HETATM   17  O   UNK N   1      -5.334  -0.433  -0.712  0.00  0.00    -0.351 OA
HETATM   18  C   UNK N   1      -5.618   0.831  -1.177  0.00  0.00     0.210 C 
ENDBRANCH  12  17
BRANCH  13  19
HETATM   19  O   UNK N   1      -2.948   1.009  -1.310  0.00  0.00    -0.353 OA
HETATM   20  C   UNK N   1      -2.854   2.064  -0.431  0.00  0.00     0.210 C 
ENDBRANCH  13  19
ENDBRANCH   8   9
ENDBRANCH   3   7
BRANCH   5  21
HETATM   21  O   UNK N   1       3.511  -0.391  -0.073  0.00  0.00    -0.251 OA
BRANCH  21  22
HETATM   22  P   UNK N   1       4.173  -1.978  -0.186  0.00  0.00     0.396 P 
HETATM   23  O   UNK N   1       4.112  -2.633   1.222  0.00  0.00    -0.631 OA
BRANCH  22  24
HETATM   24  O   UNK N   1       5.857  -1.872  -0.593  0.00  0.00    -0.307 OA
HETATM   25  H   UNK N   1       6.379  -2.657  -0.820  0.00  0.00     0.222 HD
ENDBRANCH  22  24
BRANCH  22  26
HETATM   26  O   UNK N   1       3.343  -2.988  -1.328  0.00  0.00    -0.307 OA
HETATM   27  H   UNK N   1       2.622  -2.869  -1.966  0.00  0.00     0.222 HD
ENDBRANCH  22  26
ENDBRANCH  21  22
ENDBRANCH   5  21
BRANCH   6  28
HETATM   28  O   UNK N   1       3.261   2.410   0.157  0.00  0.00    -0.249 OA
BRANCH  28  29
HETATM   29  P   UNK N   1       4.821   2.097  -0.503  0.00  0.00     0.396 P 
HETATM   30  O   UNK N   1       4.629   1.383  -1.868  0.00  0.00    -0.631 OA
BRANCH  29  31
HETATM   31  O   UNK N   1       5.776   1.080   0.529  0.00  0.00    -0.307 OA
HETATM   32  H   UNK N   1       5.551   0.333   1.106  0.00  0.00     0.222 HD
ENDBRANCH  29  31
BRANCH  29  33
HETATM   33  O   UNK N   1       5.638   3.594  -0.823  0.00  0.00    -0.307 OA
HETATM   34  H   UNK N   1       6.591   3.617  -1.002  0.00  0.00     0.222 HD
ENDBRANCH  29  33
ENDBRANCH  28  29
ENDBRANCH   6  28
BRANCH   4  35
HETATM   35  O   UNK N   1       0.993   3.520   0.980  0.00  0.00    -0.353 OA
HETATM   36  C   UNK N   1      -0.169   4.203   1.270  0.00  0.00     0.210 C 
ENDBRANCH   4  35
TORSDOF 14
