REMARK WARNING: 32 MAX_TORS EXCEEDED!!!
REMARK  185 active torsions:
REMARK  status: ('A' for Active; 'I' for Inactive)
REMARK    1  A    between atoms: C_141  and  O_3 
REMARK    2  A    between atoms: O_26  and  C_247 
REMARK    3  A    between atoms: O_32  and  C_262 
REMARK    4  A    between atoms: O_34  and  C_264 
REMARK    5  A    between atoms: O_44  and  C_292 
REMARK    6  A    between atoms: O_50  and  C_306 
REMARK    7  A    between atoms: O_53  and  C_312 
REMARK    8  A    between atoms: O_55  and  C_324 
REMARK    9  A    between atoms: O_60  and  C_334 
REMARK   10  A    between atoms: O_61  and  C_336 
REMARK   11  A    between atoms: O_63  and  C_337 
REMARK   12  A    between atoms: C_126  and  N_68 
REMARK       I    between atoms: N_68  and  C_132 
REMARK       I    between atoms: N_69  and  C_129 
REMARK   13  A    between atoms: C_133  and  N_69 
REMARK   14  A    between atoms: C_128  and  N_70 
REMARK       I    between atoms: N_70  and  C_148 
REMARK   15  A    between atoms: C_136  and  N_71 
REMARK       I    between atoms: N_71  and  C_147 
REMARK   16  A    between atoms: C_134  and  N_72 
REMARK       I    between atoms: N_72  and  C_157 
REMARK       I    between atoms: N_73  and  C_149 
REMARK   17  A    between atoms: C_150  and  N_73 
REMARK   18  A    between atoms: C_144  and  N_74 
REMARK       I    between atoms: N_74  and  C_180 
REMARK   19  A    between atoms: C_145  and  N_75 
REMARK       I    between atoms: N_75  and  C_182 
REMARK       I    between atoms: N_76  and  C_151 
REMARK   20  A    between atoms: C_158  and  N_76 
REMARK   21  A    between atoms: C_152  and  N_77 
REMARK       I    between atoms: N_77  and  C_176 
REMARK   22  A    between atoms: C_153  and  N_78 
REMARK       I    between atoms: N_78  and  C_183 
REMARK       I    between atoms: N_79  and  C_164 
REMARK   23  A    between atoms: C_172  and  N_79 
REMARK   24  A    between atoms: C_168  and  N_80 
REMARK       I    between atoms: N_80  and  C_186 
REMARK   25  A    between atoms: C_161  and  N_81 
REMARK       I    between atoms: N_81  and  C_205 
REMARK       I    between atoms: N_82  and  C_184 
REMARK   26  A    between atoms: C_194  and  N_82 
REMARK       I    between atoms: N_83  and  C_189 
REMARK   27  A    between atoms: C_191  and  N_83 
REMARK   28  A    between atoms: C_175  and  N_84 
REMARK       I    between atoms: N_84  and  C_211 
REMARK   29  A    between atoms: C_174  and  N_85 
REMARK       I    between atoms: N_85  and  C_217 
REMARK       I    between atoms: N_86  and  C_197 
REMARK   30  A    between atoms: C_200  and  N_86 
REMARK   31  A    between atoms: N_87  and  C_165 
REMARK   32  A    between atoms: C_201  and  N_88 
REMARK       I    between atoms: N_88  and  C_216 
REMARK   33  A    between atoms: C_208  and  N_89 
REMARK       I    between atoms: N_89  and  C_215 
REMARK   34  A    between atoms: C_198  and  N_90 
REMARK       I    between atoms: N_90  and  C_238 
REMARK   35  A    between atoms: C_199  and  N_91 
REMARK       I    between atoms: N_91  and  C_246 
REMARK   36  A    between atoms: C_224  and  N_92 
REMARK       I    between atoms: N_92  and  C_226 
REMARK   37  A    between atoms: C_225  and  N_93 
REMARK       I    between atoms: N_93  and  C_228 
REMARK   38  A    between atoms: C_233  and  N_94 
REMARK       I    between atoms: N_94  and  C_248 
REMARK   39  A    between atoms: C_241  and  N_95 
REMARK       I    between atoms: N_95  and  C_254 
REMARK   40  A    between atoms: C_231  and  N_96 
REMARK       I    between atoms: N_96  and  C_270 
REMARK   41  A    between atoms: C_230  and  N_97 
REMARK       I    between atoms: N_97  and  C_282 
REMARK   42  A    between atoms: N_98  and  C_220 
REMARK       I    between atoms: N_100  and  C_222 
REMARK   43  A    between atoms: C_236  and  N_101 
REMARK       I    between atoms: N_101  and  C_291 
REMARK       I    between atoms: N_102  and  C_263 
REMARK   44  A    between atoms: C_265  and  N_102 
REMARK       I    between atoms: N_103  and  C_259 
REMARK   45  A    between atoms: C_276  and  N_103 
REMARK   46  A    between atoms: C_257  and  N_104 
REMARK       I    between atoms: N_104  and  C_287 
REMARK   47  A    between atoms: C_269  and  N_105 
REMARK       I    between atoms: N_105  and  C_272 
REMARK   48  A    between atoms: C_278  and  N_107 
REMARK       I    between atoms: N_107  and  C_298 
REMARK       I    between atoms: N_108  and  C_249 
REMARK       I    between atoms: N_109  and  C_253 
REMARK   49  A    between atoms: C_295  and  N_110 
REMARK       I    between atoms: N_110  and  C_299 
REMARK       I    between atoms: N_111  and  C_255 
REMARK   50  A    between atoms: C_281  and  N_113 
REMARK       I    between atoms: N_113  and  C_321 
REMARK   51  A    between atoms: N_114  and  C_267 
REMARK       I    between atoms: N_115  and  C_277 
REMARK       I    between atoms: N_116  and  C_289 
REMARK       I    between atoms: N_117  and  C_318 
REMARK   52  A    between atoms: C_333  and  N_117 
REMARK   53  A    between atoms: N_118  and  C_303 
REMARK   54  A    between atoms: C_316  and  N_120 
REMARK       I    between atoms: N_120  and  C_350 
REMARK       I    between atoms: N_121  and  C_326 
REMARK       I    between atoms: N_123  and  C_341 
REMARK       I    between atoms: N_124  and  C_346 
REMARK   55  A    between atoms: C_125  and  C_126 
REMARK   56  A    between atoms: C_125  and  C_127 
REMARK   57  A    between atoms: C_126  and  C_129 
REMARK   58  A    between atoms: C_128  and  C_130 
REMARK   59  A    between atoms: C_128  and  C_132 
REMARK   60  A    between atoms: C_130  and  C_135 
REMARK   61  A    between atoms: C_133  and  C_141 
REMARK   62  A    between atoms: C_133  and  C_149 
REMARK   63  A    between atoms: C_134  and  C_137 
REMARK   64  A    between atoms: C_134  and  C_147 
REMARK   65  A    between atoms: C_135  and  C_146 
REMARK   66  A    between atoms: C_136  and  C_138 
REMARK   67  A    between atoms: C_136  and  C_151 
REMARK   68  A    between atoms: C_137  and  C_140 
REMARK   69  A    between atoms: C_138  and  C_142 
REMARK   70  A    between atoms: C_143  and  C_144 
REMARK   71  A    between atoms: C_143  and  C_155 
REMARK   72  A    between atoms: C_144  and  C_164 
REMARK   73  A    between atoms: C_145  and  C_148 
REMARK   74  A    between atoms: C_145  and  C_154 
REMARK   75  A    between atoms: C_146  and  C_165 
REMARK   76  A    between atoms: C_150  and  C_157 
REMARK   77  A    between atoms: C_152  and  C_156 
REMARK   78  A    between atoms: C_152  and  C_184 
REMARK   79  A    between atoms: C_153  and  C_159 
REMARK   80  A    between atoms: C_153  and  C_176 
REMARK   81  A    between atoms: C_154  and  C_179 
REMARK   82  A    between atoms: C_156  and  C_160 
REMARK   83  A    between atoms: C_158  and  C_178 
REMARK   84  A    between atoms: C_158  and  C_189 
REMARK   85  A    between atoms: C_159  and  C_177 
REMARK   86  A    between atoms: C_161  and  C_166 
REMARK   87  A    between atoms: C_161  and  C_186 
REMARK   88  A    between atoms: C_166  and  C_173 
REMARK   89  A    between atoms: C_168  and  C_183 
REMARK   90  A    between atoms: C_168  and  C_185 
REMARK   91  A    between atoms: C_172  and  C_187 
REMARK   92  A    between atoms: C_172  and  C_197 
REMARK   93  A    between atoms: C_174  and  C_180 
REMARK   94  A    between atoms: C_174  and  C_190 
REMARK   95  A    between atoms: C_175  and  C_182 
REMARK   96  A    between atoms: C_175  and  C_192 
REMARK   97  A    between atoms: C_177  and  C_193 
REMARK   98  A    between atoms: C_178  and  C_202 
REMARK   99  A    between atoms: C_179  and  C_222 
REMARK  100  A    between atoms: C_185  and  C_207 
REMARK  101  A    between atoms: C_187  and  C_210 
REMARK  102  A    between atoms: C_190  and  C_213 
REMARK  103  A    between atoms: C_191  and  C_206 
REMARK  104  A    between atoms: C_191  and  C_215 
REMARK  105  A    between atoms: C_192  and  C_218 
REMARK  106  A    between atoms: C_193  and  C_220 
REMARK  107  A    between atoms: C_194  and  C_216 
REMARK  108  A    between atoms: C_194  and  C_221 
REMARK  109  A    between atoms: C_198  and  C_205 
REMARK  110  A    between atoms: C_198  and  C_214 
REMARK  111  A    between atoms: C_199  and  C_211 
REMARK  112  A    between atoms: C_199  and  C_212 
REMARK  113  A    between atoms: C_200  and  C_219 
REMARK  114  A    between atoms: C_200  and  C_226 
REMARK  115  A    between atoms: C_201  and  C_209 
REMARK  116  A    between atoms: C_201  and  C_228 
REMARK  117  A    between atoms: C_202  and  C_247 
REMARK  118  A    between atoms: C_206  and  C_229 
REMARK  119  A    between atoms: C_207  and  C_249 
REMARK  120  A    between atoms: C_208  and  C_217 
REMARK  121  A    between atoms: C_209  and  C_223 
REMARK  122  A    between atoms: C_210  and  C_253 
REMARK  123  A    between atoms: C_212  and  C_227 
REMARK  124  A    between atoms: C_213  and  C_255 
REMARK  125  A    between atoms: C_214  and  C_239 
REMARK  126  A    between atoms: C_218  and  C_262 
REMARK  127  A    between atoms: C_219  and  C_242 
REMARK  128  A    between atoms: C_221  and  C_264 
REMARK  129  A    between atoms: C_223  and  C_235 
REMARK  130  A    between atoms: C_224  and  C_243 
REMARK  131  A    between atoms: C_224  and  C_248 
REMARK  132  A    between atoms: C_225  and  C_234 
REMARK  133  A    between atoms: C_225  and  C_259 
REMARK  134  A    between atoms: C_229  and  C_277 
REMARK  135  A    between atoms: C_230  and  C_232 
REMARK  136  A    between atoms: C_230  and  C_254 
REMARK  137  A    between atoms: C_231  and  C_238 
REMARK  138  A    between atoms: C_231  and  C_250 
REMARK  139  A    between atoms: C_232  and  C_237 
REMARK  140  A    between atoms: C_233  and  C_245 
REMARK  141  A    between atoms: C_233  and  C_263 
REMARK  142  A    between atoms: C_234  and  C_252 
REMARK  143  A    between atoms: C_235  and  C_267 
REMARK  144  A    between atoms: C_236  and  C_246 
REMARK  145  A    between atoms: C_236  and  C_260 
REMARK  146  A    between atoms: C_239  and  C_292 
REMARK  147  A    between atoms: C_241  and  C_251 
REMARK  148  A    between atoms: C_241  and  C_272 
REMARK  149  A    between atoms: C_242  and  C_289 
REMARK  150  A    between atoms: C_243  and  C_271 
REMARK  151  A    between atoms: C_245  and  C_258 
REMARK  152  A    between atoms: C_250  and  C_283 
REMARK  153  A    between atoms: C_251  and  C_266 
REMARK  154  A    between atoms: C_257  and  C_270 
REMARK  155  A    between atoms: C_257  and  C_275 
REMARK  156  A    between atoms: C_258  and  C_279 
REMARK  157  A    between atoms: C_260  and  C_288 
REMARK  158  A    between atoms: C_265  and  C_287 
REMARK  159  A    between atoms: C_265  and  C_294 
REMARK  160  A    between atoms: C_269  and  C_290 
REMARK  161  A    between atoms: C_269  and  C_299 
REMARK  162  A    between atoms: C_271  and  C_312 
REMARK  163  A    between atoms: C_275  and  C_301 
REMARK  164  A    between atoms: C_276  and  C_298 
REMARK  165  A    between atoms: C_278  and  C_282 
REMARK  166  A    between atoms: C_278  and  C_306 
REMARK  167  A    between atoms: C_279  and  C_303 
REMARK  168  A    between atoms: C_281  and  C_291 
REMARK  169  A    between atoms: C_281  and  C_300 
REMARK  170  A    between atoms: C_288  and  C_324 
REMARK  171  A    between atoms: C_290  and  C_309 
REMARK  172  A    between atoms: C_294  and  C_326 
REMARK  173  A    between atoms: C_295  and  C_302 
REMARK  174  A    between atoms: C_295  and  C_318 
REMARK  175  A    between atoms: C_300  and  C_317 
REMARK  176  A    between atoms: C_301  and  C_334 
REMARK  177  A    between atoms: C_302  and  C_311 
REMARK  178  A    between atoms: C_309  and  C_337 
REMARK  179  A    between atoms: C_316  and  C_321 
REMARK  180  A    between atoms: C_316  and  C_325 
REMARK  181  A    between atoms: C_317  and  C_341 
REMARK  182  A    between atoms: C_325  and  C_335 
REMARK  183  A    between atoms: C_333  and  C_338 
REMARK  184  A    between atoms: C_333  and  C_346 
REMARK  185  A    between atoms: C_338  and  C_348 
ROOT
HETATM    1  O   UNK N   1       7.780  -2.818   1.685  0.00  0.00    -0.271 OA
HETATM    2  N   UNK N   1       7.810  -4.292  -0.016  0.00  0.00    -0.346 N 
HETATM    3  C   UNK N   1       8.336  -3.259   0.692  0.00  0.00     0.241 C 
HETATM    4  H   UNK N   1       8.276  -4.553  -0.843  0.00  0.00     0.163 HD
ENDROOT
BRANCH   2   5
HETATM    5  C   UNK N   1       6.627  -5.039   0.340  0.00  0.00     0.176 C 
BRANCH   5   6
HETATM    6  C   UNK N   1       5.349  -4.193   0.413  0.00  0.00     0.035 C 
BRANCH   6   7
HETATM    7  C   UNK N   1       5.079  -3.540   1.760  0.00  0.00     0.004 C 
BRANCH   7   8
HETATM    8  C   UNK N   1       3.737  -2.828   1.746  0.00  0.00     0.019 C 
BRANCH   8   9
HETATM    9  C   UNK N   1       3.814  -1.521   0.975  0.00  0.00     0.111 C 
BRANCH   9  10
HETATM   10  N   UNK N   1       3.767  -1.776  -0.455  0.00  0.00    -0.430 N 
HETATM   11  H   UNK N   1       3.596  -1.837  -1.458  0.00  0.00     0.149 HD
HETATM   12  H   UNK N   1       4.545  -2.436  -0.455  0.00  0.00     0.149 HD
ENDBRANCH   9  10
ENDBRANCH   8   9
ENDBRANCH   7   8
ENDBRANCH   6   7
ENDBRANCH   5   6
BRANCH   5  13
HETATM   13  C   UNK N   1       6.902  -5.941   1.501  0.00  0.00     0.241 C 
HETATM   14  O   UNK N   1       7.209  -5.457   2.579  0.00  0.00    -0.271 OA
HETATM   15  N   UNK N   1       6.863  -7.288   1.380  0.00  0.00    -0.346 N 
HETATM   16  H   UNK N   1       7.129  -7.800   2.177  0.00  0.00     0.163 HD
BRANCH  15  17
HETATM   17  C   UNK N   1       6.477  -8.076   0.221  0.00  0.00     0.185 C 
BRANCH  17  18
HETATM   18  C   UNK N   1       6.793  -7.577  -1.191  0.00  0.00     0.241 C 
HETATM   19  O   UNK N   1       5.884  -7.519  -2.004  0.00  0.00    -0.271 OA
HETATM   20  N   UNK N   1       8.045  -7.274  -1.627  0.00  0.00    -0.346 N 
HETATM   21  H   UNK N   1       8.133  -7.122  -2.596  0.00  0.00     0.163 HD
BRANCH  20  22
HETATM   22  C   UNK N   1       9.267  -7.144  -0.864  0.00  0.00     0.177 C 
BRANCH  22  23
HETATM   23  C   UNK N   1       9.629  -8.352  -0.051  0.00  0.00     0.241 C 
HETATM   24  O   UNK N   1       9.470  -8.323   1.159  0.00  0.00    -0.271 OA
HETATM   25  N   UNK N   1      10.187  -9.440  -0.643  0.00  0.00    -0.346 N 
HETATM   26  H   UNK N   1      10.403  -9.393  -1.603  0.00  0.00     0.163 HD
BRANCH  25  27
HETATM   27  C   UNK N   1      10.478 -10.668   0.072  0.00  0.00     0.180 C 
BRANCH  27  28
HETATM   28  C   UNK N   1       9.167 -11.265   0.524  0.00  0.00     0.241 C 
HETATM   29  O   UNK N   1       8.922 -11.383   1.714  0.00  0.00    -0.271 OA
HETATM   30  N   UNK N   1       8.245 -11.673  -0.383  0.00  0.00    -0.346 N 
HETATM   31  H   UNK N   1       7.379 -12.001  -0.049  0.00  0.00     0.163 HD
BRANCH  30  32
HETATM   32  C   UNK N   1       8.463 -11.654  -1.822  0.00  0.00     0.177 C 
BRANCH  32  33
HETATM   33  C   UNK N   1       9.725 -12.396  -2.245  0.00  0.00     0.241 C 
HETATM   34  O   UNK N   1      10.368 -11.961  -3.185  0.00  0.00    -0.271 OA
HETATM   35  N   UNK N   1      10.178 -13.504  -1.594  0.00  0.00    -0.346 N 
HETATM   36  H   UNK N   1      11.023 -13.913  -1.891  0.00  0.00     0.163 HD
BRANCH  35  37
HETATM   37  C   UNK N   1       9.472 -14.106  -0.484  0.00  0.00     0.177 C 
BRANCH  37  38
HETATM   38  C   UNK N   1      10.339 -14.629   0.676  0.00  0.00     0.038 C 
BRANCH  38  39
HETATM   39  C   UNK N   1      11.765 -15.077   0.380  0.00  0.00    -0.020 C 
HETATM   40  C   UNK N   1      12.702 -13.894   0.258  0.00  0.00     0.009 C 
HETATM   41  C   UNK N   1      11.852 -15.965  -0.840  0.00  0.00     0.009 C 
ENDBRANCH  38  39
ENDBRANCH  37  38
BRANCH  37  42
HETATM   42  C   UNK N   1       8.198 -14.816  -0.893  0.00  0.00     0.241 C 
HETATM   43  O   UNK N   1       7.901 -14.868  -2.076  0.00  0.00    -0.271 OA
HETATM   44  N   UNK N   1       7.353 -15.374   0.006  0.00  0.00    -0.346 N 
HETATM   45  H   UNK N   1       6.449 -15.623  -0.295  0.00  0.00     0.163 HD
BRANCH  44  46
HETATM   46  C   UNK N   1       7.706 -15.621   1.378  0.00  0.00     0.177 C 
BRANCH  46  47
HETATM   47  C   UNK N   1       8.533 -16.892   1.539  0.00  0.00     0.241 C 
HETATM   48  O   UNK N   1       8.993 -17.129   2.644  0.00  0.00    -0.271 OA
HETATM   49  N   UNK N   1       8.842 -17.748   0.511  0.00  0.00    -0.346 N 
HETATM   50  H   UNK N   1       9.468 -18.477   0.730  0.00  0.00     0.163 HD
BRANCH  49  51
HETATM   51  C   UNK N   1       8.357 -17.712  -0.870  0.00  0.00     0.176 C 
BRANCH  51  52
HETATM   52  C   UNK N   1       9.095 -18.755  -1.712  0.00  0.00     0.035 C 
BRANCH  52  53
HETATM   53  C   UNK N   1      10.597 -18.703  -1.588  0.00  0.00     0.004 C 
BRANCH  53  54
HETATM   54  C   UNK N   1      11.033 -19.792  -0.629  0.00  0.00     0.019 C 
BRANCH  54  55
HETATM   55  C   UNK N   1      11.738 -19.189   0.568  0.00  0.00     0.111 C 
BRANCH  55  56
HETATM   56  N   UNK N   1      13.062 -18.740   0.180  0.00  0.00    -0.430 N 
HETATM   57  H   UNK N   1      13.801 -19.388  -0.092  0.00  0.00     0.149 HD
HETATM   58  H   UNK N   1      13.261 -17.740   0.180  0.00  0.00     0.149 HD
ENDBRANCH  55  56
ENDBRANCH  54  55
ENDBRANCH  53  54
ENDBRANCH  52  53
ENDBRANCH  51  52
BRANCH  51  59
HETATM   59  C   UNK N   1       6.919 -18.138  -0.914  0.00  0.00     0.241 C 
HETATM   60  O   UNK N   1       6.379 -18.399  -1.981  0.00  0.00    -0.271 OA
HETATM   61  N   UNK N   1       6.319 -18.427   0.254  0.00  0.00    -0.346 N 
HETATM   62  H   UNK N   1       6.421 -17.791   0.999  0.00  0.00     0.163 HD
BRANCH  61  63
HETATM   63  C   UNK N   1       5.542 -19.606   0.473  0.00  0.00     0.177 C 
BRANCH  63  64
HETATM   64  C   UNK N   1       4.366 -19.847  -0.472  0.00  0.00     0.038 C 
BRANCH  64  65
HETATM   65  C   UNK N   1       3.172 -18.958  -0.122  0.00  0.00    -0.020 C 
HETATM   66  C   UNK N   1       3.370 -17.537  -0.600  0.00  0.00     0.009 C 
HETATM   67  C   UNK N   1       2.855 -18.976   1.369  0.00  0.00     0.009 C 
ENDBRANCH  64  65
ENDBRANCH  63  64
BRANCH  63  68
HETATM   68  C   UNK N   1       6.483 -20.742   0.731  0.00  0.00     0.241 C 
HETATM   69  O   UNK N   1       7.390 -20.565   1.534  0.00  0.00    -0.271 OA
HETATM   70  N   UNK N   1       6.256 -21.980   0.223  0.00  0.00    -0.346 N 
HETATM   71  H   UNK N   1       5.716 -22.074  -0.595  0.00  0.00     0.163 HD
BRANCH  70  72
HETATM   72  C   UNK N   1       6.794 -23.169   0.863  0.00  0.00     0.186 C 
BRANCH  72  73
HETATM   73  C   UNK N   1       6.151 -23.218   2.235  0.00  0.00     0.241 C 
HETATM   74  O   UNK N   1       6.799 -22.846   3.203  0.00  0.00    -0.271 OA
HETATM   75  N   UNK N   1       4.844 -23.553   2.428  0.00  0.00    -0.346 N 
HETATM   76  H   UNK N   1       4.504 -23.403   3.339  0.00  0.00     0.163 HD
BRANCH  75  77
HETATM   77  C   UNK N   1       3.875 -24.098   1.487  0.00  0.00     0.176 C 
BRANCH  77  78
HETATM   78  C   UNK N   1       2.426 -23.809   1.852  0.00  0.00     0.035 C 
BRANCH  78  79
HETATM   79  C   UNK N   1       2.028 -22.364   1.628  0.00  0.00     0.004 C 
BRANCH  79  80
HETATM   80  C   UNK N   1       1.655 -22.150   0.177  0.00  0.00     0.019 C 
BRANCH  80  81
HETATM   81  C   UNK N   1       0.684 -20.999   0.062  0.00  0.00     0.111 C 
BRANCH  81  82
HETATM   82  N   UNK N   1       0.560 -20.615  -1.331  0.00  0.00    -0.430 N 
HETATM   83  H   UNK N   1       0.750 -20.405  -2.311  0.00  0.00     0.149 HD
HETATM   84  H   UNK N   1      -0.437 -20.401  -1.331  0.00  0.00     0.149 HD
ENDBRANCH  81  82
ENDBRANCH  80  81
ENDBRANCH  79  80
ENDBRANCH  78  79
ENDBRANCH  77  78
BRANCH  77  85
HETATM   85  C   UNK N   1       4.209 -24.243   0.022  0.00  0.00     0.241 C 
HETATM   86  O   UNK N   1       4.137 -23.291  -0.736  0.00  0.00    -0.271 OA
HETATM   87  N   UNK N   1       4.543 -25.457  -0.464  0.00  0.00    -0.346 N 
HETATM   88  H   UNK N   1       4.764 -25.566  -1.417  0.00  0.00     0.163 HD
BRANCH  87  89
HETATM   89  C   UNK N   1       4.574 -26.589   0.421  0.00  0.00     0.181 C 
BRANCH  89  90
HETATM   90  C   UNK N   1       3.840 -27.796  -0.160  0.00  0.00     0.075 C 
BRANCH  90  91
HETATM   91  C   UNK N   1       2.361 -27.599   0.027  0.00  0.00    -0.028 A 
HETATM   92  C   UNK N   1       1.551 -26.627  -0.522  0.00  0.00    -0.002 A 
HETATM   93  C   UNK N   1       0.307 -26.810   0.012  0.00  0.00     0.042 A 
HETATM   94  C   UNK N   1       1.814 -25.599  -1.424  0.00  0.00     0.014 A 
HETATM   95  N   UNK N   1       0.287 -27.857   0.852  0.00  0.00    -0.365 N 
HETATM   96  C   UNK N   1      -0.758 -25.966  -0.300  0.00  0.00     0.030 A 
HETATM   97  C   UNK N   1       1.552 -28.354   0.869  0.00  0.00     0.096 A 
HETATM   98  H   UNK N   1      -0.488 -28.198   1.354  0.00  0.00     0.165 HD
HETATM   99  C   UNK N   1      -0.518 -24.909  -1.197  0.00  0.00     0.002 A 
HETATM  100  C   UNK N   1       0.763 -24.730  -1.763  0.00  0.00     0.001 A 
ENDBRANCH  90  91
ENDBRANCH  89  90
BRANCH  89 101
HETATM  101  C   UNK N   1       5.965 -26.765   0.944  0.00  0.00     0.241 C 
HETATM  102  O   UNK N   1       6.176 -26.541   2.123  0.00  0.00    -0.271 OA
HETATM  103  N   UNK N   1       7.001 -27.092   0.139  0.00  0.00    -0.346 N 
HETATM  104  H   UNK N   1       7.915 -27.034   0.499  0.00  0.00     0.163 HD
BRANCH 103 105
HETATM  105  C   UNK N   1       6.821 -27.519  -1.219  0.00  0.00     0.172 C 
HETATM  106  C   UNK N   1       7.997 -27.079  -2.070  0.00  0.00     0.042 C 
BRANCH 105 107
HETATM  107  C   UNK N   1       6.652 -29.018  -1.327  0.00  0.00     0.240 C 
HETATM  108  O   UNK N   1       6.328 -29.469  -2.414  0.00  0.00    -0.271 OA
HETATM  109  N   UNK N   1       6.834 -29.893  -0.293  0.00  0.00    -0.344 N 
HETATM  110  H   UNK N   1       6.679 -30.842  -0.505  0.00  0.00     0.163 HD
BRANCH 109 111
HETATM  111  C   UNK N   1       7.225 -29.610   1.078  0.00  0.00     0.200 C 
BRANCH 111 112
HETATM  112  C   UNK N   1       8.612 -29.029   1.327  0.00  0.00     0.243 C 
HETATM  113  O   UNK N   1       8.779 -28.445   2.386  0.00  0.00    -0.271 OA
HETATM  114  N   UNK N   1       9.684 -29.147   0.497  0.00  0.00    -0.346 N 
HETATM  115  H   UNK N   1      10.523 -28.772   0.850  0.00  0.00     0.163 HD
BRANCH 114 116
HETATM  116  C   UNK N   1       9.788 -29.739  -0.823  0.00  0.00     0.177 C 
BRANCH 116 117
HETATM  117  C   UNK N   1      11.254 -29.831  -1.266  0.00  0.00     0.038 C 
BRANCH 117 118
HETATM  118  C   UNK N   1      12.194 -28.829  -0.612  0.00  0.00    -0.020 C 
HETATM  119  C   UNK N   1      12.739 -29.423   0.676  0.00  0.00     0.009 C 
HETATM  120  C   UNK N   1      13.344 -28.548  -1.549  0.00  0.00     0.009 C 
ENDBRANCH 117 118
ENDBRANCH 116 117
BRANCH 116 121
HETATM  121  C   UNK N   1       9.233 -31.119  -0.890  0.00  0.00     0.241 C 
HETATM  122  O   UNK N   1       8.527 -31.432  -1.837  0.00  0.00    -0.271 OA
HETATM  123  N   UNK N   1       9.513 -32.014   0.084  0.00  0.00    -0.346 N 
HETATM  124  H   UNK N   1      10.044 -31.732   0.864  0.00  0.00     0.163 HD
BRANCH 123 125
HETATM  125  C   UNK N   1       9.049 -33.369  -0.001  0.00  0.00     0.181 C 
BRANCH 125 126
HETATM  126  C   UNK N   1       8.805 -34.053   1.339  0.00  0.00     0.075 C 
BRANCH 126 127
HETATM  127  C   UNK N   1       7.927 -35.221   1.052  0.00  0.00    -0.028 A 
HETATM  128  C   UNK N   1       6.720 -35.177   0.404  0.00  0.00    -0.002 A 
HETATM  129  C   UNK N   1       6.330 -36.468   0.220  0.00  0.00     0.042 A 
HETATM  130  C   UNK N   1       5.978 -34.099  -0.068  0.00  0.00     0.014 A 
HETATM  131  N   UNK N   1       7.225 -37.326   0.740  0.00  0.00    -0.365 N 
HETATM  132  C   UNK N   1       5.160 -36.785  -0.466  0.00  0.00     0.030 A 
HETATM  133  C   UNK N   1       8.222 -36.561   1.258  0.00  0.00     0.096 A 
HETATM  134  H   UNK N   1       7.169 -38.309   0.746  0.00  0.00     0.165 HD
HETATM  135  C   UNK N   1       4.381 -35.719  -0.959  0.00  0.00     0.002 A 
HETATM  136  C   UNK N   1       4.785 -34.380  -0.755  0.00  0.00     0.001 A 
ENDBRANCH 126 127
ENDBRANCH 125 126
BRANCH 125 137
HETATM  137  C   UNK N   1       9.698 -34.152  -1.121  0.00  0.00     0.241 C 
HETATM  138  O   UNK N   1       9.039 -34.308  -2.135  0.00  0.00    -0.271 OA
HETATM  139  N   UNK N   1      10.959 -34.680  -1.084  0.00  0.00    -0.346 N 
HETATM  140  H   UNK N   1      11.272 -35.061  -1.936  0.00  0.00     0.163 HD
BRANCH 139 141
HETATM  141  C   UNK N   1      11.914 -34.770   0.014  0.00  0.00     0.177 C 
BRANCH 141 142
HETATM  142  C   UNK N   1      11.368 -35.621   1.153  0.00  0.00     0.045 C 
BRANCH 142 143
HETATM  143  C   UNK N   1      11.552 -37.124   0.934  0.00  0.00     0.112 C 
BRANCH 143 144
HETATM  144  C   UNK N   1      11.066 -37.642  -0.389  0.00  0.00     0.139 C 
HETATM  145  O   UNK N   1      10.138 -38.431  -0.426  0.00  0.00    -0.650 OA
BRANCH 144 146
HETATM  146  O   UNK N   1      11.694 -37.299  -1.530  0.00  0.00    -0.776 OA
HETATM  147  H   UNK N   1      12.119 -37.558  -2.323  0.00  0.00     0.167 HD
ENDBRANCH 144 146
ENDBRANCH 143 144
ENDBRANCH 142 143
ENDBRANCH 141 142
BRANCH 141 148
HETATM  148  C   UNK N   1      12.468 -33.455   0.479  0.00  0.00     0.241 C 
HETATM  149  O   UNK N   1      11.733 -32.653   1.016  0.00  0.00    -0.271 OA
HETATM  150  N   UNK N   1      13.777 -33.128   0.372  0.00  0.00    -0.346 N 
HETATM  151  H   UNK N   1      13.973 -32.189   0.593  0.00  0.00     0.163 HD
BRANCH 150 152
HETATM  152  C   UNK N   1      14.946 -33.900  -0.006  0.00  0.00     0.181 C 
BRANCH 152 153
HETATM  153  C   UNK N   1      15.990 -33.593   1.053  0.00  0.00     0.075 C 
BRANCH 153 154
HETATM  154  C   UNK N   1      17.108 -32.775   0.531  0.00  0.00    -0.028 A 
HETATM  155  C   UNK N   1      17.056 -31.509   0.010  0.00  0.00    -0.002 A 
HETATM  156  C   UNK N   1      18.341 -31.168  -0.302  0.00  0.00     0.042 A 
HETATM  157  C   UNK N   1      15.990 -30.640  -0.202  0.00  0.00     0.014 A 
HETATM  158  N   UNK N   1      19.195 -32.161  -0.000  0.00  0.00    -0.365 N 
HETATM  159  C   UNK N   1      18.659 -29.931  -0.853  0.00  0.00     0.030 A 
HETATM  160  C   UNK N   1      18.440 -33.161   0.519  0.00  0.00     0.096 A 
HETATM  161  H   UNK N   1      20.171 -32.162  -0.130  0.00  0.00     0.165 HD
HETATM  162  C   UNK N   1      17.607 -29.027  -1.084  0.00  0.00     0.002 A 
HETATM  163  C   UNK N   1      16.278 -29.381  -0.759  0.00  0.00     0.001 A 
ENDBRANCH 153 154
ENDBRANCH 152 153
BRANCH 152 164
HETATM  164  C   UNK N   1      14.848 -35.401  -0.033  0.00  0.00     0.241 C 
HETATM  165  O   UNK N   1      15.224 -35.995  -1.031  0.00  0.00    -0.271 OA
HETATM  166  N   UNK N   1      14.564 -36.068   1.118  0.00  0.00    -0.346 N 
HETATM  167  H   UNK N   1      14.099 -35.560   1.821  0.00  0.00     0.163 HD
BRANCH 166 168
HETATM  168  C   UNK N   1      14.880 -37.457   1.411  0.00  0.00     0.180 C 
BRANCH 168 169
HETATM  169  C   UNK N   1      16.294 -37.645   1.960  0.00  0.00     0.073 C 
BRANCH 169 170
HETATM  170  C   UNK N   1      17.359 -37.568   0.915  0.00  0.00    -0.056 A 
HETATM  171  C   UNK N   1      17.449 -38.550  -0.080  0.00  0.00     0.007 A 
HETATM  172  C   UNK N   1      18.469 -38.494  -1.032  0.00  0.00     0.001 A 
HETATM  173  C   UNK N   1      19.409 -37.460  -0.990  0.00  0.00     0.000 A 
HETATM  174  C   UNK N   1      19.326 -36.482   0.006  0.00  0.00     0.001 A 
HETATM  175  C   UNK N   1      18.305 -36.537   0.960  0.00  0.00     0.007 A 
ENDBRANCH 169 170
ENDBRANCH 168 169
BRANCH 168 176
HETATM  176  C   UNK N   1      14.350 -38.571   0.544  0.00  0.00     0.238 C 
HETATM  177  O   UNK N   1      14.128 -39.659   1.050  0.00  0.00    -0.271 OA
HETATM  178  N   UNK N   1      14.194 -38.419  -0.784  0.00  0.00    -0.368 N 
HETATM  179  H   UNK N   1      14.233 -38.265  -1.755  0.00  0.00     0.159 HD
HETATM  180  H   UNK N   1      13.246 -38.686  -0.784  0.00  0.00     0.159 HD
ENDBRANCH 168 176
ENDBRANCH 166 168
ENDBRANCH 152 164
ENDBRANCH 150 152
ENDBRANCH 141 148
ENDBRANCH 139 141
ENDBRANCH 125 137
ENDBRANCH 123 125
ENDBRANCH 116 121
ENDBRANCH 114 116
ENDBRANCH 111 112
BRANCH 111 181
HETATM  181  C   UNK N   1       7.068 -30.845   1.949  0.00  0.00     0.199 C 
BRANCH 181 182
HETATM  182  O   UNK N   1       5.739 -31.260   1.972  0.00  0.00    -0.398 OA
HETATM  183  H   UNK N   1       5.026 -30.603   1.989  0.00  0.00     0.209 HD
ENDBRANCH 181 182
ENDBRANCH 111 181
ENDBRANCH 109 111
ENDBRANCH 105 107
ENDBRANCH 103 105
ENDBRANCH  89 101
ENDBRANCH  87  89
ENDBRANCH  77  85
ENDBRANCH  75  77
ENDBRANCH  72  73
BRANCH  72 184
HETATM  184  C   UNK N   1       8.330 -23.138   0.970  0.00  0.00     0.144 C 
BRANCH 184 185
HETATM  185  C   UNK N   1       9.027 -23.606  -0.262  0.00  0.00     0.141 C 
HETATM  186  O   UNK N   1       8.893 -24.757  -0.638  0.00  0.00    -0.650 OA
BRANCH 185 187
HETATM  187  O   UNK N   1       9.870 -22.784  -0.912  0.00  0.00    -0.776 OA
HETATM  188  H   UNK N   1      10.660 -23.006  -1.364  0.00  0.00     0.167 HD
ENDBRANCH 185 187
ENDBRANCH 184 185
ENDBRANCH  72 184
ENDBRANCH  70  72
ENDBRANCH  63  68
ENDBRANCH  61  63
ENDBRANCH  51  59
ENDBRANCH  49  51
ENDBRANCH  46  47
BRANCH  46 189
HETATM  189  C   UNK N   1       6.505 -15.550   2.333  0.00  0.00     0.044 C 
BRANCH 189 190
HETATM  190  C   UNK N   1       5.151 -15.867   1.705  0.00  0.00     0.105 C 
BRANCH 190 191
HETATM  191  C   UNK N   1       4.575 -14.645   1.059  0.00  0.00     0.215 C 
HETATM  192  O   UNK N   1       4.328 -14.648  -0.135  0.00  0.00    -0.274 OA
HETATM  193  N   UNK N   1       4.324 -13.543   1.793  0.00  0.00    -0.370 N 
HETATM  194  H   UNK N   1       4.930 -12.982   2.330  0.00  0.00     0.159 HD
HETATM  195  H   UNK N   1       3.384 -13.252   1.793  0.00  0.00     0.159 HD
ENDBRANCH 190 191
ENDBRANCH 189 190
ENDBRANCH  46 189
ENDBRANCH  44  46
ENDBRANCH  37  42
ENDBRANCH  35  37
ENDBRANCH  32  33
BRANCH  32 196
HETATM  196  C   UNK N   1       7.247 -12.149  -2.623  0.00  0.00     0.045 C 
BRANCH 196 197
HETATM  197  C   UNK N   1       6.045 -12.542  -1.760  0.00  0.00     0.112 C 
BRANCH 197 198
HETATM  198  C   UNK N   1       5.171 -11.376  -1.439  0.00  0.00     0.139 C 
HETATM  199  O   UNK N   1       4.288 -11.494  -0.606  0.00  0.00    -0.650 OA
BRANCH 198 200
HETATM  200  O   UNK N   1       5.335 -10.206  -2.079  0.00  0.00    -0.776 OA
HETATM  201  H   UNK N   1       6.099  -9.896  -2.525  0.00  0.00     0.167 HD
ENDBRANCH 198 200
ENDBRANCH 197 198
ENDBRANCH 196 197
ENDBRANCH  32 196
ENDBRANCH  30  32
ENDBRANCH  27  28
BRANCH  27 202
HETATM  202  C   UNK N   1      11.460 -10.497   1.243  0.00  0.00     0.073 C 
BRANCH 202 203
HETATM  203  C   UNK N   1      12.715  -9.746   0.941  0.00  0.00    -0.056 A 
HETATM  204  C   UNK N   1      13.618 -10.175  -0.041  0.00  0.00     0.010 A 
HETATM  205  C   UNK N   1      14.797  -9.451  -0.268  0.00  0.00     0.037 A 
HETATM  206  C   UNK N   1      15.076  -8.310   0.494  0.00  0.00     0.065 A 
HETATM  207  C   UNK N   1      14.185  -7.900   1.487  0.00  0.00     0.037 A 
HETATM  208  C   UNK N   1      13.010  -8.618   1.709  0.00  0.00     0.010 A 
BRANCH 206 209
HETATM  209  O   UNK N   1      16.197  -7.605   0.272  0.00  0.00    -0.361 OA
HETATM  210  H   UNK N   1      17.014  -8.037   0.117  0.00  0.00     0.217 HD
ENDBRANCH 206 209
ENDBRANCH 202 203
ENDBRANCH  27 202
ENDBRANCH  25  27
ENDBRANCH  22  23
BRANCH  22 211
HETATM  211  C   UNK N   1      10.381  -6.860  -1.864  0.00  0.00     0.045 C 
BRANCH 211 212
HETATM  212  C   UNK N   1      11.204  -5.651  -1.492  0.00  0.00     0.112 C 
BRANCH 212 213
HETATM  213  C   UNK N   1      12.113  -5.944  -0.348  0.00  0.00     0.139 C 
HETATM  214  O   UNK N   1      13.318  -5.841  -0.492  0.00  0.00    -0.650 OA
BRANCH 213 215
HETATM  215  O   UNK N   1      11.603  -6.233   0.865  0.00  0.00    -0.776 OA
HETATM  216  H   UNK N   1      11.251  -6.026   1.708  0.00  0.00     0.167 HD
ENDBRANCH 213 215
ENDBRANCH 212 213
ENDBRANCH 211 212
ENDBRANCH  22 211
ENDBRANCH  20  22
ENDBRANCH  17  18
BRANCH  17 217
HETATM  217  C   UNK N   1       5.075  -8.675   0.435  0.00  0.00     0.137 C 
BRANCH 217 218
HETATM  218  C   UNK N   1       3.886  -7.774   0.213  0.00  0.00     0.217 C 
HETATM  219  O   UNK N   1       4.022  -6.633  -0.191  0.00  0.00    -0.274 OA
HETATM  220  N   UNK N   1       2.648  -8.252   0.437  0.00  0.00    -0.370 N 
HETATM  221  H   UNK N   1       1.892  -7.642   0.601  0.00  0.00     0.159 HD
HETATM  222  H   UNK N   1       2.496  -9.225   0.437  0.00  0.00     0.159 HD
ENDBRANCH 217 218
ENDBRANCH  17 217
ENDBRANCH  15  17
ENDBRANCH   5  13
ENDBRANCH   2   5
BRANCH   3 223
HETATM  223  C   UNK N   1       9.591  -2.618   0.209  0.00  0.00     0.177 C 
BRANCH 223 224
HETATM  224  N   UNK N   1       9.491  -2.422  -1.229  0.00  0.00    -0.346 N 
HETATM  225  C   UNK N   1       8.596  -1.539  -1.748  0.00  0.00     0.241 C 
HETATM  226  O   UNK N   1       8.464  -1.444  -2.958  0.00  0.00    -0.271 OA
HETATM  227  H   UNK N   1      10.077  -2.934  -1.832  0.00  0.00     0.163 HD
BRANCH 225 228
HETATM  228  C   UNK N   1       7.825  -0.643  -0.811  0.00  0.00     0.177 C 
BRANCH 228 229
HETATM  229  N   UNK N   1       8.787   0.079  -0.003  0.00  0.00    -0.346 N 
HETATM  230  C   UNK N   1       9.712   0.923  -0.522  0.00  0.00     0.241 C 
HETATM  231  O   UNK N   1       9.684   1.234  -1.705  0.00  0.00    -0.271 OA
HETATM  232  H   UNK N   1       8.768  -0.051   0.972  0.00  0.00     0.163 HD
BRANCH 230 233
HETATM  233  C   UNK N   1      10.789   1.476   0.363  0.00  0.00     0.177 C 
BRANCH 233 234
HETATM  234  N   UNK N   1      10.263   1.939   1.634  0.00  0.00    -0.346 N 
HETATM  235  C   UNK N   1       9.312   2.901   1.741  0.00  0.00     0.241 C 
HETATM  236  O   UNK N   1       9.031   3.344   2.842  0.00  0.00    -0.271 OA
HETATM  237  H   UNK N   1      10.615   1.534   2.460  0.00  0.00     0.163 HD
BRANCH 235 238
HETATM  238  C   UNK N   1       8.676   3.493   0.510  0.00  0.00     0.180 C 
BRANCH 238 239
HETATM  239  N   UNK N   1       9.670   3.948  -0.425  0.00  0.00    -0.346 N 
HETATM  240  C   UNK N   1      10.179   5.173  -0.270  0.00  0.00     0.241 C 
HETATM  241  O   UNK N   1       9.441   6.092   0.056  0.00  0.00    -0.271 OA
HETATM  242  H   UNK N   1       9.969   3.369  -1.162  0.00  0.00     0.163 HD
BRANCH 240 243
HETATM  243  C   UNK N   1      11.680   5.345  -0.198  0.00  0.00     0.177 C 
BRANCH 243 244
HETATM  244  N   UNK N   1      11.909   6.672   0.302  0.00  0.00    -0.346 N 
HETATM  245  C   UNK N   1      11.485   7.147   1.510  0.00  0.00     0.240 C 
HETATM  246  O   UNK N   1      11.022   6.388   2.353  0.00  0.00    -0.271 OA
HETATM  247  H   UNK N   1      12.413   7.291  -0.275  0.00  0.00     0.163 HD
BRANCH 245 248
HETATM  248  C   UNK N   1      11.323   8.639   1.640  0.00  0.00     0.172 C 
HETATM  249  C   UNK N   1      10.256   8.972   2.675  0.00  0.00     0.042 C 
BRANCH 248 250
HETATM  250  N   UNK N   1      10.843   9.077   0.353  0.00  0.00    -0.346 N 
HETATM  251  C   UNK N   1      11.659   9.310  -0.707  0.00  0.00     0.241 C 
HETATM  252  O   UNK N   1      11.152   9.414  -1.814  0.00  0.00    -0.271 OA
HETATM  253  H   UNK N   1       9.875   9.214   0.237  0.00  0.00     0.163 HD
BRANCH 251 254
HETATM  254  C   UNK N   1      13.173   9.501  -0.557  0.00  0.00     0.177 C 
BRANCH 254 255
HETATM  255  N   UNK N   1      13.758   9.848  -1.832  0.00  0.00    -0.346 N 
HETATM  256  C   UNK N   1      13.513  11.050  -2.401  0.00  0.00     0.241 C 
HETATM  257  O   UNK N   1      13.992  11.318  -3.488  0.00  0.00    -0.271 OA
HETATM  258  H   UNK N   1      14.340   9.201  -2.292  0.00  0.00     0.163 HD
BRANCH 256 259
HETATM  259  C   UNK N   1      12.715  12.079  -1.660  0.00  0.00     0.177 C 
BRANCH 259 260
HETATM  260  N   UNK N   1      13.248  12.501  -0.391  0.00  0.00    -0.346 N 
HETATM  261  C   UNK N   1      14.455  13.105  -0.293  0.00  0.00     0.241 C 
HETATM  262  O   UNK N   1      15.145  13.261  -1.298  0.00  0.00    -0.271 OA
HETATM  263  H   UNK N   1      12.721  12.345   0.426  0.00  0.00     0.163 HD
BRANCH 261 264
HETATM  264  C   UNK N   1      14.908  13.715   1.011  0.00  0.00     0.177 C 
BRANCH 264 265
HETATM  265  N   UNK N   1      13.958  13.465   2.089  0.00  0.00    -0.346 N 
HETATM  266  C   UNK N   1      12.696  13.973   2.256  0.00  0.00     0.241 C 
HETATM  267  O   UNK N   1      12.069  13.614   3.243  0.00  0.00    -0.271 OA
HETATM  268  H   UNK N   1      14.265  12.848   2.792  0.00  0.00     0.163 HD
BRANCH 266 269
HETATM  269  C   UNK N   1      12.056  15.046   1.369  0.00  0.00     0.177 C 
BRANCH 269 270
HETATM  270  N   UNK N   1      12.332  14.945  -0.044  0.00  0.00    -0.346 N 
HETATM  271  C   UNK N   1      13.249  15.764  -0.598  0.00  0.00     0.240 C 
HETATM  272  O   UNK N   1      13.439  15.750  -1.805  0.00  0.00    -0.271 OA
HETATM  273  H   UNK N   1      11.855  14.285  -0.598  0.00  0.00     0.163 HD
BRANCH 271 274
HETATM  274  C   UNK N   1      14.033  16.657   0.289  0.00  0.00     0.172 C 
HETATM  275  C   UNK N   1      15.535  16.554   0.194  0.00  0.00     0.042 C 
BRANCH 274 276
HETATM  276  N   UNK N   1      13.610  17.999   0.185  0.00  0.00    -0.346 N 
HETATM  277  C   UNK N   1      13.847  18.815  -0.866  0.00  0.00     0.243 C 
HETATM  278  O   UNK N   1      14.391  18.409  -1.881  0.00  0.00    -0.271 OA
HETATM  279  H   UNK N   1      13.101  18.372   0.941  0.00  0.00     0.163 HD
BRANCH 277 280
HETATM  280  C   UNK N   1      13.623  20.260  -0.636  0.00  0.00     0.205 C 
BRANCH 280 281
HETATM  281  N   UNK N   1      13.739  20.420   0.807  0.00  0.00    -0.344 N 
HETATM  282  C   UNK N   1      14.939  20.383   1.465  0.00  0.00     0.241 C 
HETATM  283  O   UNK N   1      14.941  20.271   2.679  0.00  0.00    -0.271 OA
HETATM  284  H   UNK N   1      12.918  20.560   1.333  0.00  0.00     0.163 HD
BRANCH 282 285
HETATM  285  C   UNK N   1      16.208  20.876   0.799  0.00  0.00     0.180 C 
BRANCH 285 286
HETATM  286  N   UNK N   1      15.864  22.015  -0.007  0.00  0.00    -0.346 N 
HETATM  287  C   UNK N   1      15.164  23.033   0.550  0.00  0.00     0.241 C 
HETATM  288  O   UNK N   1      15.019  23.103   1.763  0.00  0.00    -0.271 OA
HETATM  289  H   UNK N   1      16.133  22.055  -0.953  0.00  0.00     0.163 HD
BRANCH 287 290
HETATM  290  C   UNK N   1      14.605  24.085  -0.314  0.00  0.00     0.176 C 
BRANCH 290 291
HETATM  291  N   UNK N   1      15.626  24.912  -0.864  0.00  0.00    -0.346 N 
HETATM  292  C   UNK N   1      16.609  25.436  -0.090  0.00  0.00     0.241 C 
HETATM  293  O   UNK N   1      16.503  25.469   1.129  0.00  0.00    -0.271 OA
HETATM  294  H   UNK N   1      15.618  25.108  -1.828  0.00  0.00     0.163 HD
BRANCH 292 295
HETATM  295  C   UNK N   1      17.912  25.757  -0.735  0.00  0.00     0.177 C 
BRANCH 295 296
HETATM  296  N   UNK N   1      17.725  25.853  -2.167  0.00  0.00    -0.346 N 
HETATM  297  C   UNK N   1      17.016  26.858  -2.750  0.00  0.00     0.241 C 
HETATM  298  O   UNK N   1      16.870  26.859  -3.959  0.00  0.00    -0.271 OA
HETATM  299  H   UNK N   1      18.128  25.164  -2.744  0.00  0.00     0.163 HD
BRANCH 297 300
HETATM  300  C   UNK N   1      16.480  28.011  -1.938  0.00  0.00     0.177 C 
BRANCH 300 301
HETATM  301  N   UNK N   1      17.446  28.513  -0.987  0.00  0.00    -0.346 N 
HETATM  302  C   UNK N   1      17.272  29.338   0.072  0.00  0.00     0.241 C 
HETATM  303  O   UNK N   1      16.171  29.759   0.377  0.00  0.00    -0.271 OA
HETATM  304  H   UNK N   1      18.371  28.208  -1.132  0.00  0.00     0.163 HD
BRANCH 302 305
HETATM  305  C   UNK N   1      18.494  29.751   0.838  0.00  0.00     0.181 C 
BRANCH 305 306
HETATM  306  N   UNK N   1      18.303  30.924   1.677  0.00  0.00    -0.346 N 
HETATM  307  C   UNK N   1      18.069  32.210   1.277  0.00  0.00     0.241 C 
HETATM  308  O   UNK N   1      17.978  33.074   2.132  0.00  0.00    -0.271 OA
HETATM  309  H   UNK N   1      18.346  30.774   2.649  0.00  0.00     0.163 HD
BRANCH 307 310
HETATM  310  C   UNK N   1      17.862  32.636  -0.157  0.00  0.00     0.177 C 
BRANCH 310 311
HETATM  311  N   UNK N   1      16.602  32.158  -0.638  0.00  0.00    -0.346 N 
HETATM  312  C   UNK N   1      15.593  33.024  -0.841  0.00  0.00     0.241 C 
HETATM  313  O   UNK N   1      15.814  34.224  -0.882  0.00  0.00    -0.271 OA
HETATM  314  H   UNK N   1      16.474  31.199  -0.821  0.00  0.00     0.163 HD
BRANCH 312 315
HETATM  315  C   UNK N   1      14.198  32.514  -0.732  0.00  0.00     0.177 C 
BRANCH 315 316
HETATM  316  N   UNK N   1      13.626  33.010   0.509  0.00  0.00    -0.346 N 
HETATM  317  C   UNK N   1      12.987  34.200   0.682  0.00  0.00     0.241 C 
HETATM  318  O   UNK N   1      12.663  34.534   1.811  0.00  0.00    -0.271 OA
HETATM  319  H   UNK N   1      13.708  32.430   1.300  0.00  0.00     0.163 HD
BRANCH 317 320
HETATM  320  C   UNK N   1      12.569  35.057  -0.492  0.00  0.00     0.180 C 
BRANCH 320 321
HETATM  321  N   UNK N   1      11.336  35.782  -0.279  0.00  0.00    -0.348 N 
HETATM  322  C   UNK N   1      10.149  35.148  -0.126  0.00  0.00     0.214 C 
HETATM  323  O   UNK N   1      10.080  33.930  -0.167  0.00  0.00    -0.274 OA
HETATM  324  C   UNK N   1       8.911  35.943   0.086  0.00  0.00     0.117 C 
HETATM  325  H   UNK N   1      11.361  36.766  -0.244  0.00  0.00     0.163 HD
ENDBRANCH 320 321
BRANCH 320 326
HETATM  326  C   UNK N   1      13.662  35.860  -1.196  0.00  0.00     0.075 C 
BRANCH 326 327
HETATM  327  C   UNK N   1      13.814  37.276  -0.749  0.00  0.00    -0.028 A 
HETATM  328  C   UNK N   1      14.866  37.820  -0.059  0.00  0.00    -0.002 A 
HETATM  329  C   UNK N   1      14.596  39.152   0.078  0.00  0.00     0.042 A 
HETATM  330  C   UNK N   1      16.031  37.249   0.448  0.00  0.00     0.014 A 
HETATM  331  N   UNK N   1      13.422  39.471  -0.497  0.00  0.00    -0.365 N 
HETATM  332  C   UNK N   1      15.467  40.016   0.734  0.00  0.00     0.030 A 
HETATM  333  C   UNK N   1      12.931  38.317  -1.015  0.00  0.00     0.096 A 
HETATM  334  H   UNK N   1      13.004  40.361  -0.534  0.00  0.00     0.165 HD
HETATM  335  C   UNK N   1      16.653  39.473   1.263  0.00  0.00     0.002 A 
HETATM  336  C   UNK N   1      16.934  38.095   1.121  0.00  0.00     0.001 A 
ENDBRANCH 326 327
ENDBRANCH 320 326
ENDBRANCH 317 320
ENDBRANCH 315 316
BRANCH 315 337
HETATM  337  C   UNK N   1      13.311  32.654  -1.967  0.00  0.00     0.044 C 
BRANCH 337 338
HETATM  338  C   UNK N   1      12.455  31.405  -2.167  0.00  0.00     0.105 C 
BRANCH 338 339
HETATM  339  C   UNK N   1      11.237  31.357  -1.292  0.00  0.00     0.215 C 
HETATM  340  O   UNK N   1      11.343  31.354  -0.076  0.00  0.00    -0.274 OA
HETATM  341  N   UNK N   1      10.017  31.264  -1.852  0.00  0.00    -0.370 N 
HETATM  342  H   UNK N   1       9.511  32.002  -2.263  0.00  0.00     0.159 HD
HETATM  343  H   UNK N   1       9.591  30.376  -1.852  0.00  0.00     0.159 HD
ENDBRANCH 338 339
ENDBRANCH 337 338
ENDBRANCH 315 337
ENDBRANCH 312 315
ENDBRANCH 310 311
BRANCH 310 344
HETATM  344  C   UNK N   1      19.018  32.493  -1.133  0.00  0.00     0.045 C 
BRANCH 344 345
HETATM  345  C   UNK N   1      19.336  33.823  -1.806  0.00  0.00     0.112 C 
BRANCH 345 346
HETATM  346  C   UNK N   1      19.443  34.942  -0.814  0.00  0.00     0.139 C 
HETATM  347  O   UNK N   1      20.249  34.885   0.101  0.00  0.00    -0.650 OA
BRANCH 346 348
HETATM  348  O   UNK N   1      18.615  35.997  -0.913  0.00  0.00    -0.776 OA
HETATM  349  H   UNK N   1      18.963  36.865  -0.982  0.00  0.00     0.167 HD
ENDBRANCH 346 348
ENDBRANCH 345 346
ENDBRANCH 344 345
ENDBRANCH 310 344
ENDBRANCH 307 310
ENDBRANCH 305 306
BRANCH 305 350
HETATM  350  C   UNK N   1      19.644  29.921  -0.142  0.00  0.00     0.075 C 
BRANCH 350 351
HETATM  351  C   UNK N   1      20.948  30.331   0.427  0.00  0.00    -0.028 A 
HETATM  352  C   UNK N   1      22.139  29.735   0.170  0.00  0.00    -0.002 A 
HETATM  353  C   UNK N   1      23.105  30.474   0.780  0.00  0.00     0.042 A 
HETATM  354  C   UNK N   1      22.447  28.605  -0.593  0.00  0.00     0.014 A 
HETATM  355  N   UNK N   1      22.557  31.530   1.428  0.00  0.00    -0.365 N 
HETATM  356  C   UNK N   1      24.449  30.159   0.685  0.00  0.00     0.030 A 
HETATM  357  C   UNK N   1      21.226  31.453   1.207  0.00  0.00     0.096 A 
HETATM  358  H   UNK N   1      23.032  32.214   1.954  0.00  0.00     0.165 HD
HETATM  359  C   UNK N   1      24.799  29.022  -0.074  0.00  0.00     0.002 A 
HETATM  360  C   UNK N   1      23.800  28.248  -0.708  0.00  0.00     0.001 A 
ENDBRANCH 350 351
ENDBRANCH 305 350
ENDBRANCH 302 305
ENDBRANCH 300 301
BRANCH 300 361
HETATM  361  C   UNK N   1      14.979  28.272  -1.765  0.00  0.00     0.045 C 
BRANCH 361 362
HETATM  362  C   UNK N   1      14.393  27.535  -0.572  0.00  0.00     0.112 C 
BRANCH 362 363
HETATM  363  C   UNK N   1      13.644  28.438   0.357  0.00  0.00     0.139 C 
HETATM  364  O   UNK N   1      13.219  28.005   1.413  0.00  0.00    -0.650 OA
BRANCH 363 365
HETATM  365  O   UNK N   1      13.481  29.737   0.064  0.00  0.00    -0.776 OA
HETATM  366  H   UNK N   1      14.210  30.289  -0.140  0.00  0.00     0.167 HD
ENDBRANCH 363 365
ENDBRANCH 362 363
ENDBRANCH 361 362
ENDBRANCH 300 361
ENDBRANCH 297 300
ENDBRANCH 295 296
BRANCH 295 367
HETATM  367  C   UNK N   1      18.845  24.589  -0.450  0.00  0.00     0.044 C 
BRANCH 367 368
HETATM  368  C   UNK N   1      19.378  24.638   0.970  0.00  0.00     0.105 C 
BRANCH 368 369
HETATM  369  C   UNK N   1      20.856  24.782   0.907  0.00  0.00     0.215 C 
HETATM  370  O   UNK N   1      21.539  23.889   0.433  0.00  0.00    -0.274 OA
HETATM  371  N   UNK N   1      21.437  25.913   1.347  0.00  0.00    -0.370 N 
HETATM  372  H   UNK N   1      22.366  25.959   1.669  0.00  0.00     0.159 HD
HETATM  373  H   UNK N   1      20.904  26.741   1.347  0.00  0.00     0.159 HD
ENDBRANCH 368 369
ENDBRANCH 367 368
ENDBRANCH 295 367
ENDBRANCH 292 295
ENDBRANCH 290 291
BRANCH 290 374
HETATM  374  C   UNK N   1      13.201  24.628  -0.099  0.00  0.00     0.035 C 
BRANCH 374 375
HETATM  375  C   UNK N   1      12.942  24.951   1.364  0.00  0.00     0.004 C 
BRANCH 375 376
HETATM  376  C   UNK N   1      11.453  24.926   1.654  0.00  0.00     0.019 C 
BRANCH 376 377
HETATM  377  C   UNK N   1      10.801  26.248   1.289  0.00  0.00     0.111 C 
BRANCH 377 378
HETATM  378  N   UNK N   1      10.787  26.426  -0.153  0.00  0.00    -0.430 N 
HETATM  379  H   UNK N   1      10.890  26.497  -1.165  0.00  0.00     0.149 HD
HETATM  380  H   UNK N   1       9.867  26.867  -0.153  0.00  0.00     0.149 HD
ENDBRANCH 377 378
ENDBRANCH 376 377
ENDBRANCH 375 376
ENDBRANCH 374 375
ENDBRANCH 290 374
ENDBRANCH 287 290
ENDBRANCH 285 286
BRANCH 285 381
HETATM  381  C   UNK N   1      17.199  19.899   0.136  0.00  0.00     0.013 C 
HETATM  382  C   UNK N   1      16.864  19.609  -1.313  0.00  0.00     0.012 C 
BRANCH 381 383
HETATM  383  C   UNK N   1      18.606  20.484   0.157  0.00  0.00     0.002 C 
HETATM  384  C   UNK N   1      19.132  20.604   1.576  0.00  0.00     0.005 C 
ENDBRANCH 381 383
ENDBRANCH 285 381
ENDBRANCH 282 285
ENDBRANCH 280 281
BRANCH 280 385
HETATM  385  C   UNK N   1      12.231  20.628  -1.164  0.00  0.00     0.146 C 
HETATM  386  C   UNK N   1      11.098  19.970  -0.387  0.00  0.00     0.042 C 
BRANCH 385 387
HETATM  387  O   UNK N   1      12.056  22.008  -1.183  0.00  0.00    -0.393 OA
HETATM  388  H   UNK N   1      12.829  22.594  -1.197  0.00  0.00     0.210 HD
ENDBRANCH 385 387
ENDBRANCH 280 385
ENDBRANCH 277 280
ENDBRANCH 274 276
ENDBRANCH 271 274
ENDBRANCH 269 270
BRANCH 269 389
HETATM  389  C   UNK N   1      10.554  15.259   1.609  0.00  0.00     0.038 C 
BRANCH 389 390
HETATM  390  C   UNK N   1      10.014  16.510   0.911  0.00  0.00    -0.020 C 
HETATM  391  C   UNK N   1       8.701  16.915   1.545  0.00  0.00     0.009 C 
HETATM  392  C   UNK N   1       9.777  16.269  -0.570  0.00  0.00     0.009 C 
ENDBRANCH 389 390
ENDBRANCH 269 389
ENDBRANCH 266 269
ENDBRANCH 264 265
BRANCH 264 393
HETATM  393  C   UNK N   1      16.288  13.167   1.399  0.00  0.00     0.038 C 
BRANCH 393 394
HETATM  394  C   UNK N   1      17.403  13.638   0.456  0.00  0.00    -0.020 C 
HETATM  395  C   UNK N   1      18.557  12.662   0.484  0.00  0.00     0.009 C 
HETATM  396  C   UNK N   1      17.934  14.997   0.865  0.00  0.00     0.009 C 
ENDBRANCH 393 394
ENDBRANCH 264 393
ENDBRANCH 261 264
ENDBRANCH 259 260
BRANCH 259 397
HETATM  397  C   UNK N   1      11.482  12.797  -2.208  0.00  0.00     0.045 C 
BRANCH 397 398
HETATM  398  C   UNK N   1      10.163  12.125  -1.836  0.00  0.00     0.112 C 
BRANCH 398 399
HETATM  399  C   UNK N   1       9.652  12.545  -0.493  0.00  0.00     0.139 C 
HETATM  400  O   UNK N   1      10.252  12.231   0.523  0.00  0.00    -0.650 OA
BRANCH 399 401
HETATM  401  O   UNK N   1       8.499  13.233  -0.403  0.00  0.00    -0.776 OA
HETATM  402  H   UNK N   1       8.512  14.168  -0.340  0.00  0.00     0.167 HD
ENDBRANCH 399 401
ENDBRANCH 398 399
ENDBRANCH 397 398
ENDBRANCH 259 397
ENDBRANCH 256 259
ENDBRANCH 254 255
BRANCH 254 403
HETATM  403  C   UNK N   1      13.958   8.357   0.064  0.00  0.00     0.044 C 
BRANCH 403 404
HETATM  404  C   UNK N   1      15.202   8.849   0.784  0.00  0.00     0.105 C 
BRANCH 404 405
HETATM  405  C   UNK N   1      16.356   8.953  -0.154  0.00  0.00     0.215 C 
HETATM  406  O   UNK N   1      16.778   7.958  -0.722  0.00  0.00    -0.274 OA
HETATM  407  N   UNK N   1      16.942  10.144  -0.363  0.00  0.00    -0.370 N 
HETATM  408  H   UNK N   1      17.913  10.209  -0.517  0.00  0.00     0.159 HD
HETATM  409  H   UNK N   1      16.394  10.962  -0.363  0.00  0.00     0.159 HD
ENDBRANCH 404 405
ENDBRANCH 403 404
ENDBRANCH 254 403
ENDBRANCH 251 254
ENDBRANCH 248 250
ENDBRANCH 245 248
ENDBRANCH 243 244
BRANCH 243 410
HETATM  410  C   UNK N   1      12.330   4.298   0.727  0.00  0.00     0.044 C 
BRANCH 410 411
HETATM  411  C   UNK N   1      13.669   4.741   1.327  0.00  0.00     0.105 C 
BRANCH 411 412
HETATM  412  C   UNK N   1      14.820   4.627   0.380  0.00  0.00     0.215 C 
HETATM  413  O   UNK N   1      15.785   3.947   0.685  0.00  0.00    -0.274 OA
HETATM  414  N   UNK N   1      14.820   5.308  -0.782  0.00  0.00    -0.370 N 
HETATM  415  H   UNK N   1      15.250   5.556  -1.632  0.00  0.00     0.159 HD
HETATM  416  H   UNK N   1      13.967   5.800  -0.782  0.00  0.00     0.159 HD
ENDBRANCH 411 412
ENDBRANCH 410 411
ENDBRANCH 243 410
ENDBRANCH 240 243
ENDBRANCH 238 239
BRANCH 238 417
HETATM  417  C   UNK N   1       7.166   3.745   0.332  0.00  0.00     0.013 C 
HETATM  418  C   UNK N   1       6.403   3.286   1.564  0.00  0.00     0.012 C 
BRANCH 417 419
HETATM  419  C   UNK N   1       6.804   5.202   0.103  0.00  0.00     0.002 C 
HETATM  420  C   UNK N   1       6.889   5.548  -1.370  0.00  0.00     0.005 C 
ENDBRANCH 417 419
ENDBRANCH 238 417
ENDBRANCH 235 238
ENDBRANCH 233 234
BRANCH 233 421
HETATM  421  C   UNK N   1      11.883   0.459   0.604  0.00  0.00     0.044 C 
BRANCH 421 422
HETATM  422  C   UNK N   1      12.776   0.341  -0.622  0.00  0.00     0.105 C 
BRANCH 422 423
HETATM  423  C   UNK N   1      14.118   0.941  -0.358  0.00  0.00     0.215 C 
HETATM  424  O   UNK N   1      14.802   0.535   0.568  0.00  0.00    -0.274 OA
HETATM  425  N   UNK N   1      14.588   1.909  -1.166  0.00  0.00    -0.370 N 
HETATM  426  H   UNK N   1      15.373   1.965  -1.757  0.00  0.00     0.159 HD
HETATM  427  H   UNK N   1      14.036   2.724  -1.166  0.00  0.00     0.159 HD
ENDBRANCH 422 423
ENDBRANCH 421 422
ENDBRANCH 233 421
ENDBRANCH 230 233
ENDBRANCH 228 229
BRANCH 228 428
HETATM  428  C   UNK N   1       6.763   0.266  -1.419  0.00  0.00     0.044 C 
BRANCH 428 429
HETATM  429  C   UNK N   1       5.960   0.847  -0.264  0.00  0.00     0.105 C 
BRANCH 429 430
HETATM  430  C   UNK N   1       4.753   1.609  -0.703  0.00  0.00     0.215 C 
HETATM  431  O   UNK N   1       3.662   1.332  -0.235  0.00  0.00    -0.274 OA
HETATM  432  N   UNK N   1       4.874   2.646  -1.553  0.00  0.00    -0.370 N 
HETATM  433  H   UNK N   1       5.574   2.950  -2.174  0.00  0.00     0.159 HD
HETATM  434  H   UNK N   1       4.083   3.234  -1.553  0.00  0.00     0.159 HD
ENDBRANCH 429 430
ENDBRANCH 428 429
ENDBRANCH 228 428
ENDBRANCH 225 228
ENDBRANCH 223 224
BRANCH 223 435
HETATM  435  C   UNK N   1      10.762  -3.485   0.593  0.00  0.00     0.045 C 
BRANCH 435 436
HETATM  436  C   UNK N   1      12.020  -2.672   0.846  0.00  0.00     0.112 C 
BRANCH 436 437
HETATM  437  C   UNK N   1      12.982  -2.712  -0.302  0.00  0.00     0.139 C 
HETATM  438  O   UNK N   1      12.589  -2.901  -1.443  0.00  0.00    -0.650 OA
BRANCH 437 439
HETATM  439  O   UNK N   1      14.288  -2.484  -0.077  0.00  0.00    -0.776 OA
HETATM  440  H   UNK N   1      14.881  -3.193   0.080  0.00  0.00     0.167 HD
ENDBRANCH 437 439
ENDBRANCH 436 437
ENDBRANCH 435 436
ENDBRANCH 223 435
ENDBRANCH   3 223
TORSDOF 185
