REMARK  13 active torsions:
REMARK  status: ('A' for Active; 'I' for Inactive)
REMARK    1  A    between atoms: C_2  and  C_3 
REMARK    2  A    between atoms: C_2  and  N_25 
REMARK       I    between atoms: C_3  and  N_5 
REMARK    3  A    between atoms: C_6  and  N_5 
REMARK    4  A    between atoms: C_6  and  C_7 
REMARK    5  A    between atoms: C_6  and  C_11 
REMARK    6  A    between atoms: C_7  and  C_8 
REMARK    7  A    between atoms: C_8  and  O_10 
REMARK    8  A    between atoms: C_11  and  C_13 
REMARK    9  A    between atoms: C_13  and  O_14 
REMARK   10  A    between atoms: O_14  and  C_15 
REMARK       I    between atoms: N_25  and  C_26 
REMARK   11  A    between atoms: C_26  and  C_28 
REMARK       I    between atoms: C_28  and  N_30 
REMARK   12  A    between atoms: N_30  and  C_31 
REMARK   13  A    between atoms: C_36  and  C_37 
ROOT
HETATM    1  C   UNK N   1      -3.056  -1.652   0.687  0.00  0.00     0.240 C 
HETATM    2  O   UNK N   1      -3.781  -2.278   1.442  0.00  0.00    -0.271 OA
HETATM    3  N   UNK N   1      -3.449  -1.382  -0.587  0.00  0.00    -0.347 N 
HETATM    4  H   UNK N   1      -2.771  -1.081  -1.234  0.00  0.00     0.163 HD
ENDROOT
BRANCH   1   5
HETATM    5  C   UNK N   1      -1.858  -0.956   1.270  0.00  0.00     0.173 C 
HETATM    6  C   UNK N   1      -2.044   0.543   1.122  0.00  0.00     0.042 C 
BRANCH   5   7
HETATM    7  N   UNK N   1      -0.525  -1.311   0.826  0.00  0.00    -0.340 N 
HETATM    8  C   UNK N   1      -0.109  -2.352   0.070  0.00  0.00     0.310 C 
HETATM    9  O   UNK N   1      -0.901  -3.209  -0.287  0.00  0.00    -0.262 OA
HETATM   10  H   UNK N   1       0.189  -0.699   1.120  0.00  0.00     0.163 HD
BRANCH   8  11
HETATM   11  C   UNK N   1       1.350  -2.529  -0.228  0.00  0.00     0.314 C 
HETATM   12  O   UNK N   1       1.716  -3.653  -0.541  0.00  0.00    -0.262 OA
HETATM   13  N   UNK N   1       2.307  -1.547  -0.175  0.00  0.00    -0.318 N 
HETATM   14  H   UNK N   1       3.226  -1.893  -0.238  0.00  0.00     0.169 HD
BRANCH  13  15
HETATM   15  C   UNK N   1       2.244  -0.116  -0.047  0.00  0.00     0.042 A 
HETATM   16  C   UNK N   1       1.029   0.577  -0.075  0.00  0.00     0.030 A 
HETATM   17  C   UNK N   1       0.976   1.967   0.002  0.00  0.00     0.002 A 
HETATM   18  C   UNK N   1       2.152   2.701   0.081  0.00  0.00     0.001 A 
HETATM   19  C   UNK N   1       3.379   2.043   0.073  0.00  0.00     0.010 A 
HETATM   20  C   UNK N   1       3.453   0.637   0.008  0.00  0.00    -0.024 A 
BRANCH  20  21
HETATM   21  C   UNK N   1       4.820  -0.040  -0.027  0.00  0.00    -0.022 C 
HETATM   22  C   UNK N   1       4.994  -0.929   1.190  0.00  0.00     0.019 C 
HETATM   23  C   UNK N   1       4.959  -0.883  -1.284  0.00  0.00     0.019 C 
HETATM   24  C   UNK N   1       5.974   0.957  -0.033  0.00  0.00     0.019 C 
ENDBRANCH  20  21
ENDBRANCH  13  15
ENDBRANCH   8  11
ENDBRANCH   5   7
ENDBRANCH   1   5
BRANCH   3  25
HETATM   25  C   UNK N   1      -4.827  -1.517  -1.038  0.00  0.00     0.166 C 
BRANCH  25  26
HETATM   26  C   UNK N   1      -5.345  -2.923  -1.385  0.00  0.00     0.143 C 
BRANCH  26  27
HETATM   27  C   UNK N   1      -5.369  -3.908  -0.258  0.00  0.00     0.141 C 
HETATM   28  O   UNK N   1      -6.039  -3.696   0.740  0.00  0.00    -0.650 OA
BRANCH  27  29
HETATM   29  O   UNK N   1      -4.675  -5.055  -0.365  0.00  0.00    -0.776 OA
HETATM   30  H   UNK N   1      -5.126  -5.874  -0.440  0.00  0.00     0.167 HD
ENDBRANCH  27  29
ENDBRANCH  26  27
ENDBRANCH  25  26
BRANCH  25  31
HETATM   31  C   UNK N   1      -5.718  -0.409  -0.486  0.00  0.00     0.173 C 
HETATM   32  O   UNK N   1      -5.188   0.653  -0.198  0.00  0.00    -0.293 OA
BRANCH  31  33
HETATM   33  C   UNK N   1      -7.210  -0.486  -0.311  0.00  0.00     0.256 C 
BRANCH  33  34
HETATM   34  O   UNK N   1      -7.732  -1.741  -0.485  0.00  0.00    -0.338 OA
BRANCH  34  35
HETATM   35  C   UNK N   1      -9.026  -2.069  -0.230  0.00  0.00     0.152 A 
HETATM   36  C   UNK N   1      -9.377  -3.425  -0.251  0.00  0.00     0.191 A 
HETATM   37  C   UNK N   1     -10.685  -3.825   0.030  0.00  0.00     0.160 A 
HETATM   38  F   UNK N   1      -8.439  -4.362  -0.534  0.00  0.00    -0.200 F 
HETATM   39  C   UNK N   1     -11.661  -2.874   0.323  0.00  0.00     0.091 A 
HETATM   40  F   UNK N   1     -11.007  -5.141   0.023  0.00  0.00    -0.203 F 
HETATM   41  C   UNK N   1     -11.336  -1.517   0.337  0.00  0.00     0.160 A 
HETATM   42  C   UNK N   1     -10.026  -1.103   0.065  0.00  0.00     0.191 A 
HETATM   43  F   UNK N   1     -12.296  -0.602   0.617  0.00  0.00    -0.203 F 
HETATM   44  F   UNK N   1      -9.746   0.225   0.088  0.00  0.00    -0.200 F 
ENDBRANCH  34  35
ENDBRANCH  33  34
ENDBRANCH  31  33
ENDBRANCH  25  31
ENDBRANCH   3  25
TORSDOF 13
