REMARK  10 active torsions:
REMARK  status: ('A' for Active; 'I' for Inactive)
REMARK    1  A    between atoms: C_2  and  O_3 
REMARK    2  A    between atoms: O_3  and  C_4 
REMARK    3  A    between atoms: C_4  and  C_6 
REMARK    4  A    between atoms: C_6  and  O_7 
REMARK    5  A    between atoms: O_7  and  C_8 
REMARK    6  A    between atoms: C_15  and  N_18 
REMARK    7  A    between atoms: N_18  and  C_19 
REMARK    8  A    between atoms: C_19  and  C_20 
REMARK    9  A    between atoms: C_20  and  C_21 
REMARK   10  A    between atoms: C_20  and  O_28 
ROOT
HETATM    1  C   UNK N   1      -0.615  -5.156  -0.071  0.00  0.00     0.070 A 
HETATM    2  C   UNK N   1      -0.398  -6.536  -0.156  0.00  0.00     0.037 A 
HETATM    3  C   UNK N   1       0.906  -7.044  -0.183  0.00  0.00     0.010 A 
HETATM    4  C   UNK N   1       2.003  -6.177  -0.123  0.00  0.00    -0.051 A 
HETATM    5  C   UNK N   1       1.788  -4.786  -0.041  0.00  0.00    -0.047 A 
HETATM    6  C   UNK N   1       0.487  -4.289  -0.013  0.00  0.00     0.044 A 
HETATM    7  C   UNK N   1       2.923  -3.806   0.051  0.00  0.00     0.063 C 
HETATM    8  C   UNK N   1       4.316  -4.416  -0.107  0.00  0.00     0.081 C 
HETATM    9  C   UNK N   1       4.386  -5.802   0.525  0.00  0.00     0.029 C 
HETATM   10  C   UNK N   1       3.390  -6.745  -0.140  0.00  0.00     0.041 C 
ENDROOT
BRANCH   8  11
HETATM   11  N   UNK N   1       5.256  -3.554   0.584  0.00  0.00    -0.414 N 
HETATM   12  H   UNK N   1       5.288  -3.408   1.593  0.00  0.00     0.153 HD
BRANCH  11  13
HETATM   13  C   UNK N   1       6.143  -2.929  -0.382  0.00  0.00     0.150 C 
BRANCH  13  14
HETATM   14  C   UNK N   1       7.503  -2.774   0.280  0.00  0.00     0.168 C 
BRANCH  14  15
HETATM   15  C   UNK N   1       8.369  -3.995   0.092  0.00  0.00    -0.026 A 
HETATM   16  C   UNK N   1       9.705  -3.873  -0.321  0.00  0.00     0.010 A 
HETATM   17  C   UNK N   1      10.502  -5.010  -0.478  0.00  0.00     0.002 A 
HETATM   18  C   UNK N   1       9.964  -6.279  -0.244  0.00  0.00     0.024 A 
HETATM   19  C   UNK N   1       8.634  -6.410   0.162  0.00  0.00     0.034 A 
HETATM   20  C   UNK N   1       7.844  -5.273   0.341  0.00  0.00     0.033 A 
HETATM   21 Cl   UNK N   1       7.947  -7.999   0.419  0.00  0.00    -0.084 Cl
ENDBRANCH  14  15
BRANCH  14  22
HETATM   22  O   UNK N   1       8.134  -1.619  -0.189  0.00  0.00    -0.389 OA
HETATM   23  H   UNK N   1       9.047  -1.598  -0.515  0.00  0.00     0.210 HD
ENDBRANCH  14  22
ENDBRANCH  13  14
ENDBRANCH  11  13
ENDBRANCH   8  11
BRANCH   1  24
HETATM   24  O   UNK N   1      -1.882  -4.679  -0.048  0.00  0.00    -0.342 OA
BRANCH  24  25
HETATM   25  C   UNK N   1      -2.157  -3.327   0.006  0.00  0.00     0.286 C 
BRANCH  25  26
HETATM   26  C   UNK N   1      -3.627  -3.068   0.013  0.00  0.00     0.283 C 
HETATM   27  O   UNK N   1      -4.025  -1.911   0.039  0.00  0.00    -0.263 OA
BRANCH  26  28
HETATM   28  O   UNK N   1      -4.505  -4.100  -0.007  0.00  0.00    -0.320 OA
BRANCH  28  29
HETATM   29  C   UNK N   1      -5.867  -3.905   0.001  0.00  0.00     0.174 C 
HETATM   30  C   UNK N   1      -6.568  -5.246  -0.012  0.00  0.00     0.034 C 
ENDBRANCH  28  29
ENDBRANCH  26  28
ENDBRANCH  25  26
ENDBRANCH  24  25
ENDBRANCH   1  24
TORSDOF 10
