REMARK WARNING: 32 MAX_TORS EXCEEDED!!!
REMARK  92 active torsions:
REMARK  status: ('A' for Active; 'I' for Inactive)
REMARK       I    between atoms: C_3  and  N_4 
REMARK       I    between atoms: C_3  and  N_5 
REMARK    1  A    between atoms: N_5  and  C_6 
REMARK    2  A    between atoms: C_6  and  C_7 
REMARK    3  A    between atoms: C_7  and  C_8 
REMARK    4  A    between atoms: C_9  and  C_8 
REMARK    5  A    between atoms: C_21  and  C_22 
REMARK    6  A    between atoms: C_22  and  C_23 
REMARK    7  A    between atoms: C_32  and  N_169 
REMARK    8  A    between atoms: C_37  and  C_117 
REMARK    9  A    between atoms: C_45  and  C_46 
REMARK   10  A    between atoms: C_46  and  C_47 
REMARK   11  A    between atoms: C_57  and  C_58 
REMARK   12  A    between atoms: C_58  and  O_59 
REMARK   13  A    between atoms: C_63  and  C_64 
REMARK   14  A    between atoms: C_64  and  C_65 
REMARK   15  A    between atoms: C_65  and  C_66 
REMARK       I    between atoms: C_66  and  N_67 
REMARK   16  A    between atoms: C_81  and  C_113 
REMARK   17  A    between atoms: C_85  and  C_86 
REMARK   18  A    between atoms: C_86  and  C_87 
REMARK   19  A    between atoms: C_87  and  C_88 
REMARK   20  A    between atoms: C_88  and  N_89 
REMARK       I    between atoms: N_89  and  C_90 
REMARK       I    between atoms: C_90  and  N_91 
REMARK   21  A    between atoms: C_97  and  C_98 
REMARK   22  A    between atoms: C_98  and  C_99 
REMARK   23  A    between atoms: C_99  and  O_100 
REMARK   24  A    between atoms: C_105  and  C_106 
REMARK   25  A    between atoms: C_106  and  C_107 
REMARK   26  A    between atoms: C_107  and  S_108 
REMARK   27  A    between atoms: C_113  and  C_115 
REMARK       I    between atoms: C_117  and  N_119 
REMARK   28  A    between atoms: C_120  and  N_119 
REMARK   29  A    between atoms: C_120  and  C_121 
REMARK   30  A    between atoms: C_120  and  C_125 
REMARK   31  A    between atoms: C_121  and  C_122 
REMARK       I    between atoms: C_122  and  N_123 
REMARK       I    between atoms: C_125  and  N_127 
REMARK   32  A    between atoms: C_128  and  N_127 
REMARK   33  A    between atoms: C_128  and  C_129 
REMARK   34  A    between atoms: C_128  and  C_131 
REMARK   35  A    between atoms: C_129  and  O_130 
REMARK       I    between atoms: C_131  and  N_133 
REMARK   36  A    between atoms: C_134  and  N_133 
REMARK   37  A    between atoms: C_134  and  C_135 
REMARK   38  A    between atoms: C_134  and  C_142 
REMARK   39  A    between atoms: C_135  and  C_136 
REMARK       I    between atoms: C_142  and  N_144 
REMARK   40  A    between atoms: C_145  and  N_144 
REMARK   41  A    between atoms: C_145  and  C_146 
REMARK   42  A    between atoms: C_145  and  C_154 
REMARK   43  A    between atoms: C_146  and  C_147 
REMARK   44  A    between atoms: C_147  and  C_148 
REMARK   45  A    between atoms: C_148  and  N_149 
REMARK       I    between atoms: N_149  and  C_150 
REMARK       I    between atoms: C_150  and  N_151 
REMARK       I    between atoms: C_154  and  N_156 
REMARK   46  A    between atoms: C_157  and  N_156 
REMARK   47  A    between atoms: C_157  and  C_158 
REMARK   48  A    between atoms: C_157  and  C_166 
REMARK   49  A    between atoms: C_158  and  C_159 
REMARK   50  A    between atoms: C_162  and  O_163 
REMARK   51  A    between atoms: C_166  and  O_167 
REMARK       I    between atoms: N_169  and  C_170 
REMARK   52  A    between atoms: C_170  and  C_172 
REMARK   53  A    between atoms: C_172  and  C_173 
REMARK   54  A    between atoms: C_172  and  N_175 
REMARK   55  A    between atoms: C_173  and  O_174 
REMARK       I    between atoms: N_175  and  C_176 
REMARK   56  A    between atoms: C_176  and  C_178 
REMARK   57  A    between atoms: C_178  and  C_179 
REMARK   58  A    between atoms: C_178  and  N_181 
REMARK   59  A    between atoms: C_179  and  O_180 
REMARK       I    between atoms: N_181  and  C_182 
REMARK   60  A    between atoms: C_182  and  C_184 
REMARK   61  A    between atoms: C_184  and  C_185 
REMARK   62  A    between atoms: C_184  and  N_193 
REMARK   63  A    between atoms: C_185  and  C_186 
REMARK   64  A    between atoms: C_186  and  C_187 
REMARK   65  A    between atoms: C_187  and  N_188 
REMARK       I    between atoms: N_188  and  C_189 
REMARK       I    between atoms: C_189  and  N_190 
REMARK       I    between atoms: N_193  and  C_194 
REMARK   66  A    between atoms: C_194  and  C_196 
REMARK   67  A    between atoms: C_196  and  C_197 
REMARK   68  A    between atoms: C_196  and  N_205 
REMARK   69  A    between atoms: C_197  and  C_198 
REMARK   70  A    between atoms: C_198  and  C_199 
REMARK   71  A    between atoms: C_199  and  N_200 
REMARK       I    between atoms: N_200  and  C_201 
REMARK       I    between atoms: C_201  and  N_202 
REMARK       I    between atoms: N_205  and  C_206 
REMARK   72  A    between atoms: C_206  and  C_208 
REMARK   73  A    between atoms: C_208  and  C_209 
REMARK   74  A    between atoms: C_208  and  N_213 
REMARK   75  A    between atoms: C_209  and  C_210 
REMARK       I    between atoms: N_213  and  C_214 
REMARK   76  A    between atoms: C_214  and  C_216 
REMARK   77  A    between atoms: C_216  and  C_217 
REMARK   78  A    between atoms: C_216  and  N_219 
REMARK   79  A    between atoms: C_217  and  O_218 
REMARK       I    between atoms: N_219  and  C_220 
REMARK   80  A    between atoms: C_220  and  C_222 
REMARK   81  A    between atoms: C_222  and  C_223 
REMARK   82  A    between atoms: C_222  and  N_231 
REMARK   83  A    between atoms: C_223  and  C_224 
REMARK   84  A    between atoms: C_224  and  C_225 
REMARK   85  A    between atoms: C_225  and  N_226 
REMARK       I    between atoms: N_226  and  C_227 
REMARK       I    between atoms: C_227  and  N_228 
REMARK       I    between atoms: N_231  and  C_232 
REMARK   86  A    between atoms: C_234  and  C_232 
REMARK       I    between atoms: N_238  and  C_239 
REMARK   87  A    between atoms: C_239  and  C_241 
REMARK   88  A    between atoms: C_241  and  N_243 
REMARK       I    between atoms: N_243  and  C_244 
REMARK   89  A    between atoms: C_244  and  C_246 
REMARK   90  A    between atoms: C_246  and  N_247 
REMARK   91  A    between atoms: C_246  and  C_248 
REMARK   92  A    between atoms: C_248  and  O_250 
ROOT
HETATM    1  C   UNK N   1       6.581  12.127  -0.251  0.00  0.00     0.176 C 
HETATM    2  N   UNK N   1       7.370  13.027   0.559  0.00  0.00    -0.346 N 
HETATM    3  C   UNK N   1       8.267  12.632   1.499  0.00  0.00     0.236 C 
HETATM    4  O   UNK N   1       8.883  13.481   2.121  0.00  0.00    -0.272 OA
HETATM    5  C   UNK N   1       8.611  11.193   1.733  0.00  0.00     0.225 C 
HETATM    6  N   UNK N   1       7.527  10.427   2.291  0.00  0.00    -0.351 N 
HETATM    7  C   UNK N   1       7.013   9.370   1.621  0.00  0.00     0.235 C 
HETATM    8  O   UNK N   1       7.397   9.105   0.493  0.00  0.00    -0.272 OA
HETATM    9  C   UNK N   1       6.024   8.479   2.283  0.00  0.00     0.225 C 
HETATM   10  N   UNK N   1       6.740   7.453   2.997  0.00  0.00    -0.351 N 
HETATM   11  C   UNK N   1       7.099   6.276   2.432  0.00  0.00     0.241 C 
HETATM   12  O   UNK N   1       7.722   5.465   3.100  0.00  0.00    -0.271 OA
HETATM   13  C   UNK N   1       6.731   5.927   1.014  0.00  0.00     0.180 C 
HETATM   14  N   UNK N   1       6.008   4.680   1.065  0.00  0.00    -0.346 N 
HETATM   15  C   UNK N   1       5.719   3.995  -0.065  0.00  0.00     0.242 C 
HETATM   16  O   UNK N   1       5.875   4.499  -1.157  0.00  0.00    -0.271 OA
HETATM   17  C   UNK N   1       5.544   2.551  -0.031  0.00  0.00     0.186 C 
HETATM   18  C   UNK N   1       5.260   1.863   1.268  0.00  0.00     0.120 C 
HETATM   19  S   UNK N   1       3.475   1.643   1.389  0.00  0.00    -0.095 SA
HETATM   20  S   UNK N   1       3.117   1.176  -0.701  0.00  0.00    -0.095 SA
HETATM   21  C   UNK N   1       4.171  -0.303  -0.943  0.00  0.00     0.120 C 
HETATM   22  C   UNK N   1       4.643  -1.112   0.263  0.00  0.00     0.186 C 
HETATM   23  N   UNK N   1       3.634  -1.272   1.287  0.00  0.00    -0.346 N 
HETATM   24  C   UNK N   1       3.457  -2.445   1.937  0.00  0.00     0.236 C 
HETATM   25  O   UNK N   1       2.566  -2.545   2.765  0.00  0.00    -0.272 OA
HETATM   26  C   UNK N   1       4.338  -3.626   1.649  0.00  0.00     0.225 C 
HETATM   27  N   UNK N   1       4.451  -3.811   0.220  0.00  0.00    -0.351 N 
HETATM   28  C   UNK N   1       4.333  -4.996  -0.421  0.00  0.00     0.240 C 
HETATM   29  O   UNK N   1       4.408  -5.014  -1.642  0.00  0.00    -0.271 OA
HETATM   30  C   UNK N   1       4.060  -6.270   0.334  0.00  0.00     0.177 C 
HETATM   31  N   UNK N   1       3.949  -7.361  -0.604  0.00  0.00    -0.346 N 
HETATM   32  C   UNK N   1       2.789  -8.030  -0.794  0.00  0.00     0.236 C 
HETATM   33  O   UNK N   1       2.723  -8.861  -1.684  0.00  0.00    -0.272 OA
HETATM   34  C   UNK N   1       1.572  -7.753   0.045  0.00  0.00     0.225 C 
HETATM   35  N   UNK N   1       0.935  -9.006   0.359  0.00  0.00    -0.350 N 
HETATM   36  C   UNK N   1      -0.405  -9.229   0.445  0.00  0.00     0.242 C 
HETATM   37  O   UNK N   1      -0.774 -10.367   0.688  0.00  0.00    -0.271 OA
HETATM   38  C   UNK N   1      -1.480  -8.147   0.319  0.00  0.00     0.200 C 
HETATM   39  N   UNK N   1      -1.035  -6.900  -0.271  0.00  0.00    -0.344 N 
HETATM   40  C   UNK N   1      -1.845  -5.819  -0.502  0.00  0.00     0.241 C 
HETATM   41  O   UNK N   1      -3.038  -5.871  -0.243  0.00  0.00    -0.271 OA
HETATM   42  C   UNK N   1      -1.261  -4.535  -1.045  0.00  0.00     0.177 C 
HETATM   43  N   UNK N   1       0.173  -4.731  -0.968  0.00  0.00    -0.346 N 
HETATM   44  C   UNK N   1       1.108  -3.917  -0.433  0.00  0.00     0.240 C 
HETATM   45  O   UNK N   1       1.888  -4.423   0.336  0.00  0.00    -0.271 OA
HETATM   46  C   UNK N   1       1.078  -2.420  -0.508  0.00  0.00     0.172 C 
HETATM   47  C   UNK N   1       0.507  -1.936  -1.837  0.00  0.00     0.042 C 
HETATM   48  N   UNK N   1       0.357  -1.973   0.652  0.00  0.00    -0.347 N 
HETATM   49  C   UNK N   1      -0.101  -0.735   0.909  0.00  0.00     0.236 C 
HETATM   50  O   UNK N   1      -0.752  -0.554   1.924  0.00  0.00    -0.272 OA
HETATM   51  C   UNK N   1       0.140   0.413   0.002  0.00  0.00     0.225 C 
HETATM   52  N   UNK N   1       0.541   1.483   0.860  0.00  0.00    -0.351 N 
HETATM   53  C   UNK N   1       0.364   2.780   0.581  0.00  0.00     0.241 C 
HETATM   54  O   UNK N   1       0.659   3.600   1.435  0.00  0.00    -0.271 OA
HETATM   55  C   UNK N   1      -0.170   3.233  -0.757  0.00  0.00     0.180 C 
HETATM   56  N   UNK N   1       0.716   4.243  -1.317  0.00  0.00    -0.346 N 
HETATM   57  C   UNK N   1       0.860   5.472  -0.762  0.00  0.00     0.241 C 
HETATM   58  O   UNK N   1       0.132   5.814   0.156  0.00  0.00    -0.271 OA
HETATM   59  C   UNK N   1       1.912   6.427  -1.252  0.00  0.00     0.176 C 
HETATM   60  N   UNK N   1       1.781   7.677  -0.537  0.00  0.00    -0.346 N 
HETATM   61  C   UNK N   1       1.875   7.814   0.813  0.00  0.00     0.241 C 
HETATM   62  O   UNK N   1       2.318   6.911   1.510  0.00  0.00    -0.271 OA
HETATM   63  C   UNK N   1       1.273   9.018   1.467  0.00  0.00     0.186 C 
HETATM   64  N   UNK N   1       1.919  10.264   1.116  0.00  0.00    -0.346 N 
HETATM   65  C   UNK N   1       1.966  10.809  -0.126  0.00  0.00     0.241 C 
HETATM   66  O   UNK N   1       1.414  10.276  -1.073  0.00  0.00    -0.271 OA
HETATM   67  C   UNK N   1       2.776  12.042  -0.360  0.00  0.00     0.177 C 
HETATM   68  N   UNK N   1       4.155  11.780  -0.004  0.00  0.00    -0.346 N 
HETATM   69  C   UNK N   1       5.168  12.620  -0.319  0.00  0.00     0.241 C 
HETATM   70  O   UNK N   1       4.934  13.728  -0.782  0.00  0.00    -0.271 OA
HETATM   71  H   UNK N   1       7.249  13.994   0.419  0.00  0.00     0.163 HD
HETATM   72  H   UNK N   1       7.157  10.674   3.169  0.00  0.00     0.163 HD
HETATM   73  H   UNK N   1       6.979   7.615   3.938  0.00  0.00     0.163 HD
HETATM   74  H   UNK N   1       5.720   4.322   1.936  0.00  0.00     0.163 HD
HETATM   75  H   UNK N   1       3.061  -0.506   1.518  0.00  0.00     0.163 HD
HETATM   76  H   UNK N   1       4.627  -3.013  -0.329  0.00  0.00     0.163 HD
HETATM   77  H   UNK N   1       4.743  -7.626  -1.123  0.00  0.00     0.163 HD
HETATM   78  H   UNK N   1       1.526  -9.776   0.527  0.00  0.00     0.163 HD
HETATM   79  H   UNK N   1      -0.087  -6.825  -0.523  0.00  0.00     0.163 HD
HETATM   80  H   UNK N   1       0.510  -5.569  -1.358  0.00  0.00     0.163 HD
HETATM   81  H   UNK N   1       0.176  -2.653   1.341  0.00  0.00     0.163 HD
HETATM   82  H   UNK N   1       0.975   1.251   1.713  0.00  0.00     0.163 HD
HETATM   83  H   UNK N   1       1.230   4.026  -2.128  0.00  0.00     0.163 HD
HETATM   84  H   UNK N   1       1.611   8.489  -1.067  0.00  0.00     0.163 HD
HETATM   85  H   UNK N   1       2.364  10.760   1.841  0.00  0.00     0.163 HD
HETATM   86  H   UNK N   1       4.365  10.954   0.489  0.00  0.00     0.163 HD
ENDROOT
BRANCH  17  87
HETATM   87  N   UNK N   1       6.408   1.893  -0.988  0.00  0.00    -0.345 N 
HETATM   88  C   UNK N   1       7.747   2.101  -1.131  0.00  0.00     0.243 C 
HETATM   89  O   UNK N   1       8.234   1.918  -2.233  0.00  0.00    -0.271 OA
HETATM   90  H   UNK N   1       5.991   1.235  -1.590  0.00  0.00     0.163 HD
BRANCH  88  91
HETATM   91  C   UNK N   1       8.640   2.682  -0.057  0.00  0.00     0.200 C 
BRANCH  91  92
HETATM   92  C   UNK N   1       8.097   2.686   1.370  0.00  0.00     0.199 C 
BRANCH  92  93
HETATM   93  O   UNK N   1       8.144   1.405   1.922  0.00  0.00    -0.398 OA
HETATM   94  H   UNK N   1       7.390   0.931   2.306  0.00  0.00     0.209 HD
ENDBRANCH  92  93
ENDBRANCH  91  92
BRANCH  91  95
HETATM   95  N   UNK N   1       9.903   1.997  -0.004  0.00  0.00    -0.344 N 
HETATM   96  C   UNK N   1      10.982   2.596   0.529  0.00  0.00     0.243 C 
HETATM   97  O   UNK N   1      11.969   1.929   0.788  0.00  0.00    -0.271 OA
HETATM   98  H   UNK N   1       9.978   1.083  -0.360  0.00  0.00     0.163 HD
BRANCH  96  99
HETATM   99  C   UNK N   1      10.939   4.069   0.825  0.00  0.00     0.200 C 
BRANCH  99 100
HETATM  100  C   UNK N   1      11.141   4.610   2.232  0.00  0.00     0.199 C 
BRANCH 100 101
HETATM  101  O   UNK N   1      10.250   4.007   3.117  0.00  0.00    -0.398 OA
HETATM  102  H   UNK N   1       9.577   4.334   3.734  0.00  0.00     0.209 HD
ENDBRANCH 100 101
ENDBRANCH  99 100
BRANCH  99 103
HETATM  103  N   UNK N   1      11.258   4.968  -0.269  0.00  0.00    -0.344 N 
HETATM  104  C   UNK N   1      12.427   5.028  -0.963  0.00  0.00     0.241 C 
HETATM  105  O   UNK N   1      12.569   5.893  -1.809  0.00  0.00    -0.271 OA
HETATM  106  H   UNK N   1      10.554   5.601  -0.538  0.00  0.00     0.163 HD
BRANCH 104 107
HETATM  107  C   UNK N   1      13.578   4.110  -0.687  0.00  0.00     0.176 C 
BRANCH 107 108
HETATM  108  C   UNK N   1      13.401   2.826  -1.477  0.00  0.00     0.036 C 
BRANCH 108 109
HETATM  109  C   UNK N   1      14.641   1.983  -1.339  0.00  0.00     0.023 C 
BRANCH 109 110
HETATM  110  C   UNK N   1      14.827   1.024  -2.501  0.00  0.00     0.138 C 
BRANCH 110 111
HETATM  111  N   UNK N   1      13.733   0.095  -2.632  0.00  0.00    -0.227 N 
HETATM  112  C   UNK N   1      13.290  -0.735  -1.574  0.00  0.00     0.665 C 
HETATM  113  N   UNK N   1      13.727  -0.520  -0.246  0.00  0.00    -0.235 N 
HETATM  114  N   UNK N   1      12.451  -1.664  -1.822  0.00  0.00    -0.235 N 
HETATM  115  H   UNK N   1      14.009  -0.708   0.678  0.00  0.00     0.174 HD
HETATM  116  H   UNK N   1      13.792   0.462  -0.246  0.00  0.00     0.174 HD
HETATM  117  H   UNK N   1      11.506  -1.461  -2.013  0.00  0.00     0.174 HD
ATOM    118  HN  UNK N   1      12.764  -2.634  -1.822  1.00  0.00     0.174 HD
HETATM  119  H   UNK N   1      13.270   0.035  -3.499  0.00  0.00     0.177 HD
ENDBRANCH 110 111
ENDBRANCH 109 110
ENDBRANCH 108 109
ENDBRANCH 107 108
BRANCH 107 120
HETATM  120  N   UNK N   1      13.745   3.911   0.746  0.00  0.00    -0.346 N 
HETATM  121  C   UNK N   1      14.035   4.950   1.573  0.00  0.00     0.241 C 
HETATM  122  O   UNK N   1      14.067   4.779   2.782  0.00  0.00    -0.271 OA
HETATM  123  H   UNK N   1      13.646   3.007   1.123  0.00  0.00     0.163 HD
BRANCH 121 124
HETATM  124  C   UNK N   1      14.423   6.265   0.967  0.00  0.00     0.176 C 
BRANCH 124 125
HETATM  125  C   UNK N   1      14.458   7.471   1.885  0.00  0.00     0.036 C 
BRANCH 125 126
HETATM  126  C   UNK N   1      13.953   8.672   1.104  0.00  0.00     0.023 C 
BRANCH 126 127
HETATM  127  C   UNK N   1      14.994   9.159   0.116  0.00  0.00     0.138 C 
BRANCH 127 128
HETATM  128  N   UNK N   1      14.501  10.325  -0.570  0.00  0.00    -0.227 N 
HETATM  129  C   UNK N   1      15.067  11.607  -0.351  0.00  0.00     0.665 C 
HETATM  130  N   UNK N   1      14.561  12.724  -1.048  0.00  0.00    -0.235 N 
HETATM  131  N   UNK N   1      16.008  11.767   0.506  0.00  0.00    -0.235 N 
HETATM  132  H   UNK N   1      15.060  13.420  -1.535  0.00  0.00     0.174 HD
HETATM  133  H   UNK N   1      13.582  12.821  -1.048  0.00  0.00     0.174 HD
HETATM  134  H   UNK N   1      16.476  11.203   1.164  0.00  0.00     0.174 HD
ATOM    135  HN  UNK N   1      16.363  12.724   0.506  1.00  0.00     0.174 HD
HETATM  136  H   UNK N   1      13.755  10.230  -1.205  0.00  0.00     0.177 HD
ENDBRANCH 127 128
ENDBRANCH 126 127
ENDBRANCH 125 126
ENDBRANCH 124 125
BRANCH 124 137
HETATM  137  N   UNK N   1      15.669   5.995   0.302  0.00  0.00    -0.346 N 
HETATM  138  C   UNK N   1      16.782   5.637   0.991  0.00  0.00     0.241 C 
HETATM  139  O   UNK N   1      16.908   5.921   2.174  0.00  0.00    -0.271 OA
HETATM  140  H   UNK N   1      15.716   6.071  -0.678  0.00  0.00     0.163 HD
BRANCH 138 141
HETATM  141  C   UNK N   1      17.682   4.617   0.396  0.00  0.00     0.177 C 
BRANCH 141 142
HETATM  142  C   UNK N   1      16.841   3.344   0.343  0.00  0.00     0.038 C 
BRANCH 142 143
HETATM  143  C   UNK N   1      17.625   2.064   0.171  0.00  0.00    -0.020 C 
HETATM  144  C   UNK N   1      17.939   1.842  -1.295  0.00  0.00     0.009 C 
HETATM  145  C   UNK N   1      16.788   0.908   0.684  0.00  0.00     0.009 C 
ENDBRANCH 142 143
ENDBRANCH 141 142
BRANCH 141 146
HETATM  146  N   UNK N   1      18.246   4.915  -0.913  0.00  0.00    -0.346 N 
HETATM  147  C   UNK N   1      18.304   6.075  -1.631  0.00  0.00     0.243 C 
HETATM  148  O   UNK N   1      18.849   6.038  -2.723  0.00  0.00    -0.271 OA
HETATM  149  H   UNK N   1      18.659   4.142  -1.361  0.00  0.00     0.163 HD
BRANCH 147 150
HETATM  150  C   UNK N   1      17.735   7.409  -1.151  0.00  0.00     0.200 C 
BRANCH 150 151
HETATM  151  C   UNK N   1      17.849   8.495  -2.220  0.00  0.00     0.199 C 
BRANCH 151 152
HETATM  152  O   UNK N   1      17.334   9.706  -1.759  0.00  0.00    -0.398 OA
HETATM  153  H   UNK N   1      17.885  10.438  -1.439  0.00  0.00     0.209 HD
ENDBRANCH 151 152
ENDBRANCH 150 151
BRANCH 150 154
HETATM  154  N   UNK N   1      18.233   7.926   0.118  0.00  0.00    -0.344 N 
HETATM  155  C   UNK N   1      19.371   7.595   0.780  0.00  0.00     0.241 C 
HETATM  156  O   UNK N   1      19.588   8.109   1.867  0.00  0.00    -0.271 OA
HETATM  157  H   UNK N   1      17.670   8.606   0.553  0.00  0.00     0.163 HD
BRANCH 155 158
HETATM  158  C   UNK N   1      20.381   6.649   0.208  0.00  0.00     0.176 C 
BRANCH 158 159
HETATM  159  C   UNK N   1      20.526   5.417   1.097  0.00  0.00     0.036 C 
BRANCH 159 160
HETATM  160  C   UNK N   1      21.268   4.332   0.332  0.00  0.00     0.023 C 
BRANCH 160 161
HETATM  161  C   UNK N   1      21.521   3.116   1.204  0.00  0.00     0.138 C 
BRANCH 161 162
HETATM  162  N   UNK N   1      20.535   2.096   0.948  0.00  0.00    -0.227 N 
HETATM  163  C   UNK N   1      20.881   0.879   0.303  0.00  0.00     0.665 C 
HETATM  164  N   UNK N   1      22.181   0.686  -0.217  0.00  0.00    -0.235 N 
HETATM  165  N   UNK N   1      20.003  -0.044   0.169  0.00  0.00    -0.235 N 
HETATM  166  H   UNK N   1      22.517  -0.165  -0.579  0.00  0.00     0.174 HD
HETATM  167  H   UNK N   1      22.793   1.457  -0.217  0.00  0.00     0.174 HD
HETATM  168  H   UNK N   1      19.051   0.185   0.065  0.00  0.00     0.174 HD
ATOM    169  HN  UNK N   1      20.292  -1.022   0.169  1.00  0.00     0.174 HD
HETATM  170  H   UNK N   1      19.603   2.246   1.226  0.00  0.00     0.177 HD
ENDBRANCH 161 162
ENDBRANCH 160 161
ENDBRANCH 159 160
ENDBRANCH 158 159
BRANCH 158 171
HETATM  171  N   UNK N   1      21.633   7.331   0.175  0.00  0.00    -0.346 N 
HETATM  172  C   UNK N   1      22.461   7.420  -0.889  0.00  0.00     0.241 C 
HETATM  173  O   UNK N   1      22.179   6.900  -1.960  0.00  0.00    -0.271 OA
HETATM  174  H   UNK N   1      21.921   7.778   1.004  0.00  0.00     0.163 HD
BRANCH 172 175
HETATM  175  C   UNK N   1      23.796   8.065  -0.661  0.00  0.00     0.179 C 
HETATM  176  C   UNK N   1      23.586   9.542  -0.377  0.00  0.00     0.037 C 
HETATM  177  C   UNK N   1      23.418   9.660   1.138  0.00  0.00     0.022 C 
HETATM  178  C   UNK N   1      23.993   8.380   1.733  0.00  0.00     0.127 C 
HETATM  179  N   UNK N   1      24.251   7.533   0.606  0.00  0.00    -0.337 N 
HETATM  180  C   UNK N   1      24.830   6.303   0.718  0.00  0.00     0.243 C 
HETATM  181  O   UNK N   1      25.040   5.823   1.829  0.00  0.00    -0.271 OA
BRANCH 180 182
HETATM  182  C   UNK N   1      25.398   5.643  -0.516  0.00  0.00     0.172 C 
HETATM  183  C   UNK N   1      26.035   4.282  -0.258  0.00  0.00     0.042 C 
BRANCH 182 184
HETATM  184  N   UNK N   1      26.366   6.613  -1.000  0.00  0.00    -0.346 N 
HETATM  185  C   UNK N   1      27.408   7.037  -0.227  0.00  0.00     0.243 C 
HETATM  186  O   UNK N   1      27.784   6.370   0.727  0.00  0.00    -0.271 OA
HETATM  187  H   UNK N   1      26.268   6.973  -1.911  0.00  0.00     0.163 HD
BRANCH 185 188
HETATM  188  C   UNK N   1      27.911   8.450  -0.365  0.00  0.00     0.196 C 
BRANCH 188 189
HETATM  189  N   UNK N   1      27.137   9.199  -1.345  0.00  0.00    -0.417 N 
HETATM  190  H   UNK N   1      27.320   9.930  -2.032  0.00  0.00     0.150 HD
HETATM  191  H   UNK N   1      26.156   8.918  -1.345  0.00  0.00     0.150 HD
ENDBRANCH 188 189
BRANCH 188 192
HETATM  192  C   UNK N   1      29.405   8.600  -0.614  0.00  0.00     0.145 C 
HETATM  193  C   UNK N   1      29.780  10.061  -0.436  0.00  0.00     0.042 C 
BRANCH 192 194
HETATM  194  O   UNK N   1      30.131   7.847   0.309  0.00  0.00    -0.393 OA
HETATM  195  H   UNK N   1      29.930   7.148   0.951  0.00  0.00     0.210 HD
ENDBRANCH 192 194
ENDBRANCH 188 192
ENDBRANCH 185 188
ENDBRANCH 182 184
ENDBRANCH 180 182
ENDBRANCH 172 175
ENDBRANCH 158 171
ENDBRANCH 155 158
ENDBRANCH 150 154
ENDBRANCH 147 150
ENDBRANCH 141 146
ENDBRANCH 138 141
ENDBRANCH 124 137
ENDBRANCH 121 124
ENDBRANCH 107 120
ENDBRANCH 104 107
ENDBRANCH  99 103
ENDBRANCH  96  99
ENDBRANCH  91  95
ENDBRANCH  88  91
ENDBRANCH  17  87
BRANCH  13 196
HETATM  196  C   UNK N   1       8.005   5.592   0.241  0.00  0.00     0.073 C 
BRANCH 196 197
HETATM  197  C   UNK N   1       8.789   6.622  -0.453  0.00  0.00    -0.056 A 
HETATM  198  C   UNK N   1       9.731   7.354   0.264  0.00  0.00     0.007 A 
HETATM  199  C   UNK N   1      10.660   8.133  -0.418  0.00  0.00     0.001 A 
HETATM  200  C   UNK N   1      10.649   8.182  -1.817  0.00  0.00     0.000 A 
HETATM  201  C   UNK N   1       9.707   7.444  -2.536  0.00  0.00     0.001 A 
HETATM  202  C   UNK N   1       8.793   6.642  -1.853  0.00  0.00     0.007 A 
ENDBRANCH 196 197
ENDBRANCH  13 196
BRANCH  22 203
HETATM  203  C   UNK N   1       6.049  -0.885   0.788  0.00  0.00     0.242 C 
HETATM  204  O   UNK N   1       6.222  -0.730   1.987  0.00  0.00    -0.271 OA
HETATM  205  N   UNK N   1       7.132  -0.891  -0.038  0.00  0.00    -0.346 N 
HETATM  206  H   UNK N   1       8.017  -0.708   0.354  0.00  0.00     0.163 HD
BRANCH 205 207
HETATM  207  C   UNK N   1       7.055  -1.151  -1.464  0.00  0.00     0.185 C 
BRANCH 207 208
HETATM  208  C   UNK N   1       8.308  -0.871  -2.301  0.00  0.00     0.137 C 
BRANCH 208 209
HETATM  209  C   UNK N   1       9.578  -0.463  -1.621  0.00  0.00     0.217 C 
HETATM  210  N   UNK N   1      10.497   0.219  -2.330  0.00  0.00    -0.370 N 
HETATM  211  H   UNK N   1      11.265  -0.114  -2.849  0.00  0.00     0.159 HD
HETATM  212  H   UNK N   1      10.385   1.197  -2.330  0.00  0.00     0.159 HD
HETATM  213  O   UNK N   1       9.782  -0.712  -0.444  0.00  0.00    -0.274 OA
ENDBRANCH 208 209
ENDBRANCH 207 208
BRANCH 207 214
HETATM  214  C   UNK N   1       6.532  -2.509  -1.797  0.00  0.00     0.241 C 
HETATM  215  O   UNK N   1       5.747  -2.615  -2.724  0.00  0.00    -0.271 OA
HETATM  216  N   UNK N   1       6.890  -3.621  -1.107  0.00  0.00    -0.344 N 
HETATM  217  H   UNK N   1       6.497  -4.473  -1.404  0.00  0.00     0.163 HD
BRANCH 216 218
HETATM  218  C   UNK N   1       7.796  -3.677   0.025  0.00  0.00     0.200 C 
BRANCH 218 219
HETATM  219  C   UNK N   1       7.612  -5.016   0.700  0.00  0.00     0.199 C 
BRANCH 219 220
HETATM  220  O   UNK N   1       7.619  -6.033  -0.259  0.00  0.00    -0.398 OA
HETATM  221  H   UNK N   1       7.011  -6.390  -0.925  0.00  0.00     0.209 HD
ENDBRANCH 219 220
ENDBRANCH 218 219
BRANCH 218 222
HETATM  222  C   UNK N   1       9.223  -3.583  -0.411  0.00  0.00     0.243 C 
HETATM  223  O   UNK N   1       9.482  -3.449  -1.598  0.00  0.00    -0.271 OA
HETATM  224  N   UNK N   1      10.227  -3.681   0.503  0.00  0.00    -0.346 N 
HETATM  225  H   UNK N   1      10.014  -3.777   1.459  0.00  0.00     0.163 HD
BRANCH 224 226
HETATM  226  C   UNK N   1      11.606  -3.642   0.073  0.00  0.00     0.180 C 
BRANCH 226 227
HETATM  227  C   UNK N   1      12.607  -3.476   1.228  0.00  0.00     0.073 C 
BRANCH 227 228
HETATM  228  C   UNK N   1      14.053  -3.318   0.790  0.00  0.00    -0.056 A 
HETATM  229  C   UNK N   1      15.026  -2.988   1.738  0.00  0.00     0.007 A 
HETATM  230  C   UNK N   1      16.366  -2.847   1.353  0.00  0.00     0.001 A 
HETATM  231  C   UNK N   1      16.743  -3.042   0.020  0.00  0.00     0.000 A 
HETATM  232  C   UNK N   1      15.782  -3.375  -0.931  0.00  0.00     0.001 A 
HETATM  233  C   UNK N   1      14.451  -3.509  -0.546  0.00  0.00     0.007 A 
ENDBRANCH 227 228
ENDBRANCH 226 227
BRANCH 226 234
HETATM  234  C   UNK N   1      11.934  -4.776  -0.871  0.00  0.00     0.241 C 
HETATM  235  O   UNK N   1      12.118  -4.511  -2.047  0.00  0.00    -0.271 OA
HETATM  236  N   UNK N   1      12.076  -6.056  -0.465  0.00  0.00    -0.346 N 
HETATM  237  H   UNK N   1      12.413  -6.707  -1.122  0.00  0.00     0.163 HD
BRANCH 236 238
HETATM  238  C   UNK N   1      11.772  -6.544   0.858  0.00  0.00     0.176 C 
BRANCH 238 239
HETATM  239  C   UNK N   1      13.031  -7.119   1.538  0.00  0.00     0.036 C 
BRANCH 239 240
HETATM  240  C   UNK N   1      14.318  -6.317   1.415  0.00  0.00     0.023 C 
BRANCH 240 241
HETATM  241  C   UNK N   1      15.050  -6.586   0.102  0.00  0.00     0.138 C 
BRANCH 241 242
HETATM  242  N   UNK N   1      15.193  -8.001  -0.137  0.00  0.00    -0.227 N 
HETATM  243  C   UNK N   1      16.455  -8.642  -0.104  0.00  0.00     0.665 C 
HETATM  244  N   UNK N   1      17.615  -7.930   0.281  0.00  0.00    -0.235 N 
HETATM  245  N   UNK N   1      16.540  -9.888  -0.386  0.00  0.00    -0.235 N 
HETATM  246  H   UNK N   1      18.447  -8.381   0.550  0.00  0.00     0.174 HD
HETATM  247  H   UNK N   1      17.588  -6.946   0.281  0.00  0.00     0.174 HD
HETATM  248  H   UNK N   1      15.743 -10.424  -0.603  0.00  0.00     0.174 HD
ATOM    249  HN  UNK N   1      17.456 -10.337  -0.386  1.00  0.00     0.174 HD
HETATM  250  H   UNK N   1      14.390  -8.537  -0.330  0.00  0.00     0.177 HD
ENDBRANCH 241 242
ENDBRANCH 240 241
ENDBRANCH 239 240
ENDBRANCH 238 239
BRANCH 238 251
HETATM  251  C   UNK N   1      10.811  -7.668   0.611  0.00  0.00     0.241 C 
HETATM  252  O   UNK N   1       9.779  -7.449  -0.001  0.00  0.00    -0.271 OA
HETATM  253  N   UNK N   1      11.177  -8.938   0.892  0.00  0.00    -0.345 N 
HETATM  254  H   UNK N   1      11.876  -9.097   1.567  0.00  0.00     0.163 HD
BRANCH 253 255
HETATM  255  C   UNK N   1      10.573 -10.061   0.233  0.00  0.00     0.186 C 
BRANCH 255 256
HETATM  256  C   UNK N   1       9.561 -10.738   1.140  0.00  0.00     0.074 C 
BRANCH 256 257
HETATM  257  C   UNK N   1       8.225 -10.823   0.465  0.00  0.00    -0.056 A 
HETATM  258  C   UNK N   1       7.453 -11.981   0.600  0.00  0.00     0.010 A 
HETATM  259  C   UNK N   1       6.185 -12.052   0.013  0.00  0.00     0.037 A 
HETATM  260  C   UNK N   1       5.688 -10.969  -0.717  0.00  0.00     0.065 A 
HETATM  261  C   UNK N   1       6.457  -9.814  -0.865  0.00  0.00     0.037 A 
HETATM  262  C   UNK N   1       7.718  -9.737  -0.268  0.00  0.00     0.010 A 
BRANCH 260 263
HETATM  263  O   UNK N   1       4.469 -11.039  -1.274  0.00  0.00    -0.361 OA
HETATM  264  H   UNK N   1       4.001 -10.327  -1.663  0.00  0.00     0.217 HD
ENDBRANCH 260 263
ENDBRANCH 256 257
ENDBRANCH 255 256
BRANCH 255 265
HETATM  265  C   UNK N   1      11.663 -10.971  -0.257  0.00  0.00     0.163 C 
HETATM  266  O   UNK N   1      11.387 -11.953  -0.923  0.00  0.00    -0.648 OA
BRANCH 265 267
HETATM  267  O   UNK N   1      12.958 -10.681  -0.004  0.00  0.00    -0.775 OA
HETATM  268  H   UNK N   1      13.581 -11.358   0.172  0.00  0.00     0.167 HD
ENDBRANCH 265 267
ENDBRANCH 255 265
ENDBRANCH 253 255
ENDBRANCH 238 251
ENDBRANCH 236 238
ENDBRANCH 226 234
ENDBRANCH 224 226
ENDBRANCH 218 222
ENDBRANCH 216 218
ENDBRANCH 207 214
ENDBRANCH 205 207
ENDBRANCH  22 203
BRANCH  30 269
HETATM  269  C   UNK N   1       5.147  -6.476   1.392  0.00  0.00     0.038 C 
BRANCH 269 270
HETATM  270  C   UNK N   1       5.749  -7.858   1.516  0.00  0.00    -0.020 C 
HETATM  271  C   UNK N   1       6.958  -7.770   2.424  0.00  0.00     0.009 C 
HETATM  272  C   UNK N   1       4.746  -8.821   2.108  0.00  0.00     0.009 C 
ENDBRANCH 269 270
ENDBRANCH  30 269
BRANCH   1 273
HETATM  273  C   UNK N   1       7.082  12.135  -1.693  0.00  0.00     0.036 C 
BRANCH 273 274
HETATM  274  C   UNK N   1       8.062  11.023  -1.983  0.00  0.00     0.023 C 
BRANCH 274 275
HETATM  275  C   UNK N   1       9.465  11.559  -1.851  0.00  0.00     0.138 C 
BRANCH 275 276
HETATM  276  N   UNK N   1      10.103  10.876  -0.765  0.00  0.00    -0.227 N 
HETATM  277  C   UNK N   1      11.194  11.420  -0.050  0.00  0.00     0.665 C 
HETATM  278  N   UNK N   1      11.614  12.603  -0.305  0.00  0.00    -0.235 N 
HETATM  279  N   UNK N   1      11.722  10.712   1.049  0.00  0.00    -0.235 N 
HETATM  280  H   UNK N   1      12.563  12.778  -0.501  0.00  0.00     0.174 HD
ATOM    281  HN  UNK N   1      10.952  13.379  -0.305  1.00  0.00     0.174 HD
HETATM  282  H   UNK N   1      11.478  10.146   1.817  0.00  0.00     0.174 HD
HETATM  283  H   UNK N   1      12.700  10.827   1.049  0.00  0.00     0.174 HD
HETATM  284  H   UNK N   1       9.767   9.988  -0.506  0.00  0.00     0.177 HD
ENDBRANCH 275 276
ENDBRANCH 274 275
ENDBRANCH 273 274
ENDBRANCH   1 273
BRANCH  67 285
HETATM  285  C   UNK N   1       2.242  13.356   0.232  0.00  0.00     0.045 C 
BRANCH 285 286
HETATM  286  C   UNK N   1       1.112  13.238   1.245  0.00  0.00     0.076 C 
BRANCH 286 287
HETATM  287  S   UNK N   1      -0.477  12.922   0.411  0.00  0.00    -0.173 SA
HETATM  288  C   UNK N   1      -0.682  14.659  -0.072  0.00  0.00     0.089 C 
ENDBRANCH 286 287
ENDBRANCH 285 286
ENDBRANCH  67 285
BRANCH  38 289
HETATM  289  C   UNK N   1      -2.703  -8.695  -0.401  0.00  0.00     0.199 C 
BRANCH 289 290
HETATM  290  O   UNK N   1      -3.840  -8.387   0.348  0.00  0.00    -0.398 OA
HETATM  291  H   UNK N   1      -4.049  -7.596   0.869  0.00  0.00     0.209 HD
ENDBRANCH 289 290
ENDBRANCH  38 289
BRANCH  63 292
HETATM  292  C   UNK N   1      -0.275   9.060   1.506  0.00  0.00     0.144 C 
BRANCH 292 293
HETATM  293  C   UNK N   1      -1.124   8.753   0.286  0.00  0.00     0.141 C 
HETATM  294  O   UNK N   1      -2.332   8.665   0.421  0.00  0.00    -0.650 OA
BRANCH 293 295
HETATM  295  O   UNK N   1      -0.595   8.559  -0.933  0.00  0.00    -0.776 OA
HETATM  296  H   UNK N   1      -0.528   8.172  -1.784  0.00  0.00     0.167 HD
ENDBRANCH 293 295
ENDBRANCH 292 293
ENDBRANCH  63 292
BRANCH  42 297
HETATM  297  C   UNK N   1      -1.762  -3.449  -0.093  0.00  0.00     0.044 C 
BRANCH 297 298
HETATM  298  C   UNK N   1      -2.487  -2.327  -0.815  0.00  0.00     0.105 C 
BRANCH 298 299
HETATM  299  C   UNK N   1      -3.368  -1.601   0.151  0.00  0.00     0.215 C 
HETATM  300  N   UNK N   1      -4.400  -2.242   0.733  0.00  0.00    -0.370 N 
HETATM  301  H   UNK N   1      -5.183  -1.823   1.158  0.00  0.00     0.159 HD
HETATM  302  H   UNK N   1      -4.368  -3.226   0.733  0.00  0.00     0.159 HD
HETATM  303  O   UNK N   1      -3.167  -0.425   0.403  0.00  0.00    -0.274 OA
ENDBRANCH 298 299
ENDBRANCH 297 298
ENDBRANCH  42 297
BRANCH  59 304
HETATM  304  C   UNK N   1       3.320   5.881  -1.162  0.00  0.00     0.036 C 
BRANCH 304 305
HETATM  305  C   UNK N   1       4.021   6.200  -2.472  0.00  0.00     0.023 C 
BRANCH 305 306
HETATM  306  C   UNK N   1       5.396   6.803  -2.239  0.00  0.00     0.138 C 
BRANCH 306 307
HETATM  307  N   UNK N   1       5.399   8.162  -2.675  0.00  0.00    -0.227 N 
HETATM  308  C   UNK N   1       4.895   9.184  -1.849  0.00  0.00     0.665 C 
HETATM  309  N   UNK N   1       4.558   8.919  -0.501  0.00  0.00    -0.235 N 
HETATM  310  N   UNK N   1       4.651  10.329  -2.357  0.00  0.00    -0.235 N 
HETATM  311  H   UNK N   1       4.281   9.030   0.437  0.00  0.00     0.174 HD
HETATM  312  H   UNK N   1       4.698   7.944  -0.501  0.00  0.00     0.174 HD
HETATM  313  H   UNK N   1       5.322  10.934  -2.748  0.00  0.00     0.174 HD
ATOM    314  HN  UNK N   1       3.681  10.644  -2.357  1.00  0.00     0.174 HD
HETATM  315  H   UNK N   1       5.757   8.387  -3.564  0.00  0.00     0.177 HD
ENDBRANCH 306 307
ENDBRANCH 305 306
ENDBRANCH 304 305
ENDBRANCH  59 304
BRANCH  55 316
HETATM  316  C   UNK N   1      -1.666   3.626  -0.746  0.00  0.00     0.013 C 
HETATM  317  C   UNK N   1      -2.514   2.372  -0.842  0.00  0.00     0.012 C 
BRANCH 316 318
HETATM  318  C   UNK N   1      -2.095   4.399   0.501  0.00  0.00     0.002 C 
HETATM  319  C   UNK N   1      -3.302   5.266   0.217  0.00  0.00     0.005 C 
ENDBRANCH 316 318
ENDBRANCH  55 316
TORSDOF 92
