MODEL 1
REMARK VINA RESULT:      -7.7      0.000      0.000
REMARK  8 active torsions:
REMARK  status: ('A' for Active; 'I' for Inactive)
REMARK    1  A    between atoms: C_2  and  C_4 
REMARK    2  A    between atoms: C_6  and  O_11 
REMARK    3  A    between atoms: C_9  and  O_10 
REMARK    4  A    between atoms: O_11  and  C_12 
REMARK    5  A    between atoms: C_15  and  N_19 
REMARK       I    between atoms: N_19  and  C_20 
REMARK    6  A    between atoms: C_20  and  C_22 
REMARK    7  A    between atoms: C_22  and  C_23 
REMARK    8  A    between atoms: C_23  and  O_25 
ROOT
HETATM    1  C   UNK N   1      27.182  18.783   5.028  0.00  0.00     0.111 A 
HETATM    2  C   UNK N   1      26.484  19.999   5.174  0.00  0.00     0.048 A 
HETATM    3  C   UNK N   1      25.167  20.121   4.715  0.00  0.00     0.051 A 
HETATM    4  C   UNK N   1      24.531  19.036   4.113  0.00  0.00     0.037 A 
HETATM    5  C   UNK N   1      25.245  17.851   3.905  0.00  0.00     0.051 A 
HETATM    6  C   UNK N   1      26.556  17.713   4.340  0.00  0.00     0.048 A 
HETATM    7 Br   UNK N   1      27.440  16.066   3.895  0.00  0.00    -0.048 Br
HETATM    8 Br   UNK N   1      27.302  21.494   6.041  0.00  0.00    -0.048 Br
ENDROOT
BRANCH   1   9
HETATM    9  O   UNK N   1      28.438  18.679   5.540  0.00  0.00    -0.308 OA
BRANCH   9  10
HETATM   10  C   UNK N   1      28.740  18.227   6.790  0.00  0.00     0.076 A 
HETATM   11  C   UNK N   1      29.981  17.627   7.018  0.00  0.00     0.047 A 
HETATM   12  C   UNK N   1      30.330  17.146   8.295  0.00  0.00    -0.019 A 
HETATM   13  C   UNK N   1      29.407  17.281   9.353  0.00  0.00     0.072 A 
HETATM   14  C   UNK N   1      28.177  17.901   9.134  0.00  0.00     0.040 A 
HETATM   15  C   UNK N   1      27.850  18.384   7.868  0.00  0.00     0.040 A 
BRANCH  12  16
HETATM   16  C   UNK N   1      31.681  16.512   8.543  0.00  0.00     0.013 C 
HETATM   17  C   UNK N   1      31.953  15.402   7.544  0.00  0.00     0.015 C 
HETATM   18  C   UNK N   1      32.839  17.497   8.514  0.00  0.00     0.015 C 
ENDBRANCH  12  16
BRANCH  13  19
HETATM   19  O   UNK N   1      29.702  16.827  10.584  0.00  0.00    -0.360 OA
HETATM   20  H   UNK N   1      29.050  16.521  11.183  0.00  0.00     0.217 HD
ENDBRANCH  13  19
ENDBRANCH   9  10
ENDBRANCH   1   9
BRANCH   4  21
HETATM   21  N   UNK N   1      23.167  19.131   3.720  0.00  0.00    -0.327 N 
HETATM   22  C   UNK N   1      22.713  20.091   2.871  0.00  0.00     0.232 C 
HETATM   23  O   UNK N   1      23.507  20.809   2.274  0.00  0.00    -0.273 OA
HETATM   24  H   UNK N   1      22.526  18.475   4.078  0.00  0.00     0.169 HD
BRANCH  22  25
HETATM   25  C   UNK N   1      21.237  20.234   2.624  0.00  0.00     0.212 C 
BRANCH  25  26
HETATM   26  C   UNK N   1      20.847  20.653   1.225  0.00  0.00     0.148 C 
HETATM   27  O   UNK N   1      20.700  21.838   0.979  0.00  0.00    -0.650 OA
BRANCH  26  28
HETATM   28  O   UNK N   1      20.684  19.751   0.235  0.00  0.00    -0.776 OA
HETATM   29  H   UNK N   1      20.156  19.948  -0.513  0.00  0.00     0.167 HD
ENDBRANCH  26  28
ENDBRANCH  25  26
ENDBRANCH  22  25
ENDBRANCH   4  21
TORSDOF 8
ENDMDL
MODEL 2
REMARK VINA RESULT:      -7.4      0.902      2.082
REMARK  8 active torsions:
REMARK  status: ('A' for Active; 'I' for Inactive)
REMARK    1  A    between atoms: C_2  and  C_4 
REMARK    2  A    between atoms: C_6  and  O_11 
REMARK    3  A    between atoms: C_9  and  O_10 
REMARK    4  A    between atoms: O_11  and  C_12 
REMARK    5  A    between atoms: C_15  and  N_19 
REMARK       I    between atoms: N_19  and  C_20 
REMARK    6  A    between atoms: C_20  and  C_22 
REMARK    7  A    between atoms: C_22  and  C_23 
REMARK    8  A    between atoms: C_23  and  O_25 
ROOT
HETATM    1  C   UNK N   1      27.220  18.700   4.997  0.00  0.00     0.111 A 
HETATM    2  C   UNK N   1      26.506  17.664   4.363  0.00  0.00     0.048 A 
HETATM    3  C   UNK N   1      25.239  17.905   3.817  0.00  0.00     0.051 A 
HETATM    4  C   UNK N   1      24.675  19.178   3.891  0.00  0.00     0.037 A 
HETATM    5  C   UNK N   1      25.353  20.190   4.581  0.00  0.00     0.051 A 
HETATM    6  C   UNK N   1      26.603  19.968   5.141  0.00  0.00     0.048 A 
HETATM    7 Br   UNK N   1      27.365  21.420   6.142  0.00  0.00    -0.048 Br
HETATM    8 Br   UNK N   1      27.266  15.917   4.193  0.00  0.00    -0.048 Br
ENDROOT
BRANCH   1   9
HETATM    9  O   UNK N   1      28.474  18.447   5.461  0.00  0.00    -0.308 OA
BRANCH   9  10
HETATM   10  C   UNK N   1      28.777  18.070   6.735  0.00  0.00     0.076 A 
HETATM   11  C   UNK N   1      30.063  17.603   7.022  0.00  0.00     0.047 A 
HETATM   12  C   UNK N   1      30.414  17.203   8.325  0.00  0.00    -0.019 A 
HETATM   13  C   UNK N   1      29.448  17.280   9.349  0.00  0.00     0.072 A 
HETATM   14  C   UNK N   1      28.171  17.768   9.072  0.00  0.00     0.040 A 
HETATM   15  C   UNK N   1      27.841  18.173   7.780  0.00  0.00     0.040 A 
BRANCH  12  16
HETATM   16  C   UNK N   1      31.812  16.714   8.636  0.00  0.00     0.013 C 
HETATM   17  C   UNK N   1      32.094  15.393   7.944  0.00  0.00     0.015 C 
HETATM   18  C   UNK N   1      32.907  17.705   8.273  0.00  0.00     0.015 C 
ENDBRANCH  12  16
BRANCH  13  19
HETATM   19  O   UNK N   1      29.746  16.899  10.605  0.00  0.00    -0.360 OA
HETATM   20  H   UNK N   1      29.610  16.026  10.916  0.00  0.00     0.217 HD
ENDBRANCH  13  19
ENDBRANCH   9  10
ENDBRANCH   1   9
BRANCH   4  21
HETATM   21  N   UNK N   1      23.426  19.447   3.266  0.00  0.00    -0.327 N 
HETATM   22  C   UNK N   1      22.239  19.042   3.793  0.00  0.00     0.232 C 
HETATM   23  O   UNK N   1      22.197  18.576   4.927  0.00  0.00    -0.273 OA
HETATM   24  H   UNK N   1      23.420  19.948   2.418  0.00  0.00     0.169 HD
BRANCH  22  25
HETATM   25  C   UNK N   1      20.972  19.218   3.004  0.00  0.00     0.212 C 
BRANCH  25  26
HETATM   26  C   UNK N   1      21.059  20.172   1.834  0.00  0.00     0.148 C 
HETATM   27  O   UNK N   1      21.471  21.304   2.020  0.00  0.00    -0.650 OA
BRANCH  26  28
HETATM   28  O   UNK N   1      20.718  19.793   0.585  0.00  0.00    -0.776 OA
HETATM   29  H   UNK N   1      21.263  19.212   0.093  0.00  0.00     0.167 HD
ENDBRANCH  26  28
ENDBRANCH  25  26
ENDBRANCH  22  25
ENDBRANCH   4  21
TORSDOF 8
ENDMDL
MODEL 3
REMARK VINA RESULT:      -7.2      5.776      6.659
REMARK  8 active torsions:
REMARK  status: ('A' for Active; 'I' for Inactive)
REMARK    1  A    between atoms: C_2  and  C_4 
REMARK    2  A    between atoms: C_6  and  O_11 
REMARK    3  A    between atoms: C_9  and  O_10 
REMARK    4  A    between atoms: O_11  and  C_12 
REMARK    5  A    between atoms: C_15  and  N_19 
REMARK       I    between atoms: N_19  and  C_20 
REMARK    6  A    between atoms: C_20  and  C_22 
REMARK    7  A    between atoms: C_22  and  C_23 
REMARK    8  A    between atoms: C_23  and  O_25 
ROOT
HETATM    1  C   UNK N   1      20.201  14.622   6.479  0.00  0.00     0.111 A 
HETATM    2  C   UNK N   1      19.992  15.980   6.793  0.00  0.00     0.048 A 
HETATM    3  C   UNK N   1      19.803  16.923   5.775  0.00  0.00     0.051 A 
HETATM    4  C   UNK N   1      19.814  16.523   4.438  0.00  0.00     0.037 A 
HETATM    5  C   UNK N   1      20.090  15.188   4.124  0.00  0.00     0.051 A 
HETATM    6  C   UNK N   1      20.295  14.240   5.117  0.00  0.00     0.048 A 
HETATM    7 Br   UNK N   1      20.762  12.471   4.533  0.00  0.00    -0.048 Br
HETATM    8 Br   UNK N   1      19.918  16.561   8.613  0.00  0.00    -0.048 Br
ENDROOT
BRANCH   1   9
HETATM    9  O   UNK N   1      20.320  13.723   7.494  0.00  0.00    -0.308 OA
BRANCH   9  10
HETATM   10  C   UNK N   1      21.447  13.516   8.230  0.00  0.00     0.076 A 
HETATM   11  C   UNK N   1      22.695  13.601   7.608  0.00  0.00     0.047 A 
HETATM   12  C   UNK N   1      23.883  13.392   8.335  0.00  0.00    -0.019 A 
HETATM   13  C   UNK N   1      23.801  13.095   9.711  0.00  0.00     0.072 A 
HETATM   14  C   UNK N   1      22.557  13.033  10.341  0.00  0.00     0.040 A 
HETATM   15  C   UNK N   1      21.390  13.255   9.612  0.00  0.00     0.040 A 
BRANCH  12  16
HETATM   16  C   UNK N   1      25.233  13.503   7.662  0.00  0.00     0.013 C 
HETATM   17  C   UNK N   1      25.284  12.661   6.400  0.00  0.00     0.015 C 
HETATM   18  C   UNK N   1      25.638  14.928   7.321  0.00  0.00     0.015 C 
ENDBRANCH  12  16
BRANCH  13  19
HETATM   19  O   UNK N   1      24.914  12.882  10.436  0.00  0.00    -0.360 OA
HETATM   20  H   UNK N   1      24.916  12.384  11.229  0.00  0.00     0.217 HD
ENDBRANCH  13  19
ENDBRANCH   9  10
ENDBRANCH   1   9
BRANCH   4  21
HETATM   21  N   UNK N   1      19.541  17.463   3.406  0.00  0.00    -0.327 N 
HETATM   22  C   UNK N   1      20.428  18.425   3.036  0.00  0.00     0.232 C 
HETATM   23  O   UNK N   1      21.575  18.403   3.468  0.00  0.00    -0.273 OA
HETATM   24  H   UNK N   1      18.674  17.414   2.940  0.00  0.00     0.169 HD
BRANCH  22  25
HETATM   25  C   UNK N   1      20.015  19.484   2.051  0.00  0.00     0.212 C 
BRANCH  25  26
HETATM   26  C   UNK N   1      21.061  20.530   1.741  0.00  0.00     0.148 C 
HETATM   27  O   UNK N   1      21.458  20.651   0.595  0.00  0.00    -0.650 OA
BRANCH  26  28
HETATM   28  O   UNK N   1      21.545  21.351   2.695  0.00  0.00    -0.776 OA
HETATM   29  H   UNK N   1      21.630  21.061   3.582  0.00  0.00     0.167 HD
ENDBRANCH  26  28
ENDBRANCH  25  26
ENDBRANCH  22  25
ENDBRANCH   4  21
TORSDOF 8
ENDMDL
MODEL 4
REMARK VINA RESULT:      -7.1      1.699      2.431
REMARK  8 active torsions:
REMARK  status: ('A' for Active; 'I' for Inactive)
REMARK    1  A    between atoms: C_2  and  C_4 
REMARK    2  A    between atoms: C_6  and  O_11 
REMARK    3  A    between atoms: C_9  and  O_10 
REMARK    4  A    between atoms: O_11  and  C_12 
REMARK    5  A    between atoms: C_15  and  N_19 
REMARK       I    between atoms: N_19  and  C_20 
REMARK    6  A    between atoms: C_20  and  C_22 
REMARK    7  A    between atoms: C_22  and  C_23 
REMARK    8  A    between atoms: C_23  and  O_25 
ROOT
HETATM    1  C   UNK N   1      26.601  18.204   5.521  0.00  0.00     0.111 A 
HETATM    2  C   UNK N   1      26.298  19.556   5.268  0.00  0.00     0.048 A 
HETATM    3  C   UNK N   1      25.206  19.900   4.460  0.00  0.00     0.051 A 
HETATM    4  C   UNK N   1      24.405  18.903   3.904  0.00  0.00     0.037 A 
HETATM    5  C   UNK N   1      24.746  17.560   4.099  0.00  0.00     0.051 A 
HETATM    6  C   UNK N   1      25.833  17.198   4.884  0.00  0.00     0.048 A 
HETATM    7 Br   UNK N   1      26.237  15.323   4.977  0.00  0.00    -0.048 Br
HETATM    8 Br   UNK N   1      27.339  20.954   6.053  0.00  0.00    -0.048 Br
ENDROOT
BRANCH   1   9
HETATM    9  O   UNK N   1      27.631  17.906   6.360  0.00  0.00    -0.308 OA
BRANCH   9  10
HETATM   10  C   UNK N   1      28.915  17.667   5.971  0.00  0.00     0.076 A 
HETATM   11  C   UNK N   1      29.883  17.392   6.941  0.00  0.00     0.047 A 
HETATM   12  C   UNK N   1      31.220  17.140   6.579  0.00  0.00    -0.019 A 
HETATM   13  C   UNK N   1      31.577  17.166   5.215  0.00  0.00     0.072 A 
HETATM   14  C   UNK N   1      30.609  17.416   4.242  0.00  0.00     0.040 A 
HETATM   15  C   UNK N   1      29.286  17.650   4.614  0.00  0.00     0.040 A 
BRANCH  12  16
HETATM   16  C   UNK N   1      32.262  16.826   7.630  0.00  0.00     0.013 C 
HETATM   17  C   UNK N   1      32.920  18.095   8.140  0.00  0.00     0.015 C 
HETATM   18  C   UNK N   1      31.725  16.038   8.815  0.00  0.00     0.015 C 
ENDBRANCH  12  16
BRANCH  13  19
HETATM   19  O   UNK N   1      32.846  16.938   4.832  0.00  0.00    -0.360 OA
HETATM   20  H   UNK N   1      33.145  17.078   3.956  0.00  0.00     0.217 HD
ENDBRANCH  13  19
ENDBRANCH   9  10
ENDBRANCH   1   9
BRANCH   4  21
HETATM   21  N   UNK N   1      23.247  19.248   3.152  0.00  0.00    -0.327 N 
HETATM   22  C   UNK N   1      21.985  19.052   3.618  0.00  0.00     0.232 C 
HETATM   23  O   UNK N   1      21.804  18.727   4.787  0.00  0.00    -0.273 OA
HETATM   24  H   UNK N   1      23.365  19.646   2.259  0.00  0.00     0.169 HD
BRANCH  22  25
HETATM   25  C   UNK N   1      20.809  19.289   2.712  0.00  0.00     0.212 C 
BRANCH  25  26
HETATM   26  C   UNK N   1      21.038  20.276   1.590  0.00  0.00     0.148 C 
HETATM   27  O   UNK N   1      21.545  21.355   1.842  0.00  0.00    -0.650 OA
BRANCH  26  28
HETATM   28  O   UNK N   1      20.722  19.981   0.312  0.00  0.00    -0.776 OA
HETATM   29  H   UNK N   1      20.181  20.554  -0.194  0.00  0.00     0.167 HD
ENDBRANCH  26  28
ENDBRANCH  25  26
ENDBRANCH  22  25
ENDBRANCH   4  21
TORSDOF 8
ENDMDL
MODEL 5
REMARK VINA RESULT:      -6.9      2.180      2.818
REMARK  8 active torsions:
REMARK  status: ('A' for Active; 'I' for Inactive)
REMARK    1  A    between atoms: C_2  and  C_4 
REMARK    2  A    between atoms: C_6  and  O_11 
REMARK    3  A    between atoms: C_9  and  O_10 
REMARK    4  A    between atoms: O_11  and  C_12 
REMARK    5  A    between atoms: C_15  and  N_19 
REMARK       I    between atoms: N_19  and  C_20 
REMARK    6  A    between atoms: C_20  and  C_22 
REMARK    7  A    between atoms: C_22  and  C_23 
REMARK    8  A    between atoms: C_23  and  O_25 
ROOT
HETATM    1  C   UNK N   1      26.208  17.409   4.951  0.00  0.00     0.111 A 
HETATM    2  C   UNK N   1      25.404  16.371   5.464  0.00  0.00     0.048 A 
HETATM    3  C   UNK N   1      24.007  16.450   5.388  0.00  0.00     0.051 A 
HETATM    4  C   UNK N   1      23.400  17.558   4.796  0.00  0.00     0.037 A 
HETATM    5  C   UNK N   1      24.195  18.619   4.349  0.00  0.00     0.051 A 
HETATM    6  C   UNK N   1      25.580  18.567   4.428  0.00  0.00     0.048 A 
HETATM    7 Br   UNK N   1      26.531  20.138   3.868  0.00  0.00    -0.048 Br
HETATM    8 Br   UNK N   1      26.198  14.813   6.237  0.00  0.00    -0.048 Br
ENDROOT
BRANCH   1   9
HETATM    9  O   UNK N   1      27.561  17.271   4.986  0.00  0.00    -0.308 OA
BRANCH   9  10
HETATM   10  C   UNK N   1      28.347  17.520   6.072  0.00  0.00     0.076 A 
HETATM   11  C   UNK N   1      29.628  16.967   6.128  0.00  0.00     0.047 A 
HETATM   12  C   UNK N   1      30.470  17.200   7.233  0.00  0.00    -0.019 A 
HETATM   13  C   UNK N   1      30.004  18.007   8.291  0.00  0.00     0.072 A 
HETATM   14  C   UNK N   1      28.734  18.581   8.227  0.00  0.00     0.040 A 
HETATM   15  C   UNK N   1      27.916  18.353   7.121  0.00  0.00     0.040 A 
BRANCH  12  16
HETATM   16  C   UNK N   1      31.863  16.613   7.284  0.00  0.00     0.013 C 
HETATM   17  C   UNK N   1      31.835  15.118   7.026  0.00  0.00     0.015 C 
HETATM   18  C   UNK N   1      32.842  17.262   6.317  0.00  0.00     0.015 C 
ENDBRANCH  12  16
BRANCH  13  19
HETATM   19  O   UNK N   1      30.777  18.245   9.366  0.00  0.00    -0.360 OA
HETATM   20  H   UNK N   1      30.523  18.008  10.236  0.00  0.00     0.217 HD
ENDBRANCH  13  19
ENDBRANCH   9  10
ENDBRANCH   1   9
BRANCH   4  21
HETATM   21  N   UNK N   1      21.986  17.604   4.642  0.00  0.00    -0.327 N 
HETATM   22  C   UNK N   1      21.342  17.006   3.603  0.00  0.00     0.232 C 
HETATM   23  O   UNK N   1      21.952  16.254   2.852  0.00  0.00    -0.273 OA
HETATM   24  H   UNK N   1      21.453  18.086   5.314  0.00  0.00     0.169 HD
BRANCH  22  25
HETATM   25  C   UNK N   1      19.867  17.228   3.412  0.00  0.00     0.212 C 
BRANCH  25  26
HETATM   26  C   UNK N   1      19.479  18.571   2.838  0.00  0.00     0.148 C 
HETATM   27  O   UNK N   1      20.304  19.467   2.809  0.00  0.00    -0.650 OA
BRANCH  26  28
HETATM   28  O   UNK N   1      18.248  18.794   2.330  0.00  0.00    -0.776 OA
HETATM   29  H   UNK N   1      17.694  18.081   2.081  0.00  0.00     0.167 HD
ENDBRANCH  26  28
ENDBRANCH  25  26
ENDBRANCH  22  25
ENDBRANCH   4  21
TORSDOF 8
ENDMDL
MODEL 6
REMARK VINA RESULT:      -6.8      1.844      3.204
REMARK  8 active torsions:
REMARK  status: ('A' for Active; 'I' for Inactive)
REMARK    1  A    between atoms: C_2  and  C_4 
REMARK    2  A    between atoms: C_6  and  O_11 
REMARK    3  A    between atoms: C_9  and  O_10 
REMARK    4  A    between atoms: O_11  and  C_12 
REMARK    5  A    between atoms: C_15  and  N_19 
REMARK       I    between atoms: N_19  and  C_20 
REMARK    6  A    between atoms: C_20  and  C_22 
REMARK    7  A    between atoms: C_22  and  C_23 
REMARK    8  A    between atoms: C_23  and  O_25 
ROOT
HETATM    1  C   UNK N   1      26.751  17.878   5.149  0.00  0.00     0.111 A 
HETATM    2  C   UNK N   1      25.897  17.268   4.208  0.00  0.00     0.048 A 
HETATM    3  C   UNK N   1      24.950  18.028   3.511  0.00  0.00     0.051 A 
HETATM    4  C   UNK N   1      24.848  19.401   3.738  0.00  0.00     0.037 A 
HETATM    5  C   UNK N   1      25.648  19.995   4.720  0.00  0.00     0.051 A 
HETATM    6  C   UNK N   1      26.583  19.257   5.433  0.00  0.00     0.048 A 
HETATM    7 Br   UNK N   1      27.536  20.186   6.817  0.00  0.00    -0.048 Br
HETATM    8 Br   UNK N   1      26.039  15.399   3.830  0.00  0.00    -0.048 Br
ENDROOT
BRANCH   1   9
HETATM    9  O   UNK N   1      27.701  17.122   5.763  0.00  0.00    -0.308 OA
BRANCH   9  10
HETATM   10  C   UNK N   1      29.030  17.133   5.460  0.00  0.00     0.076 A 
HETATM   11  C   UNK N   1      29.967  17.150   6.496  0.00  0.00     0.047 A 
HETATM   12  C   UNK N   1      31.348  17.164   6.223  0.00  0.00    -0.019 A 
HETATM   13  C   UNK N   1      31.782  17.157   4.881  0.00  0.00     0.072 A 
HETATM   14  C   UNK N   1      30.849  17.116   3.844  0.00  0.00     0.040 A 
HETATM   15  C   UNK N   1      29.485  17.090   4.129  0.00  0.00     0.040 A 
BRANCH  12  16
HETATM   16  C   UNK N   1      32.361  17.165   7.347  0.00  0.00     0.013 C 
HETATM   17  C   UNK N   1      31.872  17.995   8.520  0.00  0.00     0.015 C 
HETATM   18  C   UNK N   1      32.731  15.776   7.846  0.00  0.00     0.015 C 
ENDBRANCH  12  16
BRANCH  13  19
HETATM   19  O   UNK N   1      33.093  17.178   4.582  0.00  0.00    -0.360 OA
HETATM   20  H   UNK N   1      33.723  17.645   5.094  0.00  0.00     0.217 HD
ENDBRANCH  13  19
ENDBRANCH   9  10
ENDBRANCH   1   9
BRANCH   4  21
HETATM   21  N   UNK N   1      23.946  20.190   2.972  0.00  0.00    -0.327 N 
HETATM   22  C   UNK N   1      22.598  20.141   3.148  0.00  0.00     0.232 C 
HETATM   23  O   UNK N   1      22.124  19.535   4.103  0.00  0.00    -0.273 OA
HETATM   24  H   UNK N   1      24.311  20.797   2.289  0.00  0.00     0.169 HD
BRANCH  22  25
HETATM   25  C   UNK N   1      21.693  20.878   2.201  0.00  0.00     0.212 C 
BRANCH  25  26
HETATM   26  C   UNK N   1      20.930  20.015   1.222  0.00  0.00     0.148 C 
HETATM   27  O   UNK N   1      20.580  18.898   1.563  0.00  0.00    -0.650 OA
BRANCH  26  28
HETATM   28  O   UNK N   1      20.602  20.459  -0.009  0.00  0.00    -0.776 OA
HETATM   29  H   UNK N   1      20.796  19.951  -0.771  0.00  0.00     0.167 HD
ENDBRANCH  26  28
ENDBRANCH  25  26
ENDBRANCH  22  25
ENDBRANCH   4  21
TORSDOF 8
ENDMDL
MODEL 7
REMARK VINA RESULT:      -6.8      2.220      2.421
REMARK  8 active torsions:
REMARK  status: ('A' for Active; 'I' for Inactive)
REMARK    1  A    between atoms: C_2  and  C_4 
REMARK    2  A    between atoms: C_6  and  O_11 
REMARK    3  A    between atoms: C_9  and  O_10 
REMARK    4  A    between atoms: O_11  and  C_12 
REMARK    5  A    between atoms: C_15  and  N_19 
REMARK       I    between atoms: N_19  and  C_20 
REMARK    6  A    between atoms: C_20  and  C_22 
REMARK    7  A    between atoms: C_22  and  C_23 
REMARK    8  A    between atoms: C_23  and  O_25 
ROOT
HETATM    1  C   UNK N   1      26.842  17.433   4.734  0.00  0.00     0.111 A 
HETATM    2  C   UNK N   1      26.148  18.506   4.140  0.00  0.00     0.048 A 
HETATM    3  C   UNK N   1      24.789  18.385   3.825  0.00  0.00     0.051 A 
HETATM    4  C   UNK N   1      24.108  17.200   4.102  0.00  0.00     0.037 A 
HETATM    5  C   UNK N   1      24.812  16.111   4.628  0.00  0.00     0.051 A 
HETATM    6  C   UNK N   1      26.162  16.205   4.935  0.00  0.00     0.048 A 
HETATM    7 Br   UNK N   1      27.016  14.600   5.555  0.00  0.00    -0.048 Br
HETATM    8 Br   UNK N   1      27.032  20.165   3.792  0.00  0.00    -0.048 Br
ENDROOT
BRANCH   1   9
HETATM    9  O   UNK N   1      28.146  17.605   5.085  0.00  0.00    -0.308 OA
BRANCH   9  10
HETATM   10  C   UNK N   1      28.594  17.832   6.352  0.00  0.00     0.076 A 
HETATM   11  C   UNK N   1      29.838  17.326   6.737  0.00  0.00     0.047 A 
HETATM   12  C   UNK N   1      30.335  17.538   8.037  0.00  0.00    -0.019 A 
HETATM   13  C   UNK N   1      29.559  18.274   8.956  0.00  0.00     0.072 A 
HETATM   14  C   UNK N   1      28.326  18.801   8.567  0.00  0.00     0.040 A 
HETATM   15  C   UNK N   1      27.853  18.595   7.273  0.00  0.00     0.040 A 
BRANCH  12  16
HETATM   16  C   UNK N   1      31.690  17.004   8.446  0.00  0.00     0.013 C 
HETATM   17  C   UNK N   1      31.945  15.639   7.835  0.00  0.00     0.015 C 
HETATM   18  C   UNK N   1      32.848  17.926   8.095  0.00  0.00     0.015 C 
ENDBRANCH  12  16
BRANCH  13  19
HETATM   19  O   UNK N   1      29.998  18.490  10.209  0.00  0.00    -0.360 OA
HETATM   20  H   UNK N   1      29.563  19.065  10.807  0.00  0.00     0.217 HD
ENDBRANCH  13  19
ENDBRANCH   9  10
ENDBRANCH   1   9
BRANCH   4  21
HETATM   21  N   UNK N   1      22.709  17.102   3.859  0.00  0.00    -0.327 N 
HETATM   22  C   UNK N   1      21.781  17.303   4.832  0.00  0.00     0.232 C 
HETATM   23  O   UNK N   1      22.119  17.750   5.923  0.00  0.00    -0.273 OA
HETATM   24  H   UNK N   1      22.402  16.881   2.950  0.00  0.00     0.169 HD
BRANCH  22  25
HETATM   25  C   UNK N   1      20.330  17.028   4.548  0.00  0.00     0.212 C 
BRANCH  25  26
HETATM   26  C   UNK N   1      19.876  17.314   3.135  0.00  0.00     0.148 C 
HETATM   27  O   UNK N   1      20.430  16.751   2.207  0.00  0.00    -0.650 OA
BRANCH  26  28
HETATM   28  O   UNK N   1      18.855  18.158   2.877  0.00  0.00    -0.776 OA
HETATM   29  H   UNK N   1      18.417  18.143   2.050  0.00  0.00     0.167 HD
ENDBRANCH  26  28
ENDBRANCH  25  26
ENDBRANCH  22  25
ENDBRANCH   4  21
TORSDOF 8
ENDMDL
MODEL 8
REMARK VINA RESULT:      -6.7      4.979      9.855
REMARK  8 active torsions:
REMARK  status: ('A' for Active; 'I' for Inactive)
REMARK    1  A    between atoms: C_2  and  C_4 
REMARK    2  A    between atoms: C_6  and  O_11 
REMARK    3  A    between atoms: C_9  and  O_10 
REMARK    4  A    between atoms: O_11  and  C_12 
REMARK    5  A    between atoms: C_15  and  N_19 
REMARK       I    between atoms: N_19  and  C_20 
REMARK    6  A    between atoms: C_20  and  C_22 
REMARK    7  A    between atoms: C_22  and  C_23 
REMARK    8  A    between atoms: C_23  and  O_25 
ROOT
HETATM    1  C   UNK N   1      30.472  17.385   5.771  0.00  0.00     0.111 A 
HETATM    2  C   UNK N   1      30.026  17.202   7.096  0.00  0.00     0.048 A 
HETATM    3  C   UNK N   1      30.944  16.981   8.130  0.00  0.00     0.051 A 
HETATM    4  C   UNK N   1      32.312  16.948   7.857  0.00  0.00     0.037 A 
HETATM    5  C   UNK N   1      32.751  17.061   6.534  0.00  0.00     0.051 A 
HETATM    6  C   UNK N   1      31.857  17.266   5.492  0.00  0.00     0.048 A 
HETATM    7 Br   UNK N   1      32.596  17.302   3.720  0.00  0.00    -0.048 Br
HETATM    8 Br   UNK N   1      28.164  17.292   7.519  0.00  0.00    -0.048 Br
ENDROOT
BRANCH   1   9
HETATM    9  O   UNK N   1      29.558  17.659   4.801  0.00  0.00    -0.308 OA
BRANCH   9  10
HETATM   10  C   UNK N   1      28.828  16.727   4.126  0.00  0.00     0.076 A 
HETATM   11  C   UNK N   1      29.348  15.442   3.959  0.00  0.00     0.047 A 
HETATM   12  C   UNK N   1      28.625  14.452   3.266  0.00  0.00    -0.019 A 
HETATM   13  C   UNK N   1      27.357  14.772   2.740  0.00  0.00     0.072 A 
HETATM   14  C   UNK N   1      26.823  16.048   2.926  0.00  0.00     0.040 A 
HETATM   15  C   UNK N   1      27.545  17.015   3.625  0.00  0.00     0.040 A 
BRANCH  12  16
HETATM   16  C   UNK N   1      29.184  13.055   3.101  0.00  0.00     0.013 C 
HETATM   17  C   UNK N   1      30.363  13.050   2.146  0.00  0.00     0.015 C 
HETATM   18  C   UNK N   1      29.605  12.401   4.408  0.00  0.00     0.015 C 
ENDBRANCH  12  16
BRANCH  13  19
HETATM   19  O   UNK N   1      26.640  13.854   2.066  0.00  0.00    -0.360 OA
HETATM   20  H   UNK N   1      26.733  12.933   2.209  0.00  0.00     0.217 HD
ENDBRANCH  13  19
ENDBRANCH   9  10
ENDBRANCH   1   9
BRANCH   4  21
HETATM   21  N   UNK N   1      33.251  16.807   8.917  0.00  0.00    -0.327 N 
HETATM   22  C   UNK N   1      33.624  15.595   9.410  0.00  0.00     0.232 C 
HETATM   23  O   UNK N   1      33.288  14.566   8.834  0.00  0.00    -0.273 OA
HETATM   24  H   UNK N   1      33.648  17.618   9.307  0.00  0.00     0.169 HD
BRANCH  22  25
HETATM   25  C   UNK N   1      34.496  15.523  10.632  0.00  0.00     0.212 C 
BRANCH  25  26
HETATM   26  C   UNK N   1      35.702  16.434  10.628  0.00  0.00     0.148 C 
HETATM   27  O   UNK N   1      35.559  17.608  10.334  0.00  0.00    -0.650 OA
BRANCH  26  28
HETATM   28  O   UNK N   1      36.929  15.986  10.968  0.00  0.00    -0.776 OA
HETATM   29  H   UNK N   1      37.152  15.829  11.864  0.00  0.00     0.167 HD
ENDBRANCH  26  28
ENDBRANCH  25  26
ENDBRANCH  22  25
ENDBRANCH   4  21
TORSDOF 8
ENDMDL
MODEL 9
REMARK VINA RESULT:      -6.7      3.580      9.972
REMARK  8 active torsions:
REMARK  status: ('A' for Active; 'I' for Inactive)
REMARK    1  A    between atoms: C_2  and  C_4 
REMARK    2  A    between atoms: C_6  and  O_11 
REMARK    3  A    between atoms: C_9  and  O_10 
REMARK    4  A    between atoms: O_11  and  C_12 
REMARK    5  A    between atoms: C_15  and  N_19 
REMARK       I    between atoms: N_19  and  C_20 
REMARK    6  A    between atoms: C_20  and  C_22 
REMARK    7  A    between atoms: C_22  and  C_23 
REMARK    8  A    between atoms: C_23  and  O_25 
ROOT
HETATM    1  C   UNK N   1      29.362  16.720   7.142  0.00  0.00     0.111 A 
HETATM    2  C   UNK N   1      29.936  17.257   8.311  0.00  0.00     0.048 A 
HETATM    3  C   UNK N   1      31.290  17.045   8.599  0.00  0.00     0.051 A 
HETATM    4  C   UNK N   1      32.085  16.304   7.724  0.00  0.00     0.037 A 
HETATM    5  C   UNK N   1      31.500  15.713   6.599  0.00  0.00     0.051 A 
HETATM    6  C   UNK N   1      30.156  15.899   6.303  0.00  0.00     0.048 A 
HETATM    7 Br   UNK N   1      29.473  14.945   4.783  0.00  0.00    -0.048 Br
HETATM    8 Br   UNK N   1      28.894  18.322   9.510  0.00  0.00    -0.048 Br
ENDROOT
BRANCH   1   9
HETATM    9  O   UNK N   1      28.059  16.997   6.861  0.00  0.00    -0.308 OA
BRANCH   9  10
HETATM   10  C   UNK N   1      27.631  17.860   5.898  0.00  0.00     0.076 A 
HETATM   11  C   UNK N   1      26.431  17.599   5.231  0.00  0.00     0.047 A 
HETATM   12  C   UNK N   1      25.956  18.467   4.229  0.00  0.00    -0.019 A 
HETATM   13  C   UNK N   1      26.707  19.615   3.904  0.00  0.00     0.072 A 
HETATM   14  C   UNK N   1      27.893  19.892   4.585  0.00  0.00     0.040 A 
HETATM   15  C   UNK N   1      28.345  19.031   5.584  0.00  0.00     0.040 A 
BRANCH  12  16
HETATM   16  C   UNK N   1      24.648  18.191   3.520  0.00  0.00     0.013 C 
HETATM   17  C   UNK N   1      24.346  16.704   3.496  0.00  0.00     0.015 C 
HETATM   18  C   UNK N   1      23.457  18.927   4.114  0.00  0.00     0.015 C 
ENDBRANCH  12  16
BRANCH  13  19
HETATM   19  O   UNK N   1      26.288  20.463   2.947  0.00  0.00    -0.360 OA
HETATM   20  H   UNK N   1      26.792  21.201   2.667  0.00  0.00     0.217 HD
ENDBRANCH  13  19
ENDBRANCH   9  10
ENDBRANCH   1   9
BRANCH   4  21
HETATM   21  N   UNK N   1      33.478  16.157   7.971  0.00  0.00    -0.327 N 
HETATM   22  C   UNK N   1      33.975  15.252   8.857  0.00  0.00     0.232 C 
HETATM   23  O   UNK N   1      33.238  14.405   9.350  0.00  0.00    -0.273 OA
HETATM   24  H   UNK N   1      34.108  16.732   7.480  0.00  0.00     0.169 HD
BRANCH  22  25
HETATM   25  C   UNK N   1      35.441  15.258   9.188  0.00  0.00     0.212 C 
BRANCH  25  26
HETATM   26  C   UNK N   1      35.853  16.184  10.309  0.00  0.00     0.148 C 
HETATM   27  O   UNK N   1      35.098  17.078  10.650  0.00  0.00    -0.650 OA
BRANCH  26  28
HETATM   28  O   UNK N   1      37.025  16.030  10.960  0.00  0.00    -0.776 OA
HETATM   29  H   UNK N   1      37.517  15.236  10.884  0.00  0.00     0.167 HD
ENDBRANCH  26  28
ENDBRANCH  25  26
ENDBRANCH  22  25
ENDBRANCH   4  21
TORSDOF 8
ENDMDL
