REMARK  8 active torsions:
REMARK  status: ('A' for Active; 'I' for Inactive)
REMARK    1  A    between atoms: C_5  and  C_7 
REMARK    2  A    between atoms: C_7  and  N_8 
REMARK    3  A    between atoms: N_8  and  N_9 
REMARK       I    between atoms: N_9  and  C_10 
REMARK    4  A    between atoms: C_10  and  C_11 
REMARK    5  A    between atoms: C_11  and  C_12 
REMARK       I    between atoms: C_12  and  N_13 
REMARK    6  A    between atoms: N_13  and  N_14 
REMARK    7  A    between atoms: N_14  and  C_15 
REMARK    8  A    between atoms: C_15  and  C_16 
ROOT
HETATM    1  C   UNK N   1      -0.994  -0.195  -0.000  0.00  0.00     0.208 C 
ENDROOT
BRANCH   1   2
HETATM    2  C   UNK N   1      -2.281   0.570  -0.000  0.00  0.00     0.244 C 
HETATM    3  N   UNK N   1      -3.431  -0.152   0.000  0.00  0.00    -0.267 N 
HETATM    4  H   UNK N   1      -3.341  -1.132   0.000  0.00  0.00     0.190 HD
HETATM    5  O   UNK N   1      -2.293   1.792  -0.000  0.00  0.00    -0.271 OA
BRANCH   3   6
HETATM    6  N   UNK N   1      -4.720   0.358   0.000  0.00  0.00    -0.283 N 
HETATM    7  C   UNK N   1      -4.936   1.789   0.000  0.00  0.00     0.179 C 
BRANCH   6   8
HETATM    8  C   UNK N   1      -5.831  -0.571   0.000  0.00  0.00     0.127 C 
HETATM    9  S   UNK N   1      -5.547  -1.994  -0.000  0.00  0.00    -0.058 SA
BRANCH   8  10
HETATM   10  C   UNK N   1      -7.277  -0.126   0.000  0.00  0.00     0.003 A 
HETATM   11  C   UNK N   1      -8.317  -1.080   0.000  0.00  0.00     0.014 A 
HETATM   12  C   UNK N   1      -9.657  -0.686  -0.000  0.00  0.00     0.001 A 
HETATM   13  C   UNK N   1      -9.984   0.670  -0.000  0.00  0.00     0.000 A 
HETATM   14  C   UNK N   1      -8.972   1.629  -0.000  0.00  0.00     0.001 A 
HETATM   15  C   UNK N   1      -7.634   1.232  -0.000  0.00  0.00     0.014 A 
ENDBRANCH   8  10
ENDBRANCH   6   8
ENDBRANCH   3   6
ENDBRANCH   1   2
BRANCH   1  16
HETATM   16  C   UNK N   1       0.293   0.570   0.000  0.00  0.00     0.244 C 
HETATM   17  N   UNK N   1       1.442  -0.152  -0.000  0.00  0.00    -0.267 N 
HETATM   18  H   UNK N   1       1.352  -1.132  -0.000  0.00  0.00     0.190 HD
HETATM   19  O   UNK N   1       0.304   1.792   0.000  0.00  0.00    -0.271 OA
BRANCH  17  20
HETATM   20  N   UNK N   1       2.731   0.358  -0.000  0.00  0.00    -0.283 N 
HETATM   21  C   UNK N   1       2.948   1.789  -0.000  0.00  0.00     0.179 C 
BRANCH  20  22
HETATM   22  C   UNK N   1       3.842  -0.571  -0.000  0.00  0.00     0.127 C 
HETATM   23  S   UNK N   1       3.559  -1.995   0.000  0.00  0.00    -0.058 SA
BRANCH  22  24
HETATM   24  C   UNK N   1       5.288  -0.126  -0.000  0.00  0.00     0.003 A 
HETATM   25  C   UNK N   1       5.645   1.232   0.000  0.00  0.00     0.014 A 
HETATM   26  C   UNK N   1       6.983   1.629   0.000  0.00  0.00     0.001 A 
HETATM   27  C   UNK N   1       7.995   0.670   0.000  0.00  0.00     0.000 A 
HETATM   28  C   UNK N   1       7.668  -0.686   0.000  0.00  0.00     0.001 A 
HETATM   29  C   UNK N   1       6.329  -1.081  -0.000  0.00  0.00     0.014 A 
ENDBRANCH  22  24
ENDBRANCH  20  22
ENDBRANCH  17  20
ENDBRANCH   1  16
TORSDOF 8
