REMARK  31 active torsions:
REMARK  status: ('A' for Active; 'I' for Inactive)
REMARK    1  A    between atoms: C_56  and  O_5 
REMARK       I    between atoms: N_12  and  C_30 
REMARK    2  A    between atoms: C_31  and  N_13 
REMARK       I    between atoms: N_13  and  C_37 
REMARK       I    between atoms: N_14  and  C_32 
REMARK    3  A    between atoms: N_14  and  C_39 
REMARK    4  A    between atoms: C_34  and  N_15 
REMARK       I    between atoms: N_15  and  C_43 
REMARK    5  A    between atoms: C_42  and  N_16 
REMARK       I    between atoms: N_16  and  C_52 
REMARK    6  A    between atoms: C_44  and  N_17 
REMARK       I    between atoms: N_17  and  C_58 
REMARK    7  A    between atoms: C_48  and  N_18 
REMARK       I    between atoms: N_18  and  C_51 
REMARK    8  A    between atoms: N_19  and  C_41 
REMARK    9  A    between atoms: C_54  and  N_21 
REMARK       I    between atoms: N_21  and  C_65 
REMARK       I    between atoms: N_22  and  C_64 
REMARK       I    between atoms: N_23  and  C_64 
REMARK   10  A    between atoms: N_24  and  C_66 
REMARK       I    between atoms: N_24  and  C_67 
REMARK   11  A    between atoms: N_25  and  C_68 
REMARK       I    between atoms: N_25  and  C_70 
REMARK   12  A    between atoms: C_26  and  C_32 
REMARK   13  A    between atoms: C_30  and  C_31 
REMARK   14  A    between atoms: C_31  and  C_33 
REMARK   15  A    between atoms: C_33  and  C_36 
REMARK   16  A    between atoms: C_34  and  C_35 
REMARK   17  A    between atoms: C_34  and  C_37 
REMARK   18  A    between atoms: C_35  and  C_38 
REMARK   19  A    between atoms: C_36  and  C_41 
REMARK   20  A    between atoms: C_42  and  C_43 
REMARK   21  A    between atoms: C_42  and  C_47 
REMARK   22  A    between atoms: C_44  and  C_45 
REMARK   23  A    between atoms: C_44  and  C_51 
REMARK   24  A    between atoms: C_45  and  C_50 
REMARK   25  A    between atoms: C_47  and  C_53 
REMARK   26  A    between atoms: C_48  and  C_52 
REMARK   27  A    between atoms: C_48  and  C_56 
REMARK   28  A    between atoms: C_54  and  C_57 
REMARK   29  A    between atoms: C_54  and  C_58 
REMARK   30  A    between atoms: C_65  and  C_66 
REMARK   31  A    between atoms: C_67  and  C_68 
ROOT
HETATM    1  C   UNK N   1       7.323   3.014   0.703  0.00  0.00     0.176 C 
ENDROOT
BRANCH   1   2
HETATM    2  N   UNK N   1       6.815   1.992   1.592  0.00  0.00    -0.346 N 
HETATM    3  C   UNK N   1       6.953   0.641   1.516  0.00  0.00     0.243 C 
HETATM    4  O   UNK N   1       6.407  -0.034   2.369  0.00  0.00    -0.271 OA
HETATM    5  H   UNK N   1       6.296   2.321   2.362  0.00  0.00     0.163 HD
BRANCH   3   6
HETATM    6  C   UNK N   1       7.788  -0.092   0.481  0.00  0.00     0.205 C 
BRANCH   6   7
HETATM    7  N   UNK N   1       7.427   0.144  -0.905  0.00  0.00    -0.344 N 
HETATM    8  C   UNK N   1       6.322  -0.332  -1.542  0.00  0.00     0.241 C 
HETATM    9  O   UNK N   1       6.223  -0.162  -2.747  0.00  0.00    -0.271 OA
HETATM   10  H   UNK N   1       8.040   0.702  -1.435  0.00  0.00     0.163 HD
BRANCH   8  11
HETATM   11  C   UNK N   1       5.205  -1.066  -0.834  0.00  0.00     0.180 C 
BRANCH  11  12
HETATM   12  N   UNK N   1       5.746  -2.265  -0.196  0.00  0.00    -0.346 N 
HETATM   13  C   UNK N   1       5.594  -2.742   1.069  0.00  0.00     0.241 C 
HETATM   14  O   UNK N   1       4.895  -2.175   1.886  0.00  0.00    -0.271 OA
HETATM   15  H   UNK N   1       6.316  -2.818  -0.778  0.00  0.00     0.163 HD
BRANCH  13  16
HETATM   16  C   UNK N   1       6.300  -4.001   1.492  0.00  0.00     0.180 C 
BRANCH  16  17
HETATM   17  N   UNK N   1       5.383  -5.073   1.823  0.00  0.00    -0.346 N 
HETATM   18  C   UNK N   1       4.522  -5.689   0.971  0.00  0.00     0.236 C 
HETATM   19  O   UNK N   1       3.833  -6.601   1.402  0.00  0.00    -0.272 OA
HETATM   20  H   UNK N   1       5.384  -5.386   2.757  0.00  0.00     0.163 HD
BRANCH  18  21
HETATM   21  C   UNK N   1       4.400  -5.291  -0.485  0.00  0.00     0.225 C 
BRANCH  21  22
HETATM   22  N   UNK N   1       3.643  -6.293  -1.200  0.00  0.00    -0.351 N 
HETATM   23  C   UNK N   1       2.291  -6.332  -1.163  0.00  0.00     0.235 C 
HETATM   24  O   UNK N   1       1.655  -5.431  -0.636  0.00  0.00    -0.272 OA
HETATM   25  H   UNK N   1       4.125  -6.969  -1.730  0.00  0.00     0.163 HD
BRANCH  23  26
HETATM   26  C   UNK N   1       1.584  -7.553  -1.647  0.00  0.00     0.227 C 
BRANCH  26  27
HETATM   27  N   UNK N   1       1.045  -8.254  -0.500  0.00  0.00    -0.348 N 
HETATM   28  C   UNK N   1      -0.287  -7.923  -0.056  0.00  0.00     0.153 C 
HETATM   29  C   UNK N   1       1.800  -9.167   0.180  0.00  0.00     0.215 C 
HETATM   30  O   UNK N   1       2.932  -9.435  -0.196  0.00  0.00    -0.274 OA
HETATM   31  C   UNK N   1       1.270  -9.851   1.403  0.00  0.00     0.117 C 
ENDBRANCH  26  27
ENDBRANCH  23  26
ENDBRANCH  21  22
ENDBRANCH  18  21
ENDBRANCH  16  17
BRANCH  16  32
HETATM   32  C   UNK N   1       7.548  -4.461   0.720  0.00  0.00     0.009 C 
HETATM   33  C   UNK N   1       7.306  -4.827  -0.732  0.00  0.00     0.012 C 
HETATM   34  C   UNK N   1       8.643  -3.420   0.805  0.00  0.00     0.012 C 
ENDBRANCH  16  32
ENDBRANCH  13  16
ENDBRANCH  11  12
BRANCH  11  35
HETATM   35  C   UNK N   1       4.322  -0.061  -0.044  0.00  0.00     0.013 C 
HETATM   36  C   UNK N   1       3.749   0.956  -1.021  0.00  0.00     0.012 C 
BRANCH  35  37
HETATM   37  C   UNK N   1       3.143  -0.614   0.755  0.00  0.00     0.002 C 
HETATM   38  C   UNK N   1       2.151  -1.393  -0.085  0.00  0.00     0.005 C 
ENDBRANCH  35  37
ENDBRANCH  11  35
ENDBRANCH   8  11
ENDBRANCH   6   7
BRANCH   6  39
HETATM   39  C   UNK N   1       9.292   0.086   0.670  0.00  0.00     0.146 C 
HETATM   40  C   UNK N   1       9.720  -0.342   2.064  0.00  0.00     0.042 C 
BRANCH  39  41
HETATM   41  O   UNK N   1       9.970  -0.704  -0.260  0.00  0.00    -0.393 OA
HETATM   42  H   UNK N   1       9.730  -1.386  -0.907  0.00  0.00     0.210 HD
ENDBRANCH  39  41
ENDBRANCH   6  39
ENDBRANCH   3   6
ENDBRANCH   1   2
BRANCH   1  43
HETATM   43  C   UNK N   1       8.818   3.165   0.678  0.00  0.00     0.241 C 
HETATM   44  O   UNK N   1       9.425   3.335   1.725  0.00  0.00    -0.271 OA
HETATM   45  N   UNK N   1       9.450   3.268  -0.519  0.00  0.00    -0.346 N 
HETATM   46  H   UNK N   1       8.921   3.046  -1.319  0.00  0.00     0.163 HD
BRANCH  45  47
HETATM   47  C   UNK N   1      10.825   3.672  -0.737  0.00  0.00     0.180 C 
BRANCH  47  48
HETATM   48  C   UNK N   1      11.885   3.215   0.289  0.00  0.00     0.013 C 
HETATM   49  C   UNK N   1      12.611   4.377   0.946  0.00  0.00     0.012 C 
BRANCH  48  50
HETATM   50  C   UNK N   1      12.927   2.339  -0.382  0.00  0.00     0.002 C 
HETATM   51  C   UNK N   1      12.394   0.938  -0.591  0.00  0.00     0.005 C 
ENDBRANCH  48  50
ENDBRANCH  47  48
BRANCH  47  52
HETATM   52  C   UNK N   1      10.933   5.028  -1.400  0.00  0.00     0.241 C 
HETATM   53  O   UNK N   1      11.234   5.068  -2.581  0.00  0.00    -0.271 OA
HETATM   54  N   UNK N   1      10.675   6.196  -0.747  0.00  0.00    -0.346 N 
HETATM   55  H   UNK N   1      10.785   7.036  -1.248  0.00  0.00     0.163 HD
BRANCH  54  56
HETATM   56  C   UNK N   1      10.250   6.287   0.634  0.00  0.00     0.176 C 
BRANCH  56  57
HETATM   57  C   UNK N   1      10.654   7.570   1.366  0.00  0.00     0.243 C 
HETATM   58  O   UNK N   1      10.323   7.666   2.536  0.00  0.00    -0.271 OA
HETATM   59  N   UNK N   1      11.290   8.628   0.767  0.00  0.00    -0.337 N 
HETATM   60  C   UNK N   1      11.734   8.674  -0.591  0.00  0.00     0.179 C 
HETATM   61  C   UNK N   1      11.335   9.908   1.417  0.00  0.00     0.127 C 
HETATM   62  C   UNK N   1      11.481  10.114  -1.016  0.00  0.00     0.037 C 
HETATM   63  C   UNK N   1      11.185  10.896   0.269  0.00  0.00     0.022 C 
BRANCH  60  64
HETATM   64  C   UNK N   1      13.212   8.378  -0.613  0.00  0.00     0.240 C 
HETATM   65  O   UNK N   1      13.636   7.475  -1.316  0.00  0.00    -0.271 OA
HETATM   66  N   UNK N   1      14.056   9.087   0.183  0.00  0.00    -0.360 N 
HETATM   67  H   UNK N   1      13.694   9.831   0.717  0.00  0.00     0.162 HD
BRANCH  66  68
HETATM   68  C   UNK N   1      15.463   8.787   0.272  0.00  0.00     0.118 C 
HETATM   69  C   UNK N   1      16.234   9.639  -0.713  0.00  0.00     0.026 C 
ENDBRANCH  66  68
ENDBRANCH  60  64
ENDBRANCH  56  57
BRANCH  56  70
HETATM   70  C   UNK N   1       8.723   6.184   0.699  0.00  0.00     0.036 C 
BRANCH  70  71
HETATM   71  C   UNK N   1       8.051   7.436   0.148  0.00  0.00     0.023 C 
BRANCH  71  72
HETATM   72  C   UNK N   1       7.112   7.090  -0.989  0.00  0.00     0.138 C 
BRANCH  72  73
HETATM   73  N   UNK N   1       5.889   6.510  -0.485  0.00  0.00    -0.227 N 
HETATM   74  C   UNK N   1       4.999   7.189   0.155  0.00  0.00     0.665 C 
HETATM   75  N   UNK N   1       5.174   8.572   0.402  0.00  0.00    -0.235 N 
HETATM   76  N   UNK N   1       3.828   6.545   0.606  0.00  0.00    -0.235 N 
HETATM   77  H   UNK N   1       6.067   8.948   0.574  0.00  0.00     0.174 HD
HETATM   78  H   UNK N   1       4.389   9.167   0.402  0.00  0.00     0.174 HD
HETATM   79  H   UNK N   1       3.030   7.028   0.921  0.00  0.00     0.174 HD
HETATM   80  H   UNK N   1       3.807   5.561   0.606  0.00  0.00     0.174 HD
ATOM     81  HN  UNK N   1       5.722   5.517  -0.642  1.00  0.00     0.177 HD
ENDBRANCH  72  73
ENDBRANCH  71  72
ENDBRANCH  70  71
ENDBRANCH  56  70
ENDBRANCH  54  56
ENDBRANCH  47  52
ENDBRANCH  45  47
ENDBRANCH   1  43
BRANCH   1  82
HETATM   82  C   UNK N   1       6.650   3.008  -0.663  0.00  0.00     0.034 C 
BRANCH  82  83
HETATM   83  C   UNK N   1       5.242   3.554  -0.538  0.00  0.00    -0.002 C 
HETATM   84  C   UNK N   1       4.691   3.854  -1.916  0.00  0.00     0.005 C 
ENDBRANCH  82  83
ENDBRANCH   1  82
TORSDOF 31
