REMARK  7 active torsions:
REMARK  status: ('A' for Active; 'I' for Inactive)
REMARK    1  A    between atoms: C_7  and  C_12 
REMARK    2  A    between atoms: C_12  and  N_13 
REMARK    3  A    between atoms: N_13  and  C_14 
REMARK    4  A    between atoms: C_18  and  C_19 
REMARK       I    between atoms: C_19  and  N_21 
REMARK    5  A    between atoms: N_21  and  C_22 
REMARK    6  A    between atoms: C_25  and  O_28 
REMARK    7  A    between atoms: O_28  and  C_29 
ROOT
HETATM    1  C   UNK N   1       2.284   3.071  -0.007  0.00  0.00     0.051 A 
HETATM    2  C   UNK N   1       3.520   3.773   0.061  0.00  0.00     0.038 A 
HETATM    3  C   UNK N   1       3.358   5.171   0.098  0.00  0.00     0.053 A 
HETATM    4  S   UNK N   1       1.711   5.458   0.054  0.00  0.00    -0.094 SA
HETATM    5  C   UNK N   1       1.156   3.906  -0.024  0.00  0.00     0.099 A 
ENDROOT
BRANCH   5   6
HETATM    6  C   UNK N   1      -0.227   3.395  -0.101  0.00  0.00     0.265 C 
HETATM    7  O   UNK N   1      -0.353   2.205  -0.284  0.00  0.00    -0.267 OA
HETATM    8  N   UNK N   1      -1.343   4.183   0.002  0.00  0.00    -0.322 N 
HETATM    9  H   UNK N   1      -1.242   5.160   0.071  0.00  0.00     0.169 HD
BRANCH   8  10
HETATM   10  C   UNK N   1      -2.663   3.604   0.009  0.00  0.00     0.035 A 
HETATM   11  C   UNK N   1      -2.833   2.222   0.192  0.00  0.00     0.032 A 
HETATM   12  C   UNK N   1      -4.074   1.627   0.150  0.00  0.00     0.039 A 
HETATM   13  C   UNK N   1      -5.216   2.391  -0.063  0.00  0.00     0.078 A 
HETATM   14  C   UNK N   1      -5.081   3.785  -0.223  0.00  0.00     0.039 A 
HETATM   15  C   UNK N   1      -3.807   4.393  -0.183  0.00  0.00     0.032 A 
BRANCH  13  16
HETATM   16  O   UNK N   1      -6.443   1.808  -0.156  0.00  0.00    -0.255 OA
BRANCH  16  17
HETATM   17  C   UNK N   1      -6.754   0.463   0.050  0.00  0.00     0.530 C 
HETATM   18  F   UNK N   1      -7.037  -0.127  -1.167  0.00  0.00    -0.144 F 
HETATM   19  F   UNK N   1      -7.872   0.380   0.855  0.00  0.00    -0.144 F 
HETATM   20  F   UNK N   1      -5.741  -0.258   0.664  0.00  0.00    -0.144 F 
ENDBRANCH  16  17
ENDBRANCH  13  16
ENDBRANCH   8  10
ENDBRANCH   5   6
BRANCH   1  21
HETATM   21  N   UNK N   1       2.154   1.653  -0.035  0.00  0.00    -0.384 N 
HETATM   22  H   UNK N   1       1.240   1.292  -0.093  0.00  0.00     0.160 HD
BRANCH  21  23
HETATM   23  C   UNK N   1       3.228   0.697   0.015  0.00  0.00     0.159 C 
BRANCH  23  24
HETATM   24  C   UNK N   1       2.759  -0.761   0.010  0.00  0.00    -0.027 A 
HETATM   25  C   UNK N   1       1.403  -1.218   0.015  0.00  0.00    -0.002 A 
HETATM   26  C   UNK N   1       1.142  -2.613   0.003  0.00  0.00     0.042 A 
HETATM   27  C   UNK N   1       0.312  -0.347   0.033  0.00  0.00     0.014 A 
HETATM   28  C   UNK N   1      -0.177  -3.087   0.003  0.00  0.00     0.030 A 
HETATM   29  N   UNK N   1       2.168  -3.499  -0.009  0.00  0.00    -0.365 N 
HETATM   30  C   UNK N   1      -1.248  -2.193   0.016  0.00  0.00     0.002 A 
HETATM   31  C   UNK N   1      -1.002  -0.822   0.032  0.00  0.00     0.001 A 
HETATM   32  C   UNK N   1       3.461  -3.086  -0.010  0.00  0.00     0.089 A 
ATOM     33  HN  UNK N   1       1.964  -4.498  -0.018  1.00  0.00     0.165 HD
HETATM   34  C   UNK N   1       3.771  -1.725  -0.001  0.00  0.00     0.026 A 
ENDBRANCH  23  24
ENDBRANCH  21  23
ENDBRANCH   1  21
TORSDOF 7
