REMARK  5 active torsions:
REMARK  status: ('A' for Active; 'I' for Inactive)
REMARK    1  A    between atoms: Si_1  and  C_13 
REMARK    2  A    between atoms: C_17  and  O_3 
REMARK    3  A    between atoms: C_11  and  C_14 
REMARK    4  A    between atoms: C_13  and  C_14 
REMARK    5  A    between atoms: C_17  and  C_22 
ROOT
HETATM    1  O   UNK N   1       7.261   5.335  -0.090  0.00  0.00    -0.314 OA
HETATM    2  O   UNK N   1       3.788   3.152   0.517  0.00  0.00    -0.267 OA
HETATM    3  O   UNK N   1       9.432   5.379  -0.535  0.00  0.00    -0.261 OA
HETATM    4  N   UNK N   1       4.797   1.185   0.110  0.00  0.00    -0.307 N 
HETATM    5  N   UNK N   1       6.505  -1.929  -0.333  0.00  0.00    -0.353 N 
ATOM      6  HN  UNK N   1       7.447  -1.757  -0.684  1.00  0.00     0.166 HD
HETATM    7  C   UNK N   1       4.368  -1.065   0.318  0.00  0.00    -0.004 A 
HETATM    8  C   UNK N   1       3.687   0.280   0.463  0.00  0.00     0.174 A 
HETATM    9  C   UNK N   1       3.902  -2.341   0.648  0.00  0.00    -0.035 A 
HETATM   10  C   UNK N   1       5.893   0.496  -0.248  0.00  0.00     0.065 A 
HETATM   11  C   UNK N   1       5.644  -0.900  -0.148  0.00  0.00     0.068 A 
HETATM   12  C   UNK N   1       7.164   2.527  -0.421  0.00  0.00     0.002 A 
HETATM   13  C   UNK N   1       8.497   3.215  -0.634  0.00  0.00     0.173 A 
HETATM   14  C   UNK N   1       6.000   3.252  -0.068  0.00  0.00     0.044 A 
HETATM   15  C   UNK N   1       7.093   1.127  -0.532  0.00  0.00     0.043 A 
HETATM   16  C   UNK N   1       4.799   2.554   0.189  0.00  0.00     0.257 A 
HETATM   17  C   UNK N   1       4.784  -3.433   0.466  0.00  0.00    -0.003 A 
HETATM   18  C   UNK N   1       6.025   4.745   0.082  0.00  0.00     0.224 A 
HETATM   19  C   UNK N   1       6.096  -3.197  -0.045  0.00  0.00     0.043 A 
HETATM   20  C   UNK N   1       8.418   4.708  -0.415  0.00  0.00     0.298 A 
HETATM   21  C   UNK N   1       4.407  -4.740   0.803  0.00  0.00     0.014 A 
HETATM   22  C   UNK N   1       6.983  -4.263  -0.207  0.00  0.00     0.030 A 
HETATM   23  C   UNK N   1       5.306  -5.797   0.636  0.00  0.00     0.001 A 
HETATM   24  C   UNK N   1       6.588  -5.560   0.131  0.00  0.00     0.002 A 
ENDROOT
BRANCH   9  25
HETATM   25  C   UNK N   1       2.545  -2.531   1.262  0.00  0.00     0.040 C 
BRANCH  25  26
HETATM   26  C   UNK N   1       1.405  -2.080   0.363  0.00  0.00     0.005 C 
BRANCH  26  27
HETATM   27 Si   UNK N   1       0.951  -3.343  -0.948  0.00  0.00     0.000 Si
HETATM   28  C   UNK N   1      -0.486  -4.125  -1.845  0.00  0.00     0.000 C 
HETATM   29  C   UNK N   1       0.603  -4.632   0.363  0.00  0.00     0.000 C 
HETATM   30  C   UNK N   1       0.077  -1.839  -1.629  0.00  0.00     0.000 C 
ENDBRANCH  26  27
ENDBRANCH  25  26
ENDBRANCH   9  25
BRANCH  13  31
HETATM   31  O   UNK N   1       8.929   2.989  -1.945  0.00  0.00    -0.375 OA
HETATM   32  H   UNK N   1       8.943   2.651  -2.854  0.00  0.00     0.211 HD
ENDBRANCH  13  31
BRANCH  13  33
HETATM   33  C   UNK N   1       9.549   2.675   0.355  0.00  0.00     0.049 C 
HETATM   34  C   UNK N   1       9.995   1.246   0.072  0.00  0.00     0.009 C 
ENDBRANCH  13  33
TORSDOF 5
