REMARK  4 active torsions:
REMARK  status: ('A' for Active; 'I' for Inactive)
REMARK    1  A    between atoms: N_5  and  C_10 
REMARK       I    between atoms: N_6  and  C_14 
REMARK    2  A    between atoms: C_7  and  C_13 
REMARK    3  A    between atoms: C_10  and  C_12 
REMARK    4  A    between atoms: C_10  and  C_14 
ROOT
HETATM    1  O   UNK N   1       5.320   0.026   0.635  0.00  0.00    -0.273 OA
HETATM    2  N   UNK N   1       3.222  -0.547   0.046  0.00  0.00    -0.338 N 
HETATM    3  C   UNK N   1       2.520   1.490  -0.939  0.00  0.00     0.040 C 
HETATM    4  C   UNK N   1       2.099   0.029  -0.653  0.00  0.00     0.136 C 
HETATM    5  C   UNK N   1       4.008   1.595  -0.554  0.00  0.00     0.113 C 
HETATM    6  C   UNK N   1       4.255   0.303   0.099  0.00  0.00     0.221 C 
ENDROOT
BRANCH   2   7
HETATM    7  C   UNK N   1       3.213  -1.871   0.678  0.00  0.00     0.178 C 
BRANCH   7   8
HETATM    8  C   UNK N   1       4.495  -2.680   0.406  0.00  0.00     0.030 C 
HETATM    9  C   UNK N   1       4.732  -2.956  -1.068  0.00  0.00     0.007 C 
ENDBRANCH   7   8
BRANCH   7  10
HETATM   10  C   UNK N   1       1.943  -2.662   0.420  0.00  0.00     0.238 C 
HETATM   11  O   UNK N   1       0.864  -2.205   0.762  0.00  0.00    -0.271 OA
HETATM   12  N   UNK N   1       1.990  -3.882  -0.156  0.00  0.00    -0.368 N 
HETATM   13  H   UNK N   1       1.236  -4.356  -0.576  0.00  0.00     0.159 HD
HETATM   14  H   UNK N   1       2.860  -4.341  -0.156  0.00  0.00     0.159 HD
ENDBRANCH   7  10
ENDBRANCH   2   7
BRANCH   3  15
HETATM   15  C   UNK N   1       1.670   2.408  -0.096  0.00  0.00     0.054 C 
HETATM   16  C   UNK N   1       1.953   3.702   0.114  0.00  0.00     0.263 C 
HETATM   17  F   UNK N   1       1.113   4.459   0.866  0.00  0.00    -0.173 F 
HETATM   18  F   UNK N   1       3.088   4.264  -0.382  0.00  0.00    -0.173 F 
ENDBRANCH   3  15
TORSDOF 4
