REMARK  23 active torsions:
REMARK  status: ('A' for Active; 'I' for Inactive)
REMARK    1  A    between atoms: O_4  and  C_35 
REMARK    2  A    between atoms: O_5  and  C_42 
REMARK    3  A    between atoms: O_7  and  C_41 
REMARK    4  A    between atoms: O_10  and  C_47 
REMARK    5  A    between atoms: C_19  and  N_11 
REMARK       I    between atoms: N_11  and  C_24 
REMARK       I    between atoms: N_12  and  C_22 
REMARK    6  A    between atoms: N_12  and  C_26 
REMARK    7  A    between atoms: C_23  and  N_13 
REMARK       I    between atoms: N_14  and  C_28 
REMARK    8  A    between atoms: C_29  and  N_14 
REMARK    9  A    between atoms: C_30  and  N_15 
REMARK       I    between atoms: N_15  and  C_40 
REMARK       I    between atoms: N_16  and  C_34 
REMARK   10  A    between atoms: N_16  and  C_39 
REMARK   11  A    between atoms: C_17  and  C_18 
REMARK   12  A    between atoms: C_17  and  C_19 
REMARK   13  A    between atoms: C_19  and  C_22 
REMARK   14  A    between atoms: C_23  and  C_24 
REMARK   15  A    between atoms: C_23  and  C_25 
REMARK   16  A    between atoms: C_25  and  C_27 
REMARK   17  A    between atoms: C_26  and  C_28 
REMARK   18  A    between atoms: C_29  and  C_34 
REMARK   19  A    between atoms: C_29  and  C_35 
REMARK   20  A    between atoms: C_30  and  C_33 
REMARK   21  A    between atoms: C_30  and  C_42 
REMARK   22  A    between atoms: C_33  and  C_36 
REMARK   23  A    between atoms: C_39  and  C_40 
ROOT
HETATM    1  O   UNK N   1       7.482  -0.590  -1.287  0.00  0.00    -0.272 OA
HETATM    2  N   UNK N   1       5.479  -1.346  -0.725  0.00  0.00    -0.344 N 
HETATM    3  C   UNK N   1       6.678  -0.823  -0.396  0.00  0.00     0.236 C 
HETATM    4  H   UNK N   1       5.298  -1.548  -1.671  0.00  0.00     0.163 HD
ENDROOT
BRANCH   2   5
HETATM    5  C   UNK N   1       4.452  -1.624   0.245  0.00  0.00     0.200 C 
BRANCH   5   6
HETATM    6  C   UNK N   1       3.113  -0.967   0.039  0.00  0.00     0.242 C 
HETATM    7  O   UNK N   1       2.717  -0.175   0.878  0.00  0.00    -0.271 OA
HETATM    8  N   UNK N   1       2.319  -1.248  -1.040  0.00  0.00    -0.350 N 
HETATM    9  H   UNK N   1       1.459  -0.774  -1.106  0.00  0.00     0.163 HD
BRANCH   8  10
HETATM   10  C   UNK N   1       2.645  -2.196  -2.100  0.00  0.00     0.225 C 
BRANCH  10  11
HETATM   11  C   UNK N   1       3.143  -3.462  -1.496  0.00  0.00     0.236 C 
HETATM   12  O   UNK N   1       4.290  -3.812  -1.721  0.00  0.00    -0.272 OA
HETATM   13  N   UNK N   1       2.401  -4.037  -0.516  0.00  0.00    -0.346 N 
HETATM   14  H   UNK N   1       1.424  -3.934  -0.571  0.00  0.00     0.163 HD
BRANCH  13  15
HETATM   15  C   UNK N   1       2.928  -4.793   0.606  0.00  0.00     0.188 C 
BRANCH  15  16
HETATM   16  C   UNK N   1       1.814  -5.435   1.426  0.00  0.00     0.074 C 
BRANCH  16  17
HETATM   17  C   UNK N   1       1.460  -6.737   0.806  0.00  0.00    -0.056 A 
HETATM   18  C   UNK N   1       1.916  -7.913   1.407  0.00  0.00     0.010 A 
HETATM   19  C   UNK N   1       1.746  -9.136   0.760  0.00  0.00     0.037 A 
HETATM   20  C   UNK N   1       1.127  -9.182  -0.492  0.00  0.00     0.065 A 
HETATM   21  C   UNK N   1       0.658  -8.007  -1.089  0.00  0.00     0.037 A 
HETATM   22  C   UNK N   1       0.833  -6.782  -0.444  0.00  0.00     0.010 A 
BRANCH  20  23
HETATM   23  O   UNK N   1       0.989 -10.356  -1.126  0.00  0.00    -0.361 OA
HETATM   24  H   UNK N   1       0.230 -10.683  -1.568  0.00  0.00     0.217 HD
ENDBRANCH  20  23
ENDBRANCH  16  17
ENDBRANCH  15  16
BRANCH  15  25
HETATM   25  C   UNK N   1       4.118  -5.698   0.397  0.00  0.00     0.281 C 
HETATM   26  O   UNK N   1       4.354  -6.188  -0.698  0.00  0.00    -0.263 OA
BRANCH  25  27
HETATM   27  O   UNK N   1       4.887  -6.001   1.472  0.00  0.00    -0.325 OA
HETATM   28  C   UNK N   1       6.002  -6.798   1.387  0.00  0.00     0.213 C 
ENDBRANCH  25  27
ENDBRANCH  15  25
ENDBRANCH  13  15
ENDBRANCH  10  11
ENDBRANCH   8  10
ENDBRANCH   5   6
BRANCH   5  29
HETATM   29  C   UNK N   1       4.795  -2.469   1.471  0.00  0.00     0.199 C 
BRANCH  29  30
HETATM   30  O   UNK N   1       5.872  -3.316   1.192  0.00  0.00    -0.398 OA
HETATM   31  H   UNK N   1       5.737  -4.257   0.999  0.00  0.00     0.209 HD
ENDBRANCH  29  30
ENDBRANCH   5  29
ENDBRANCH   2   5
BRANCH   3  32
HETATM   32  C   UNK N   1       7.041  -0.511   1.042  0.00  0.00     0.225 C 
BRANCH  32  33
HETATM   33  N   UNK N   1       8.020   0.537   1.019  0.00  0.00    -0.351 N 
HETATM   34  C   UNK N   1       7.650   1.797   0.702  0.00  0.00     0.240 C 
HETATM   35  O   UNK N   1       6.472   2.115   0.693  0.00  0.00    -0.271 OA
HETATM   36  H   UNK N   1       8.960   0.338   1.233  0.00  0.00     0.163 HD
BRANCH  34  37
HETATM   37  C   UNK N   1       8.692   2.695   0.124  0.00  0.00     0.177 C 
BRANCH  37  38
HETATM   38  N   UNK N   1       8.172   3.864  -0.544  0.00  0.00    -0.346 N 
HETATM   39  C   UNK N   1       7.452   4.826   0.069  0.00  0.00     0.240 C 
HETATM   40  O   UNK N   1       7.178   4.749   1.261  0.00  0.00    -0.271 OA
HETATM   41  H   UNK N   1       8.353   3.966  -1.507  0.00  0.00     0.163 HD
BRANCH  39  42
HETATM   42  C   UNK N   1       7.007   5.996  -0.725  0.00  0.00     0.171 C 
BRANCH  42  43
HETATM   43  N   UNK N   1       7.596   7.194  -0.138  0.00  0.00    -0.418 N 
HETATM   44  H   UNK N   1       8.527   7.257   0.273  0.00  0.00     0.150 HD
HETATM   45  H   UNK N   1       7.027   8.041  -0.138  0.00  0.00     0.150 HD
ENDBRANCH  42  43
BRANCH  42  46
HETATM   46  C   UNK N   1       5.470   6.028  -0.787  0.00  0.00     0.072 C 
BRANCH  46  47
HETATM   47  C   UNK N   1       4.918   7.386  -0.532  0.00  0.00    -0.056 A 
HETATM   48  C   UNK N   1       5.218   8.447  -1.395  0.00  0.00     0.010 A 
HETATM   49  C   UNK N   1       4.822   9.744  -1.063  0.00  0.00     0.037 A 
HETATM   50  C   UNK N   1       4.131   9.978   0.130  0.00  0.00     0.065 A 
HETATM   51  C   UNK N   1       3.810   8.913   0.976  0.00  0.00     0.037 A 
HETATM   52  C   UNK N   1       4.208   7.617   0.647  0.00  0.00     0.010 A 
BRANCH  50  53
HETATM   53  O   UNK N   1       3.783  11.228   0.467  0.00  0.00    -0.361 OA
HETATM   54  H   UNK N   1       4.419  11.876   0.703  0.00  0.00     0.217 HD
ENDBRANCH  50  53
ENDBRANCH  46  47
ENDBRANCH  42  46
ENDBRANCH  39  42
ENDBRANCH  37  38
BRANCH  37  55
HETATM   55  C   UNK N   1       9.909   2.985   0.972  0.00  0.00     0.038 C 
BRANCH  55  56
HETATM   56  C   UNK N   1      11.115   2.791   0.066  0.00  0.00    -0.020 C 
HETATM   57  C   UNK N   1      11.457   1.314  -0.040  0.00  0.00     0.009 C 
HETATM   58  C   UNK N   1      12.307   3.560   0.583  0.00  0.00     0.009 C 
ENDBRANCH  55  56
ENDBRANCH  37  55
ENDBRANCH  34  37
ENDBRANCH  32  33
ENDBRANCH   3  32
TORSDOF 23
