REMARK  3 active torsions:
REMARK  status: ('A' for Active; 'I' for Inactive)
REMARK    1  A    between atoms: S_1  and  O_3 
REMARK    2  A    between atoms: S_1  and  O_4 
REMARK    3  A    between atoms: C_25  and  O_3 
ROOT
HETATM    1  O   UNK N   1      11.097   2.979  -0.261  0.00  0.00    -0.297 OA
HETATM    2  C   UNK N   1       6.886  -0.020   0.441  0.00  0.00     0.003 C 
HETATM    3  C   UNK N   1       8.051  -0.778  -0.248  0.00  0.00    -0.001 C 
HETATM    4  C   UNK N   1       9.345  -0.005   0.062  0.00  0.00     0.006 C 
HETATM    5  C   UNK N   1       9.293   1.431  -0.465  0.00  0.00     0.021 C 
HETATM    6  C   UNK N   1       5.530  -0.722   0.181  0.00  0.00    -0.017 C 
HETATM    7  C   UNK N   1       6.850   1.480   0.048  0.00  0.00     0.007 C 
HETATM    8  C   UNK N   1       8.200   2.174   0.302  0.00  0.00     0.018 C 
HETATM    9  C   UNK N   1      10.693  -0.532  -0.409  0.00  0.00     0.013 C 
HETATM   10  C   UNK N   1       8.135  -2.195   0.335  0.00  0.00     0.033 C 
HETATM   11  C   UNK N   1       5.617  -2.227   0.435  0.00  0.00    -0.072 C 
HETATM   12  C   UNK N   1       4.488  -0.064   1.111  0.00  0.00     0.016 C 
HETATM   13  C   UNK N   1      10.701   1.825  -0.210  0.00  0.00     0.135 C 
HETATM   14  C   UNK N   1      11.628   0.655  -0.110  0.00  0.00     0.079 C 
HETATM   15  C   UNK N   1       6.796  -2.871   0.504  0.00  0.00    -0.023 C 
HETATM   16  C   UNK N   1       9.048   1.535  -1.973  0.00  0.00     0.024 C 
HETATM   17  C   UNK N   1       5.096  -0.525  -1.271  0.00  0.00     0.020 C 
HETATM   18  C   UNK N   1       4.356  -3.041   0.616  0.00  0.00     0.068 C 
HETATM   19  C   UNK N   1       3.358  -0.971   1.617  0.00  0.00     0.035 C 
HETATM   20  C   UNK N   1       3.093  -2.180   0.719  0.00  0.00     0.148 C 
ENDROOT
BRANCH  20  21
HETATM   21  O   UNK N   1       2.656  -1.778  -0.548  0.00  0.00    -0.258 OA
BRANCH  21  22
HETATM   22  S   UNK N   1       0.953  -1.551  -0.424  0.00  0.00     0.240 S 
HETATM   23  O   UNK N   1       0.230  -2.906  -0.406  0.00  0.00    -0.579 OA
HETATM   24  O   UNK N   1       0.472  -0.886  -1.721  0.00  0.00    -0.579 OA
BRANCH  22  25
HETATM   25  O   UNK N   1       0.421  -0.579   0.889  0.00  0.00    -0.274 OA
HETATM   26  H   UNK N   1       0.746  -0.044   1.631  0.00  0.00     0.234 HD
ENDBRANCH  22  25
ENDBRANCH  21  22
ENDBRANCH  20  21
TORSDOF 3
