REMARK  7 active torsions:
REMARK  status: ('A' for Active; 'I' for Inactive)
REMARK    1  A    between atoms: C_2  and  C_3 
REMARK    2  A    between atoms: C_3  and  C_4 
REMARK    3  A    between atoms: C_4  and  O_6 
REMARK    4  A    between atoms: O_6  and  C_7 
REMARK    5  A    between atoms: C_7  and  O_8 
REMARK    6  A    between atoms: O_8  and  C_9 
REMARK    7  A    between atoms: C_9  and  C_11 
ROOT
HETATM    1  C   UNK N   1       5.254   2.352   0.493  0.00  0.00     0.358 C 
ENDROOT
BRANCH   1   2
HETATM    2  O   UNK N   1       3.936   2.201   0.068  0.00  0.00    -0.295 OA
BRANCH   2   3
HETATM    3  C   UNK N   1       3.317   1.034  -0.295  0.00  0.00     0.260 C 
HETATM    4  O   UNK N   1       3.908  -0.032  -0.287  0.00  0.00    -0.265 OA
BRANCH   3   5
HETATM    5  C   UNK N   1       1.884   1.052  -0.719  0.00  0.00     0.111 C 
BRANCH   5   6
HETATM    6  C   UNK N   1       0.976   1.442   0.434  0.00  0.00     0.005 C 
HETATM    7  C   UNK N   1       0.827   2.949   0.494  0.00  0.00     0.005 C 
ENDBRANCH   5   6
ENDBRANCH   3   5
ENDBRANCH   2   3
ENDBRANCH   1   2
BRANCH   1   8
HETATM    8  O   UNK N   1       5.969   1.184   0.376  0.00  0.00    -0.294 OA
BRANCH   8   9
HETATM    9  C   UNK N   1       7.220   1.059  -0.145  0.00  0.00     0.268 C 
HETATM   10  O   UNK N   1       7.476   0.053  -0.778  0.00  0.00    -0.264 OA
BRANCH   9  11
HETATM   11  C   UNK N   1       8.330   2.078   0.079  0.00  0.00     0.037 C 
HETATM   12  C   UNK N   1       8.790   2.633  -1.256  0.00  0.00     0.025 C 
HETATM   13  C   UNK N   1       9.505   1.370   0.734  0.00  0.00     0.025 C 
HETATM   14  C   UNK N   1       7.949   3.239   0.978  0.00  0.00     0.025 C 
ENDBRANCH   9  11
ENDBRANCH   8   9
ENDBRANCH   1   8
TORSDOF 7
