REMARK WARNING: 32 MAX_TORS EXCEEDED!!!
REMARK  41 active torsions:
REMARK  status: ('A' for Active; 'I' for Inactive)
REMARK    1  A    between atoms: P_1  and  O_2 
REMARK    2  A    between atoms: P_1  and  O_4 
REMARK    3  A    between atoms: O_2  and  C_27 
REMARK    4  A    between atoms: O_3  and  C_38 
REMARK    5  A    between atoms: O_3  and  C_40 
REMARK    6  A    between atoms: O_4  and  C_46 
REMARK    7  A    between atoms: O_5  and  C_47 
REMARK    8  A    between atoms: O_5  and  C_51 
REMARK    9  A    between atoms: N_10  and  C_21 
REMARK   10  A    between atoms: C_11  and  C_12 
REMARK   11  A    between atoms: C_11  and  C_13 
REMARK   12  A    between atoms: C_12  and  C_14 
REMARK   13  A    between atoms: C_13  and  C_15 
REMARK   14  A    between atoms: C_14  and  C_16 
REMARK   15  A    between atoms: C_15  and  C_17 
REMARK   16  A    between atoms: C_16  and  C_18 
REMARK   17  A    between atoms: C_17  and  C_19 
REMARK   18  A    between atoms: C_18  and  C_20 
REMARK   19  A    between atoms: C_19  and  C_22 
REMARK   20  A    between atoms: C_20  and  C_23 
REMARK   21  A    between atoms: C_21  and  C_27 
REMARK   22  A    between atoms: C_22  and  C_28 
REMARK   23  A    between atoms: C_23  and  C_29 
REMARK   24  A    between atoms: C_28  and  C_38 
REMARK   25  A    between atoms: C_30  and  C_31 
REMARK   26  A    between atoms: C_30  and  C_32 
REMARK   27  A    between atoms: C_31  and  C_35 
REMARK   28  A    between atoms: C_32  and  C_39 
REMARK   29  A    between atoms: C_33  and  C_34 
REMARK   30  A    between atoms: C_33  and  C_36 
REMARK   31  A    between atoms: C_34  and  C_37 
REMARK   32  A    between atoms: C_35  and  C_42 
REMARK   33  A    between atoms: C_36  and  C_43 
REMARK   34  A    between atoms: C_37  and  C_44 
REMARK   35  A    between atoms: C_39  and  C_45 
REMARK   36  A    between atoms: C_40  and  C_46 
REMARK   37  A    between atoms: C_40  and  C_47 
REMARK   38  A    between atoms: C_42  and  C_48 
REMARK   39  A    between atoms: C_43  and  C_49 
REMARK   40  A    between atoms: C_44  and  C_50 
REMARK   41  A    between atoms: C_45  and  C_51 
ROOT
HETATM    1  C   UNK N   1       7.089  -3.433   0.077  0.00  0.00     0.180 C 
ENDROOT
BRANCH   1   2
HETATM    2  O   UNK N   1       8.227  -4.130   0.452  0.00  0.00    -0.312 OA
BRANCH   2   3
HETATM    3  C   UNK N   1       9.030  -4.793  -0.422  0.00  0.00     0.259 C 
HETATM    4  O   UNK N   1       9.149  -4.410  -1.578  0.00  0.00    -0.265 OA
BRANCH   3   5
HETATM    5  C   UNK N   1       9.622  -6.103  -0.007  0.00  0.00     0.111 C 
BRANCH   5   6
HETATM    6  C   UNK N   1      11.093  -6.227  -0.361  0.00  0.00     0.010 C 
BRANCH   6   7
HETATM    7  C   UNK N   1      11.986  -5.748   0.773  0.00  0.00     0.000 C 
BRANCH   7   8
HETATM    8  C   UNK N   1      11.900  -4.244   0.971  0.00  0.00     0.000 C 
BRANCH   8   9
HETATM    9  C   UNK N   1      12.279  -3.516  -0.308  0.00  0.00     0.000 C 
BRANCH   9  10
HETATM   10  C   UNK N   1      12.460  -2.038  -0.034  0.00  0.00     0.000 C 
BRANCH  10  11
HETATM   11  C   UNK N   1      13.769  -1.782   0.688  0.00  0.00     0.000 C 
BRANCH  11  12
HETATM   12  C   UNK N   1      14.931  -1.969  -0.265  0.00  0.00     0.000 C 
BRANCH  12  13
HETATM   13  C   UNK N   1      15.717  -3.208   0.109  0.00  0.00     0.000 C 
BRANCH  13  14
HETATM   14  C   UNK N   1      17.049  -3.137  -0.599  0.00  0.00     0.000 C 
BRANCH  14  15
HETATM   15  C   UNK N   1      18.046  -4.080   0.035  0.00  0.00     0.000 C 
BRANCH  15  16
HETATM   16  C   UNK N   1      19.382  -3.370   0.062  0.00  0.00     0.000 C 
BRANCH  16  17
HETATM   17  C   UNK N   1      20.519  -4.363   0.131  0.00  0.00    -0.000 C 
BRANCH  17  18
HETATM   18  C   UNK N   1      21.823  -3.596   0.055  0.00  0.00    -0.005 C 
HETATM   19  C   UNK N   1      22.985  -4.561  -0.010  0.00  0.00     0.005 C 
ENDBRANCH  17  18
ENDBRANCH  16  17
ENDBRANCH  15  16
ENDBRANCH  14  15
ENDBRANCH  13  14
ENDBRANCH  12  13
ENDBRANCH  11  12
ENDBRANCH  10  11
ENDBRANCH   9  10
ENDBRANCH   8   9
ENDBRANCH   7   8
ENDBRANCH   6   7
ENDBRANCH   5   6
ENDBRANCH   3   5
ENDBRANCH   2   3
ENDBRANCH   1   2
BRANCH   1  20
HETATM   20  C   UNK N   1       6.120  -4.386  -0.583  0.00  0.00     0.216 C 
BRANCH  20  21
HETATM   21  O   UNK N   1       5.509  -5.205   0.361  0.00  0.00    -0.287 OA
BRANCH  21  22
HETATM   22  P   UNK N   1       3.908  -5.393  -0.277  0.00  0.00     0.408 P 
HETATM   23  O   UNK N   1       3.420  -3.975  -1.160  0.00  0.00    -0.624 OA
HETATM   24  O   UNK N   1       3.966  -6.548  -1.311  0.00  0.00    -0.624 OA
BRANCH  22  25
HETATM   25  O   UNK N   1       2.750  -5.854   0.943  0.00  0.00    -0.288 OA
BRANCH  25  26
HETATM   26  C   UNK N   1       1.930  -4.739   1.129  0.00  0.00     0.209 C 
BRANCH  26  27
HETATM   27  C   UNK N   1       0.730  -4.816   0.180  0.00  0.00     0.262 C 
BRANCH  27  28
HETATM   28  N   UNK N   1       0.063  -3.527  -0.015  0.00  0.00    -0.077 N 
HETATM   29  C   UNK N   1      -0.522  -3.049   1.227  0.00  0.00     0.271 C 
HETATM   30  C   UNK N   1      -1.002  -3.714  -0.982  0.00  0.00     0.271 C 
HETATM   31  C   UNK N   1       0.973  -2.521  -0.541  0.00  0.00     0.271 C 
ENDBRANCH  27  28
ENDBRANCH  26  27
ENDBRANCH  25  26
ENDBRANCH  22  25
ENDBRANCH  21  22
ENDBRANCH  20  21
ENDBRANCH   1  20
BRANCH   1  32
HETATM   32  C   UNK N   1       7.375  -2.295  -0.891  0.00  0.00     0.213 C 
BRANCH  32  33
HETATM   33  O   UNK N   1       6.706  -1.154  -0.508  0.00  0.00    -0.319 OA
BRANCH  33  34
HETATM   34  C   UNK N   1       7.145  -0.342   0.491  0.00  0.00     0.258 C 
HETATM   35  O   UNK N   1       6.548   0.689   0.731  0.00  0.00    -0.265 OA
BRANCH  34  36
HETATM   36  C   UNK N   1       8.364  -0.687   1.309  0.00  0.00     0.111 C 
BRANCH  36  37
HETATM   37  C   UNK N   1       9.601  -0.886   0.439  0.00  0.00     0.010 C 
BRANCH  37  38
HETATM   38  C   UNK N   1       9.956   0.369  -0.332  0.00  0.00     0.000 C 
BRANCH  38  39
HETATM   39  C   UNK N   1      10.589   1.374   0.605  0.00  0.00     0.000 C 
BRANCH  39  40
HETATM   40  C   UNK N   1      10.621   2.728  -0.063  0.00  0.00     0.000 C 
BRANCH  40  41
HETATM   41  C   UNK N   1       9.293   3.438   0.121  0.00  0.00     0.004 C 
BRANCH  41  42
HETATM   42  C   UNK N   1       9.260   4.693  -0.733  0.00  0.00     0.027 C 
BRANCH  42  43
HETATM   43  C   UNK N   1       9.801   5.883   0.005  0.00  0.00    -0.031 C 
HETATM   44  C   UNK N   1      11.106   6.177   0.090  0.00  0.00    -0.031 C 
BRANCH  44  45
HETATM   45  C   UNK N   1      12.182   5.338  -0.523  0.00  0.00     0.027 C 
BRANCH  45  46
HETATM   46  C   UNK N   1      13.137   4.900   0.572  0.00  0.00     0.004 C 
BRANCH  46  47
HETATM   47  C   UNK N   1      14.146   3.900   0.041  0.00  0.00     0.000 C 
BRANCH  47  48
HETATM   48  C   UNK N   1      15.524   4.530   0.034  0.00  0.00     0.000 C 
BRANCH  48  49
HETATM   49  C   UNK N   1      16.585   3.455  -0.076  0.00  0.00     0.000 C 
BRANCH  49  50
HETATM   50  C   UNK N   1      17.952   4.107  -0.042  0.00  0.00    -0.000 C 
BRANCH  50  51
HETATM   51  C   UNK N   1      19.032   3.046  -0.019  0.00  0.00    -0.005 C 
HETATM   52  C   UNK N   1      20.390   3.715   0.004  0.00  0.00     0.005 C 
ENDBRANCH  50  51
ENDBRANCH  49  50
ENDBRANCH  48  49
ENDBRANCH  47  48
ENDBRANCH  46  47
ENDBRANCH  45  46
ENDBRANCH  44  45
ENDBRANCH  42  43
ENDBRANCH  41  42
ENDBRANCH  40  41
ENDBRANCH  39  40
ENDBRANCH  38  39
ENDBRANCH  37  38
ENDBRANCH  36  37
ENDBRANCH  34  36
ENDBRANCH  33  34
ENDBRANCH  32  33
ENDBRANCH   1  32
TORSDOF 41
