REMARK  7 active torsions:
REMARK  status: ('A' for Active; 'I' for Inactive)
REMARK    1  A    between atoms: C_12  and  O_1 
REMARK    2  A    between atoms: C_4  and  C_9 
REMARK    3  A    between atoms: C_5  and  C_10 
REMARK    4  A    between atoms: C_9  and  C_12 
REMARK    5  A    between atoms: C_10  and  C_13 
REMARK    6  A    between atoms: C_12  and  C_14 
REMARK    7  A    between atoms: C_13  and  C_15 
ROOT
HETATM    1  N   UNK N   1       5.819  -0.202  -0.751  0.00  0.00     0.094 N 
HETATM    2  C   UNK N   1       4.799   0.607  -0.057  0.00  0.00     0.226 C 
HETATM    3  C   UNK N   1       7.187   0.339  -0.688  0.00  0.00     0.230 C 
HETATM    4  C   UNK N   1       5.283   2.023   0.305  0.00  0.00     0.036 C 
HETATM    5  C   UNK N   1       7.203   1.728  -1.344  0.00  0.00     0.036 C 
HETATM    6  C   UNK N   1       6.068   2.641  -0.851  0.00  0.00     0.004 C 
HETATM    7  C   UNK N   1       5.781  -1.566  -0.240  0.00  0.00     0.310 C 
ENDROOT
BRANCH   2   8
HETATM    8  C   UNK N   1       3.558   0.709  -0.931  0.00  0.00     0.072 C 
BRANCH   8   9
HETATM    9  C   UNK N   1       2.369   1.107  -0.075  0.00  0.00     0.153 C 
BRANCH   9  10
HETATM   10  O   UNK N   1       1.715   2.193  -0.664  0.00  0.00    -0.391 OA
HETATM   11  H   UNK N   1       2.141   2.963  -1.073  0.00  0.00     0.210 HD
ENDBRANCH   9  10
BRANCH   9  12
HETATM   12  C   UNK N   1       1.444  -0.062   0.116  0.00  0.00    -0.030 A 
HETATM   13  C   UNK N   1       1.935  -1.250   0.678  0.00  0.00     0.010 A 
HETATM   14  C   UNK N   1       1.089  -2.348   0.857  0.00  0.00     0.001 A 
HETATM   15  C   UNK N   1      -0.255  -2.262   0.484  0.00  0.00     0.000 A 
HETATM   16  C   UNK N   1      -0.754  -1.080  -0.069  0.00  0.00     0.001 A 
HETATM   17  C   UNK N   1       0.093   0.016  -0.255  0.00  0.00     0.010 A 
ENDBRANCH   9  12
ENDBRANCH   8   9
ENDBRANCH   2   8
BRANCH   3  18
HETATM   18  C   UNK N   1       7.741   0.409   0.746  0.00  0.00     0.119 C 
BRANCH  18  19
HETATM   19  C   UNK N   1       9.192   0.781   0.724  0.00  0.00     0.161 C 
HETATM   20  O   UNK N   1       9.509   1.941   0.944  0.00  0.00    -0.292 OA
BRANCH  19  21
HETATM   21  C   UNK N   1      10.228  -0.228   0.423  0.00  0.00     0.010 A 
HETATM   22  C   UNK N   1       9.881  -1.578   0.262  0.00  0.00     0.015 A 
HETATM   23  C   UNK N   1      10.864  -2.531  -0.015  0.00  0.00     0.001 A 
HETATM   24  C   UNK N   1      12.199  -2.141  -0.141  0.00  0.00     0.000 A 
HETATM   25  C   UNK N   1      12.553  -0.798   0.014  0.00  0.00     0.001 A 
HETATM   26  C   UNK N   1      11.572   0.155   0.299  0.00  0.00     0.015 A 
ENDBRANCH  19  21
ENDBRANCH  18  19
ENDBRANCH   3  18
TORSDOF 7
