REMARK  10 active torsions:
REMARK  status: ('A' for Active; 'I' for Inactive)
REMARK    1  A    between atoms: C_16  and  O_1 
REMARK    2  A    between atoms: C_20  and  O_1 
REMARK    3  A    between atoms: C_15  and  O_4 
REMARK    4  A    between atoms: C_18  and  O_5 
REMARK    5  A    between atoms: O_5  and  C_28 
REMARK    6  A    between atoms: C_17  and  O_6 
REMARK    7  A    between atoms: C_22  and  O_7 
REMARK    8  A    between atoms: C_23  and  O_8 
REMARK    9  A    between atoms: O_11  and  C_36 
REMARK   10  A    between atoms: C_21  and  N_14 
ROOT
HETATM    1  O   UNK N   1       5.176   3.419   0.034  0.00  0.00    -0.351 OA
HETATM    2  C   UNK N   1       2.821   1.829  -0.296  0.00  0.00     0.113 C 
HETATM    3  C   UNK N   1       4.214   1.192   0.006  0.00  0.00     0.216 C 
HETATM    4  C   UNK N   1       2.982   3.266  -0.822  0.00  0.00     0.183 C 
HETATM    5  C   UNK N   1       5.079   2.226   0.773  0.00  0.00     0.298 C 
HETATM    6  C   UNK N   1       3.921   4.036   0.101  0.00  0.00     0.152 C 
HETATM    7  C   UNK N   1       2.094   1.059  -1.384  0.00  0.00     0.051 C 
HETATM    8  C   UNK N   1       4.058   5.480  -0.343  0.00  0.00     0.042 C 
ENDROOT
BRANCH   5   9
HETATM    9  O   UNK N   1       6.326   1.664   1.023  0.00  0.00    -0.317 OA
BRANCH   9  10
HETATM   10  C   UNK N   1       7.559   2.183   0.771  0.00  0.00     0.086 A 
HETATM   11  C   UNK N   1       8.654   1.309   0.540  0.00  0.00     0.045 A 
HETATM   12  C   UNK N   1       9.926   1.858   0.222  0.00  0.00     0.014 A 
HETATM   13  C   UNK N   1       8.505  -0.097   0.589  0.00  0.00     0.105 A 
HETATM   14  C   UNK N   1      11.017   1.018  -0.066  0.00  0.00     0.094 A 
HETATM   15  C   UNK N   1      10.091   3.249   0.178  0.00  0.00     0.015 A 
HETATM   16  C   UNK N   1      10.854  -0.386  -0.047  0.00  0.00     0.087 A 
HETATM   17  C   UNK N   1       9.599  -0.925   0.286  0.00  0.00     0.032 A 
HETATM   18  C   UNK N   1      11.904  -1.290  -0.353  0.00  0.00     0.302 A 
HETATM   19  C   UNK N   1       9.422  -2.310   0.307  0.00  0.00     0.029 A 
HETATM   20  C   UNK N   1       8.172  -2.862   0.650  0.00  0.00     0.059 A 
HETATM   21  C   UNK N   1      10.510  -3.137  -0.018  0.00  0.00     0.091 A 
HETATM   22  C   UNK N   1       7.131  -1.961   0.977  0.00  0.00     0.300 A 
HETATM   23  C   UNK N   1       8.026  -4.276   0.652  0.00  0.00    -0.045 A 
HETATM   24  O   UNK N   1       7.336  -0.647   0.921  0.00  0.00    -0.273 OA
HETATM   25  O   UNK N   1       6.035  -2.368   1.318  0.00  0.00    -0.259 OA
HETATM   26  C   UNK N   1       9.117  -5.085   0.315  0.00  0.00     0.011 A 
HETATM   27  C   UNK N   1       6.739  -4.957   0.988  0.00  0.00     0.049 C 
HETATM   28  C   UNK N   1      10.351  -4.522  -0.014  0.00  0.00     0.039 A 
HETATM   29  O   UNK N   1      11.688  -2.606  -0.329  0.00  0.00    -0.274 OA
HETATM   30  O   UNK N   1      13.013  -0.882  -0.648  0.00  0.00    -0.259 OA
HETATM   31  C   UNK N   1       9.020   4.099   0.432  0.00  0.00     0.004 A 
HETATM   32  C   UNK N   1       7.763   3.572   0.717  0.00  0.00     0.038 A 
BRANCH  14  33
HETATM   33  O   UNK N   1      12.211   1.565  -0.373  0.00  0.00    -0.359 OA
HETATM   34  H   UNK N   1      12.955   1.037  -0.586  0.00  0.00     0.217 HD
ENDBRANCH  14  33
ENDBRANCH   9  10
ENDBRANCH   5   9
BRANCH   3  35
HETATM   35  O   UNK N   1       4.193   0.032   0.827  0.00  0.00    -0.346 OA
BRANCH  35  36
HETATM   36  C   UNK N   1       3.319  -0.997   0.423  0.00  0.00     0.285 C 
HETATM   37  O   UNK N   1       2.126  -1.120   1.180  0.00  0.00    -0.352 OA
HETATM   38  C   UNK N   1       1.060  -1.169   0.266  0.00  0.00     0.152 C 
HETATM   39  C   UNK N   1       1.053  -2.477  -0.554  0.00  0.00     0.177 C 
HETATM   40  C   UNK N   1      -0.268  -0.827   0.915  0.00  0.00     0.042 C 
HETATM   41  C   UNK N   1       2.497  -2.964  -0.834  0.00  0.00     0.178 C 
HETATM   42  C   UNK N   1       3.431  -1.745  -0.929  0.00  0.00     0.161 C 
BRANCH  39  43
HETATM   43  O   UNK N   1       0.311  -3.482   0.075  0.00  0.00    -0.390 OA
HETATM   44  H   UNK N   1      -0.550  -3.385   0.510  0.00  0.00     0.210 HD
ENDBRANCH  39  43
BRANCH  41  45
HETATM   45  O   UNK N   1       2.935  -3.801   0.207  0.00  0.00    -0.386 OA
HETATM   46  C   UNK N   1       3.047  -5.070  -0.362  0.00  0.00     0.202 C 
ENDBRANCH  41  45
BRANCH  42  47
HETATM   47  N   UNK N   1       4.796  -2.162  -1.197  0.00  0.00    -0.420 N 
HETATM   48  H   UNK N   1       5.022  -3.138  -1.386  0.00  0.00     0.150 HD
HETATM   49  H   UNK N   1       5.542  -1.466  -1.197  0.00  0.00     0.150 HD
ENDBRANCH  42  47
ENDBRANCH  35  36
ENDBRANCH   3  35
BRANCH   2  50
HETATM   50  O   UNK N   1       2.052   1.848   0.872  0.00  0.00    -0.385 OA
HETATM   51  H   UNK N   1       1.797   2.317   1.683  0.00  0.00     0.210 HD
ENDBRANCH   2  50
BRANCH   4  52
HETATM   52  O   UNK N   1       1.736   3.897  -0.911  0.00  0.00    -0.390 OA
HETATM   53  H   UNK N   1       1.683   4.863  -0.972  0.00  0.00     0.210 HD
ENDBRANCH   4  52
TORSDOF 10
