REMARK  13 active torsions:
REMARK  status: ('A' for Active; 'I' for Inactive)
REMARK    1  A    between atoms: C_2  and  C_13 
REMARK    2  A    between atoms: C_5  and  C_7 
REMARK    3  A    between atoms: C_10  and  C_49 
REMARK    4  A    between atoms: C_13  and  N_14 
REMARK       I    between atoms: N_14  and  C_15 
REMARK    5  A    between atoms: N_14  and  C_16 
REMARK    6  A    between atoms: C_15  and  C_17 
REMARK    7  A    between atoms: C_17  and  N_19 
REMARK    8  A    between atoms: C_24  and  S_29 
REMARK    9  A    between atoms: S_29  and  C_30 
REMARK   10  A    between atoms: C_30  and  C_31 
REMARK   11  A    between atoms: N_42  and  C_45 
REMARK   12  A    between atoms: C_45  and  C_46 
REMARK   13  A    between atoms: C_46  and  O_47 
ROOT
HETATM    1  N   UNK N   1       0.272   1.176  -0.186  0.00  0.00    -0.342 N 
HETATM    2  C   UNK N   1      -0.452   1.296   0.970  0.00  0.00     0.238 C 
HETATM    3  O   UNK N   1      -0.110   2.096   1.831  0.00  0.00    -0.272 OA
ENDROOT
BRANCH   1   4
HETATM    4  C   UNK N   1       1.199   2.272  -0.470  0.00  0.00     0.164 C 
BRANCH   4   5
HETATM    5  C   UNK N   1       2.541   1.900  -0.051  0.00  0.00    -0.040 C 
HETATM    6  C   UNK N   1       3.601   2.024  -0.947  0.00  0.00     0.010 C 
HETATM    7  C   UNK N   1       4.762   1.297  -0.719  0.00  0.00     0.013 C 
HETATM    8  C   UNK N   1       4.810   0.422   0.375  0.00  0.00    -0.026 C 
HETATM    9  C   UNK N   1       3.776   0.391   1.309  0.00  0.00     0.013 C 
HETATM   10  C   UNK N   1       2.660   1.151   1.113  0.00  0.00     0.010 C 
BRANCH   8  11
HETATM   11  C   UNK N   1       5.708  -0.710   0.332  0.00  0.00    -0.026 A 
HETATM   12  C   UNK N   1       5.175  -1.956   0.691  0.00  0.00     0.013 A 
HETATM   13  C   UNK N   1       5.901  -3.113   0.496  0.00  0.00     0.017 A 
HETATM   14  C   UNK N   1       7.190  -3.037  -0.029  0.00  0.00     0.048 A 
HETATM   15  C   UNK N   1       7.736  -1.792  -0.380  0.00  0.00     0.017 A 
HETATM   16  C   UNK N   1       6.977  -0.631  -0.242  0.00  0.00     0.013 A 
BRANCH  14  17
HETATM   17  C   UNK N   1       7.997  -4.277  -0.181  0.00  0.00     0.417 C 
HETATM   18  F   UNK N   1       8.540  -4.326  -1.451  0.00  0.00    -0.166 F 
HETATM   19  F   UNK N   1       7.215  -5.403   0.018  0.00  0.00    -0.166 F 
HETATM   20  F   UNK N   1       9.008  -4.256   0.759  0.00  0.00    -0.166 F 
ENDBRANCH  14  17
ENDBRANCH   8  11
ENDBRANCH   4   5
ENDBRANCH   1   4
BRANCH   1  21
HETATM   21  C   UNK N   1       0.120   0.096  -1.188  0.00  0.00     0.090 C 
HETATM   22  C   UNK N   1      -1.125  -0.824  -1.138  0.00  0.00     0.055 C 
HETATM   23  C   UNK N   1      -0.973  -2.004  -0.161  0.00  0.00     0.274 C 
HETATM   24  N   UNK N   1       0.221  -2.782  -0.478  0.00  0.00     0.090 N 
HETATM   25  C   UNK N   1       1.375  -1.917  -0.234  0.00  0.00     0.274 C 
HETATM   26  C   UNK N   1       1.391  -0.780  -1.268  0.00  0.00     0.055 C 
BRANCH  24  27
HETATM   27  C   UNK N   1       0.277  -3.908   0.451  0.00  0.00     0.298 C 
BRANCH  27  28
HETATM   28  C   UNK N   1       0.914  -5.130  -0.208  0.00  0.00     0.197 C 
BRANCH  28  29
HETATM   29  O   UNK N   1       2.274  -4.911  -0.440  0.00  0.00    -0.394 OA
HETATM   30  C   UNK N   1       2.933  -5.857   0.347  0.00  0.00     0.201 C 
ENDBRANCH  28  29
ENDBRANCH  27  28
ENDBRANCH  24  27
ENDBRANCH   1  21
BRANCH   2  31
HETATM   31  C   UNK N   1      -1.774   0.675   1.118  0.00  0.00     0.232 C 
BRANCH  31  32
HETATM   32  N   UNK N   1      -2.902   1.585   0.758  0.00  0.00    -0.332 N 
HETATM   33  C   UNK N   1      -2.788   2.900   0.289  0.00  0.00     0.050 A 
HETATM   34  C   UNK N   1      -1.551   3.544   0.071  0.00  0.00     0.031 A 
HETATM   35  C   UNK N   1      -3.950   3.661  -0.002  0.00  0.00     0.041 A 
HETATM   36  C   UNK N   1      -1.446   4.851  -0.391  0.00  0.00     0.002 A 
HETATM   37  C   UNK N   1      -2.597   5.575  -0.664  0.00  0.00     0.001 A 
HETATM   38  C   UNK N   1      -3.843   4.982  -0.472  0.00  0.00     0.018 A 
HETATM   39  C   UNK N   1      -5.201   3.083   0.190  0.00  0.00     0.187 A 
HETATM   40  C   UNK N   1      -5.295   1.786   0.650  0.00  0.00     0.092 A 
HETATM   41  O   UNK N   1      -6.219   3.712  -0.052  0.00  0.00    -0.287 OA
HETATM   42  C   UNK N   1      -4.151   1.035   0.919  0.00  0.00     0.077 A 
BRANCH  42  43
HETATM   43  S   UNK N   1      -4.369  -0.676   1.464  0.00  0.00    -0.107 SA
BRANCH  43  44
HETATM   44  C   UNK N   1      -4.722  -1.284  -0.221  0.00  0.00     0.122 C 
BRANCH  44  45
HETATM   45  C   UNK N   1      -6.193  -1.209  -0.448  0.00  0.00    -0.007 A 
HETATM   46  C   UNK N   1      -6.724  -0.102  -1.116  0.00  0.00     0.011 A 
HETATM   47  C   UNK N   1      -8.104   0.036  -1.265  0.00  0.00     0.004 A 
HETATM   48  C   UNK N   1      -8.960  -0.941  -0.755  0.00  0.00     0.045 A 
HETATM   49  C   UNK N   1      -8.436  -2.064  -0.107  0.00  0.00     0.155 A 
HETATM   50  C   UNK N   1      -7.051  -2.202   0.049  0.00  0.00     0.161 A 
HETATM   51  F   UNK N   1      -9.275  -3.010   0.379  0.00  0.00    -0.203 F 
HETATM   52  F   UNK N   1      -6.549  -3.289   0.688  0.00  0.00    -0.202 F 
ENDBRANCH  44  45
ENDBRANCH  43  44
ENDBRANCH  42  43
ENDBRANCH  31  32
ENDBRANCH   2  31
TORSDOF 13
