REMARK  11 active torsions:
REMARK  status: ('A' for Active; 'I' for Inactive)
REMARK    1  A    between atoms: S_1  and  C_37 
REMARK    2  A    between atoms: S_1  and  C_40 
REMARK    3  A    between atoms: S_2  and  C_38 
REMARK    4  A    between atoms: S_2  and  C_41 
REMARK    5  A    between atoms: O_4  and  O_7 
REMARK    6  A    between atoms: O_4  and  C_26 
REMARK    7  A    between atoms: N_8  and  C_11 
REMARK    8  A    between atoms: N_9  and  C_13 
REMARK    9  A    between atoms: C_12  and  C_26 
REMARK   10  A    between atoms: C_33  and  C_37 
REMARK   11  A    between atoms: C_35  and  C_38 
ROOT
HETATM    1  O   UNK N   1       6.837   1.254  -1.550  0.00  0.00    -0.335 OA
HETATM    2  C   UNK N   1       7.470   0.113  -1.008  0.00  0.00     0.153 C 
HETATM    3  C   UNK N   1       8.258   0.654   0.171  0.00  0.00     0.148 C 
HETATM    4  C   UNK N   1       6.429   2.035  -0.448  0.00  0.00     0.232 C 
HETATM    5  C   UNK N   1       7.239   1.585   0.776  0.00  0.00     0.074 C 
HETATM    6  C   UNK N   1       8.374  -0.434  -2.102  0.00  0.00     0.072 C 
ENDROOT
BRANCH   3   7
HETATM    7  C   UNK N   1       8.837  -0.383   1.117  0.00  0.00     0.298 C 
HETATM    8  O   UNK N   1       8.384  -0.493   2.245  0.00  0.00    -0.262 OA
BRANCH   7   9
HETATM    9  O   UNK N   1       9.876  -1.175   0.751  0.00  0.00    -0.159 OA
BRANCH   9  10
HETATM   10  O   UNK N   1      10.495  -1.021  -0.375  0.00  0.00    -0.238 OA
HETATM   11  C   UNK N   1      11.057  -2.269  -0.646  0.00  0.00     0.247 C 
ENDBRANCH   9  10
ENDBRANCH   7   9
ENDBRANCH   3   7
BRANCH   2  12
HETATM   12  N   UNK N   1       6.455  -0.903  -0.586  0.00  0.00    -0.310 N 
HETATM   13  C   UNK N   1       5.158  -0.672  -0.250  0.00  0.00     0.077 A 
HETATM   14  C   UNK N   1       4.491   0.543  -0.125  0.00  0.00     0.077 A 
HETATM   15  C   UNK N   1       4.473  -1.855  -0.023  0.00  0.00     0.015 A 
HETATM   16  N   UNK N   1       5.010   1.777  -0.229  0.00  0.00    -0.316 N 
HETATM   17  C   UNK N   1       3.132   0.587   0.134  0.00  0.00     0.022 A 
HETATM   18  C   UNK N   1       3.967   2.630  -0.088  0.00  0.00     0.048 A 
HETATM   19  C   UNK N   1       2.794   1.926   0.142  0.00  0.00     0.005 A 
HETATM   20  C   UNK N   1       3.983   4.020  -0.147  0.00  0.00     0.031 A 
HETATM   21  C   UNK N   1       1.576   2.571   0.324  0.00  0.00     0.022 A 
HETATM   22  C   UNK N   1       1.558   3.977   0.255  0.00  0.00    -0.048 A 
HETATM   23  C   UNK N   1       2.758   4.694   0.012  0.00  0.00     0.010 A 
HETATM   24  C   UNK N   1       2.425  -0.617   0.314  0.00  0.00     0.054 A 
HETATM   25  C   UNK N   1       3.093  -1.833   0.259  0.00  0.00    -0.010 A 
HETATM   26  C   UNK N   1       1.051  -0.923   0.573  0.00  0.00     0.253 A 
HETATM   27  C   UNK N   1       2.134  -2.971   0.495  0.00  0.00     0.163 A 
HETATM   28  N   UNK N   1       0.872  -2.254   0.675  0.00  0.00    -0.353 N 
HETATM   29  H   UNK N   1       0.006  -2.688   0.849  0.00  0.00     0.163 HD
HETATM   30  O   UNK N   1       0.144  -0.114   0.679  0.00  0.00    -0.268 OA
HETATM   31  C   UNK N   1       5.400  -2.860  -0.154  0.00  0.00     0.005 A 
HETATM   32  C   UNK N   1       6.599  -2.257  -0.503  0.00  0.00     0.049 A 
HETATM   33  C   UNK N   1       5.285  -4.237   0.002  0.00  0.00     0.022 A 
HETATM   34  C   UNK N   1       7.744  -3.016  -0.735  0.00  0.00     0.031 A 
HETATM   35  C   UNK N   1       7.655  -4.410  -0.585  0.00  0.00     0.010 A 
HETATM   36  C   UNK N   1       6.435  -5.021  -0.205  0.00  0.00    -0.048 A 
BRANCH  16  37
ENDBRANCH  16  37
BRANCH  22  37
HETATM   37  C   UNK N   1       0.245   4.686   0.368  0.00  0.00     0.112 C 
BRANCH  37  38
HETATM   38  S   UNK N   1       0.361   6.237   1.314  0.00  0.00    -0.165 SA
BRANCH  38  39
HETATM   39  C   UNK N   1       0.008   7.230  -0.168  0.00  0.00     0.069 C 
HETATM   40  C   UNK N   1       1.293   7.551  -0.905  0.00  0.00     0.016 C 
ENDBRANCH  38  39
ENDBRANCH  37  38
ENDBRANCH  22  37
BRANCH  36  41
HETATM   41  C   UNK N   1       6.349  -6.500  -0.035  0.00  0.00     0.112 C 
BRANCH  41  42
HETATM   42  S   UNK N   1       7.619  -7.104   1.123  0.00  0.00    -0.165 SA
BRANCH  42  43
HETATM   43  C   UNK N   1       8.313  -8.226  -0.129  0.00  0.00     0.069 C 
HETATM   44  C   UNK N   1       9.229  -7.469  -1.069  0.00  0.00     0.016 C 
ENDBRANCH  42  43
ENDBRANCH  41  42
ENDBRANCH  36  41
ENDBRANCH   2  12
TORSDOF 11
