REMARK  2 active torsions:
REMARK  status: ('A' for Active; 'I' for Inactive)
REMARK    1  A    between atoms: N_8  and  C_18 
REMARK    2  A    between atoms: C_18  and  C_21 
ROOT
HETATM    1  O   UNK N   1       5.600  -1.956  -0.363  0.00  0.00    -0.269 OA
HETATM    2  O   UNK N   1       3.676  -3.589   1.929  0.00  0.00    -0.270 OA
HETATM    3  O   UNK N   1       3.068  -5.596  -1.970  0.00  0.00    -0.273 OA
HETATM    4  O   UNK N   1       2.939   1.325   1.231  0.00  0.00    -0.265 OA
HETATM    5  N   UNK N   1       2.023  -1.880   0.125  0.00  0.00    -0.325 N 
HETATM    6  N   UNK N   1       4.326  -0.252   0.390  0.00  0.00    -0.276 N 
HETATM    7  N   UNK N   1       3.433  -4.870   0.112  0.00  0.00    -0.295 N 
HETATM    8  C   UNK N   1       3.295  -2.521  -0.201  0.00  0.00     0.208 A 
HETATM    9  C   UNK N   1       3.190  -3.220  -1.586  0.00  0.00     0.155 A 
HETATM   10  C   UNK N   1       4.479  -1.541  -0.093  0.00  0.00     0.266 A 
HETATM   11  C   UNK N   1       3.506  -3.690   0.724  0.00  0.00     0.263 A 
HETATM   12  C   UNK N   1       1.906  -0.623   0.537  0.00  0.00     0.104 A 
HETATM   13  C   UNK N   1       3.223  -4.672  -1.189  0.00  0.00     0.227 A 
HETATM   14  C   UNK N   1       3.080   0.223   0.726  0.00  0.00     0.277 A 
HETATM   15  C   UNK N   1       0.792  -2.426   0.105  0.00  0.00     0.093 A 
HETATM   16  C   UNK N   1       0.586  -0.317   0.797  0.00  0.00     0.037 A 
HETATM   17  C   UNK N   1      -0.130  -1.474   0.513  0.00  0.00     0.020 A 
HETATM   18  H   UNK N   1       3.521  -5.747   0.550  0.00  0.00     0.171 HD
ENDROOT
BRANCH   6  19
HETATM   19  C   UNK N   1       5.531   0.512   0.722  0.00  0.00     0.177 C 
BRANCH  19  20
HETATM   20  C   UNK N   1       5.784   1.884   0.129  0.00  0.00    -0.001 A 
HETATM   21  C   UNK N   1       7.113   2.251  -0.157  0.00  0.00     0.125 A 
HETATM   22  F   UNK N   1       8.118   1.351  -0.020  0.00  0.00    -0.205 F 
HETATM   23  C   UNK N   1       7.421   3.567  -0.521  0.00  0.00     0.062 A 
HETATM   24  C   UNK N   1       6.412   4.527  -0.607  0.00  0.00     0.013 A 
HETATM   25 Br   UNK N   1       6.849   6.335  -1.025  0.00  0.00    -0.051 Br
HETATM   26  C   UNK N   1       5.089   4.170  -0.341  0.00  0.00     0.020 A 
HETATM   27  C   UNK N   1       4.780   2.859   0.034  0.00  0.00     0.013 A 
ENDBRANCH  19  20
ENDBRANCH   6  19
TORSDOF 2
