REMARK  3 active torsions:
REMARK  status: ('A' for Active; 'I' for Inactive)
REMARK    1  A    between atoms: C_2  and  C_7 
REMARK    2  A    between atoms: C_7  and  C_8 
REMARK    3  A    between atoms: C_8  and  N_9 
ROOT
HETATM    1  C   UNK N   1       4.609 -11.160  -0.000  0.00  0.00     0.114 A 
HETATM    2  C   UNK N   1       4.430 -12.525  -0.000  0.00  0.00     0.027 A 
HETATM    3  N   UNK N   1       3.390 -10.589  -0.000  0.00  0.00    -0.360 N 
HETATM    4  N   UNK N   1       3.119 -12.805   0.000  0.00  0.00    -0.355 N 
ATOM      5  HN  UNK N   1       2.682 -13.727   0.000  1.00  0.00     0.166 HD
HETATM    6  C   UNK N   1       2.503 -11.607   0.000  0.00  0.00     0.180 A 
HETATM    7  H   UNK N   1       3.186  -9.626  -0.000  0.00  0.00     0.166 HD
ENDROOT
BRANCH   2   8
HETATM    8  C   UNK N   1       5.484 -13.588  -0.000  0.00  0.00     0.077 C 
BRANCH   8   9
HETATM    9  C   UNK N   1       6.898 -13.040  -0.000  0.00  0.00     0.117 C 
BRANCH   9  10
HETATM   10  N   UNK N   1       7.830 -14.152  -0.000  0.00  0.00    -0.430 N 
HETATM   11  H   UNK N   1       7.480 -15.110  -0.000  0.00  0.00     0.149 HD
HETATM   12  H   UNK N   1       8.834 -13.976  -0.000  0.00  0.00     0.149 HD
ENDBRANCH   9  10
ENDBRANCH   8   9
ENDBRANCH   2   8
TORSDOF 3
