REMARK  9 active torsions:
REMARK  status: ('A' for Active; 'I' for Inactive)
REMARK    1  A    between atoms: C_13  and  O_3 
REMARK    2  A    between atoms: C_16  and  O_4 
REMARK    3  A    between atoms: O_4  and  C_22 
REMARK       I    between atoms: N_7  and  C_22 
REMARK    4  A    between atoms: C_26  and  N_7 
REMARK       I    between atoms: N_8  and  C_28 
REMARK    5  A    between atoms: C_9  and  C_11 
REMARK    6  A    between atoms: C_12  and  C_19 
REMARK    7  A    between atoms: C_19  and  C_20 
REMARK    8  A    between atoms: C_26  and  C_27 
REMARK    9  A    between atoms: C_26  and  C_28 
ROOT
HETATM    1  O   UNK N   1       5.635  -2.718  -1.225  0.00  0.00    -0.374 OA
HETATM    2  C   UNK N   1       4.290  -1.084  -0.082  0.00  0.00     0.091 C 
HETATM    3  C   UNK N   1       5.558  -2.016   0.002  0.00  0.00     0.091 A 
HETATM    4  C   UNK N   1       4.534   0.188   0.813  0.00  0.00     0.160 C 
HETATM    5  C   UNK N   1       5.573  -3.500  -0.074  0.00  0.00     0.207 A 
HETATM    6  C   UNK N   1       6.927  -1.399   0.237  0.00  0.00     0.043 C 
HETATM    7  C   UNK N   1       5.947   0.631   1.246  0.00  0.00     0.163 C 
HETATM    8  C   UNK N   1       6.883  -0.540   1.479  0.00  0.00     0.038 C 
ENDROOT
BRANCH   7   9
HETATM    9  O   UNK N   1       6.535   1.657   0.522  0.00  0.00    -0.296 OA
BRANCH   9  10
HETATM   10  C   UNK N   1       6.862   1.663  -0.796  0.00  0.00     0.361 C 
HETATM   11  O   UNK N   1       6.458   0.780  -1.541  0.00  0.00    -0.238 OA
HETATM   12  N   UNK N   1       7.621   2.661  -1.312  0.00  0.00    -0.323 N 
HETATM   13  H   UNK N   1       7.771   2.660  -2.285  0.00  0.00     0.165 HD
BRANCH  12  14
HETATM   14  C   UNK N   1       8.233   3.738  -0.538  0.00  0.00     0.182 C 
BRANCH  14  15
HETATM   15  C   UNK N   1       9.427   3.272   0.318  0.00  0.00     0.009 C 
HETATM   16  C   UNK N   1       9.055   2.445   1.536  0.00  0.00     0.012 C 
HETATM   17  C   UNK N   1      10.454   2.532  -0.521  0.00  0.00     0.012 C 
ENDBRANCH  14  15
BRANCH  14  18
HETATM   18  C   UNK N   1       7.246   4.603   0.213  0.00  0.00     0.238 C 
HETATM   19  O   UNK N   1       6.048   4.375   0.165  0.00  0.00    -0.271 OA
HETATM   20  N   UNK N   1       7.691   5.662   0.918  0.00  0.00    -0.368 N 
HETATM   21  H   UNK N   1       8.523   5.768   1.433  0.00  0.00     0.159 HD
HETATM   22  H   UNK N   1       7.096   6.446   0.918  0.00  0.00     0.159 HD
ENDBRANCH  14  18
ENDBRANCH  12  14
ENDBRANCH   9  10
ENDBRANCH   7   9
BRANCH   4  23
HETATM   23  O   UNK N   1       3.613   1.253   0.694  0.00  0.00    -0.388 OA
HETATM   24  C   UNK N   1       3.729   1.808  -0.588  0.00  0.00     0.202 C 
ENDBRANCH   4  23
BRANCH   2  25
HETATM   25  C   UNK N   1       2.894  -1.692   0.353  0.00  0.00     0.093 A 
HETATM   26  O   UNK N   1       3.050  -2.651   1.374  0.00  0.00    -0.369 OA
HETATM   27  C   UNK N   1       2.259  -3.033   0.267  0.00  0.00     0.160 A 
HETATM   28  C   UNK N   1       1.763  -0.719   0.650  0.00  0.00     0.049 C 
BRANCH  27  29
HETATM   29  C   UNK N   1       2.901  -4.109  -0.579  0.00  0.00     0.062 C 
BRANCH  29  30
HETATM   30  C   UNK N   1       2.170  -5.407  -0.367  0.00  0.00    -0.022 C 
HETATM   31  C   UNK N   1       0.874  -5.588  -0.675  0.00  0.00    -0.091 C 
HETATM   32  C   UNK N   1       0.241  -6.909  -0.412  0.00  0.00     0.042 C 
HETATM   33  C   UNK N   1       0.040  -4.495  -1.267  0.00  0.00     0.042 C 
ENDBRANCH  29  30
ENDBRANCH  27  29
ENDBRANCH   2  25
TORSDOF 9
