REMARK  5 active torsions:
REMARK  status: ('A' for Active; 'I' for Inactive)
REMARK    1  A    between atoms: C_9  and  O_1 
REMARK    2  A    between atoms: O_3  and  C_25 
REMARK    3  A    between atoms: O_3  and  C_27 
REMARK    4  A    between atoms: C_9  and  C_20 
REMARK    5  A    between atoms: C_20  and  C_25 
ROOT
HETATM    1  O   UNK N   1      -0.552  -3.493   0.025  0.00  0.00    -0.293 OA
HETATM    2  C   UNK N   1       6.665   0.831   0.010  0.00  0.00     0.002 C 
HETATM    3  C   UNK N   1       6.542  -0.621   0.453  0.00  0.00     0.006 C 
HETATM    4  C   UNK N   1       5.381  -1.320  -0.264  0.00  0.00     0.020 C 
HETATM    5  C   UNK N   1       8.012   1.228   0.669  0.00  0.00     0.128 C 
HETATM    6  C   UNK N   1       7.921  -1.197   0.209  0.00  0.00     0.009 C 
HETATM    7  C   UNK N   1       8.868  -0.044   0.551  0.00  0.00     0.047 C 
HETATM    8  C   UNK N   1       5.419   1.588   0.507  0.00  0.00     0.040 C 
HETATM    9  C   UNK N   1       4.093  -0.504  -0.090  0.00  0.00    -0.067 C 
HETATM   10  C   UNK N   1       2.781  -1.236  -0.310  0.00  0.00     0.003 C 
HETATM   11  C   UNK N   1       5.226  -2.776   0.227  0.00  0.00     0.014 C 
HETATM   12  C   UNK N   1       6.730   0.937  -1.524  0.00  0.00     0.019 C 
HETATM   13  C   UNK N   1       4.127   0.803   0.287  0.00  0.00    -0.022 C 
HETATM   14  C   UNK N   1       4.066  -2.949   1.203  0.00  0.00     0.036 C 
HETATM   15  C   UNK N   1       2.797  -2.510   0.525  0.00  0.00    -0.064 C 
HETATM   16  C   UNK N   1       1.516  -0.443   0.058  0.00  0.00     0.026 C 
HETATM   17  C   UNK N   1       2.708  -1.602  -1.792  0.00  0.00     0.025 C 
HETATM   18  C   UNK N   1       0.243  -1.274  -0.230  0.00  0.00     0.084 C 
HETATM   19  C   UNK N   1       1.685  -3.247   0.654  0.00  0.00     0.054 C 
HETATM   20  C   UNK N   1       0.400  -2.738   0.129  0.00  0.00     0.149 C 
ENDROOT
BRANCH   5  21
HETATM   21  O   UNK N   1       7.799   1.460   2.035  0.00  0.00    -0.381 OA
HETATM   22  H   UNK N   1       7.865   1.668   2.980  0.00  0.00     0.211 HD
ENDBRANCH   5  21
BRANCH   5  23
HETATM   23  C   UNK N   1       8.745   2.423   0.063  0.00  0.00     0.185 C 
HETATM   24  O   UNK N   1       8.955   3.417   0.742  0.00  0.00    -0.292 OA
BRANCH  23  25
HETATM   25  C   UNK N   1       9.278   2.396  -1.351  0.00  0.00     0.260 C 
BRANCH  25  26
HETATM   26  O   UNK N   1      10.138   1.332  -1.552  0.00  0.00    -0.314 OA
BRANCH  26  27
HETATM   27  C   UNK N   1      11.376   1.232  -0.999  0.00  0.00     0.255 C 
HETATM   28  O   UNK N   1      12.017   0.206  -1.150  0.00  0.00    -0.266 OA
HETATM   29  C   UNK N   1      11.969   2.349  -0.200  0.00  0.00     0.126 C 
ENDBRANCH  26  27
ENDBRANCH  25  26
ENDBRANCH  23  25
ENDBRANCH   5  23
TORSDOF 5
