REMARK  6 active torsions:
REMARK  status: ('A' for Active; 'I' for Inactive)
REMARK    1  A    between atoms: C_13  and  O_4 
REMARK    2  A    between atoms: O_4  and  C_18 
REMARK    3  A    between atoms: O_6  and  C_25 
REMARK    4  A    between atoms: O_6  and  C_26 
REMARK    5  A    between atoms: N_12  and  C_19 
REMARK    6  A    between atoms: C_18  and  C_20 
ROOT
HETATM    1  O   UNK N   1       9.337  -2.885   0.067  0.00  0.00    -0.319 OA
HETATM    2  N   UNK N   1      10.078  -0.679  -0.315  0.00  0.00    -0.317 N 
HETATM    3  N   UNK N   1      11.634  -2.209   0.162  0.00  0.00    -0.302 N 
ATOM      4  HN  UNK N   1      12.084  -3.095   0.393  1.00  0.00     0.171 HD
HETATM    5  C   UNK N   1       7.721  -1.065   0.085  0.00  0.00     0.164 C 
HETATM    6  C   UNK N   1       8.756  -0.138  -0.562  0.00  0.00     0.166 C 
HETATM    7  C   UNK N   1       8.020  -2.546  -0.230  0.00  0.00     0.212 C 
HETATM    8  C   UNK N   1      10.324  -1.964  -0.025  0.00  0.00     0.227 A 
HETATM    9  C   UNK N   1      11.257  -0.045  -0.326  0.00  0.00     0.149 A 
HETATM   10  C   UNK N   1      12.214  -1.000  -0.028  0.00  0.00     0.192 A 
ENDROOT
BRANCH   5  11
HETATM   11  O   UNK N   1       6.434  -0.705  -0.318  0.00  0.00    -0.378 OA
BRANCH  11  12
HETATM   12  C   UNK N   1       6.036   0.238   0.633  0.00  0.00     0.207 C 
BRANCH  12  13
HETATM   13  C   UNK N   1       4.669   0.743   0.348  0.00  0.00    -0.034 A 
HETATM   14  C   UNK N   1       3.592  -0.143   0.328  0.00  0.00     0.012 A 
HETATM   15  C   UNK N   1       2.297   0.339   0.151  0.00  0.00     0.037 A 
HETATM   16  C   UNK N   1       2.065   1.718   0.002  0.00  0.00     0.078 A 
HETATM   17  C   UNK N   1       3.152   2.600   0.000  0.00  0.00     0.037 A 
HETATM   18  C   UNK N   1       4.452   2.114   0.174  0.00  0.00     0.012 A 
BRANCH  16  19
HETATM   19  O   UNK N   1       0.807   2.217  -0.101  0.00  0.00    -0.255 OA
BRANCH  19  20
HETATM   20  C   UNK N   1      -0.342   1.447  -0.089  0.00  0.00     0.530 C 
HETATM   21  F   UNK N   1      -0.374   0.628  -1.203  0.00  0.00    -0.144 F 
HETATM   22  F   UNK N   1      -0.392   0.674   1.059  0.00  0.00    -0.144 F 
HETATM   23  F   UNK N   1      -1.444   2.278  -0.109  0.00  0.00    -0.144 F 
ENDBRANCH  19  20
ENDBRANCH  16  19
ENDBRANCH  12  13
ENDBRANCH  11  12
ENDBRANCH   5  11
BRANCH  10  24
HETATM   24  N   UNK N   1      13.607  -0.764   0.065  0.00  0.00    -0.096 N 
HETATM   25  O   UNK N   1      14.428  -1.758   0.325  0.00  0.00    -0.530 OA
HETATM   26  O   UNK N   1      14.042   0.336  -0.096  0.00  0.00    -0.530 OA
ENDBRANCH  10  24
TORSDOF 6
