MODEL 1
REMARK VINA RESULT:      -6.5      0.000      0.000
REMARK  8 active torsions:
REMARK  status: ('A' for Active; 'I' for Inactive)
REMARK    1  A    between atoms: C_16  and  O_2 
REMARK    2  A    between atoms: O_3  and  N_7 
REMARK    3  A    between atoms: O_3  and  C_17 
REMARK    4  A    between atoms: O_4  and  N_9 
REMARK    5  A    between atoms: N_6  and  C_15 
REMARK    6  A    between atoms: C_15  and  C_16 
REMARK    7  A    between atoms: C_16  and  C_17 
REMARK    8  A    between atoms: C_18  and  C_19 
ROOT
HETATM    1  O   UNK N   1      36.333  14.254  12.746  0.00  0.00    -0.277 OA
ENDROOT
BRANCH   1   2
HETATM    2  N   UNK N   1      36.720  15.027  13.746  0.00  0.00    -0.254 N 
HETATM    3  C   UNK N   1      36.854  14.625  14.973  0.00  0.00     0.135 C 
HETATM    4 Cl   UNK N   1      37.498  15.787  16.131  0.00  0.00    -0.062 Cl
ATOM      5  HN  UNK N   1      36.928  16.003  13.540  1.00  0.00     0.195 HD
BRANCH   3   6
HETATM    6  C   UNK N   1      36.500  13.252  15.454  0.00  0.00     0.022 A 
HETATM    7  C   UNK N   1      37.236  12.150  14.990  0.00  0.00     0.137 A 
HETATM    8  N   UNK N   1      36.942  10.890  15.407  0.00  0.00    -0.246 N 
HETATM    9  C   UNK N   1      35.936  10.656  16.290  0.00  0.00     0.122 A 
HETATM   10  C   UNK N   1      35.184  11.716  16.793  0.00  0.00     0.021 A 
HETATM   11  C   UNK N   1      35.471  13.013  16.373  0.00  0.00     0.017 A 
BRANCH   8  12
HETATM   12  O   UNK N   1      37.649   9.865  14.938  0.00  0.00    -0.284 OA
ATOM     13  HO  UNK N   1      37.378   9.442  14.132  1.00  0.00     0.245 HD
ENDBRANCH   8  12
ENDBRANCH   3   6
ENDBRANCH   1   2
BRANCH   1  14
HETATM   14  C   UNK N   1      35.335  14.643  11.869  0.00  0.00     0.234 C 
BRANCH  14  15
HETATM   15  C   UNK N   1      35.859  15.403  10.649  0.00  0.00     0.172 C 
BRANCH  15  16
HETATM   16  O   UNK N   1      37.128  15.940  10.879  0.00  0.00    -0.392 OA
HETATM   17  H   UNK N   1      37.500  15.967  11.775  0.00  0.00     0.210 HD
ENDBRANCH  15  16
BRANCH  15  18
HETATM   18  C   UNK N   1      34.882  16.453  10.123  0.00  0.00     0.306 C 
BRANCH  18  19
HETATM   19  N   UNK N   1      34.301  16.076   8.839  0.00  0.00     0.091 N 
HETATM   20  C   UNK N   1      34.357  17.259   7.961  0.00  0.00     0.272 C 
HETATM   21  C   UNK N   1      33.146  18.180   8.135  0.00  0.00     0.030 C 
HETATM   22  C   UNK N   1      31.836  17.441   7.838  0.00  0.00     0.003 C 
HETATM   23  C   UNK N   1      31.971  15.922   7.957  0.00  0.00     0.030 C 
HETATM   24  C   UNK N   1      32.936  15.577   9.086  0.00  0.00     0.272 C 
ENDBRANCH  18  19
ENDBRANCH  15  18
ENDBRANCH  14  15
ENDBRANCH   1  14
TORSDOF 8
ENDMDL
MODEL 2
REMARK VINA RESULT:      -6.0      7.497      9.887
REMARK  8 active torsions:
REMARK  status: ('A' for Active; 'I' for Inactive)
REMARK    1  A    between atoms: C_16  and  O_2 
REMARK    2  A    between atoms: O_3  and  N_7 
REMARK    3  A    between atoms: O_3  and  C_17 
REMARK    4  A    between atoms: O_4  and  N_9 
REMARK    5  A    between atoms: N_6  and  C_15 
REMARK    6  A    between atoms: C_15  and  C_16 
REMARK    7  A    between atoms: C_16  and  C_17 
REMARK    8  A    between atoms: C_18  and  C_19 
ROOT
HETATM    1  O   UNK N   1      30.852  18.212   8.532  0.00  0.00    -0.277 OA
ENDROOT
BRANCH   1   2
HETATM    2  N   UNK N   1      32.021  17.637   8.754  0.00  0.00    -0.254 N 
HETATM    3  C   UNK N   1      32.770  17.116   7.830  0.00  0.00     0.135 C 
HETATM    4 Cl   UNK N   1      34.347  16.507   8.324  0.00  0.00    -0.062 Cl
ATOM      5  HN  UNK N   1      32.358  17.600   9.716  1.00  0.00     0.195 HD
BRANCH   3   6
HETATM    6  C   UNK N   1      32.377  17.008   6.389  0.00  0.00     0.022 A 
HETATM    7  C   UNK N   1      31.225  16.284   6.043  0.00  0.00     0.137 A 
HETATM    8  N   UNK N   1      30.841  16.166   4.744  0.00  0.00    -0.246 N 
HETATM    9  C   UNK N   1      31.549  16.750   3.742  0.00  0.00     0.122 A 
HETATM   10  C   UNK N   1      32.693  17.492   4.033  0.00  0.00     0.021 A 
HETATM   11  C   UNK N   1      33.102  17.620   5.359  0.00  0.00     0.017 A 
BRANCH   8  12
HETATM   12  O   UNK N   1      29.752  15.462   4.446  0.00  0.00    -0.284 OA
ATOM     13  HO  UNK N   1      29.144  15.796   3.798  1.00  0.00     0.245 HD
ENDBRANCH   8  12
ENDBRANCH   3   6
ENDBRANCH   1   2
BRANCH   1  14
HETATM   14  C   UNK N   1      29.670  17.664   9.000  0.00  0.00     0.234 C 
BRANCH  14  15
HETATM   15  C   UNK N   1      28.421  18.385   8.490  0.00  0.00     0.172 C 
BRANCH  15  16
HETATM   16  O   UNK N   1      27.357  18.276   9.388  0.00  0.00    -0.392 OA
HETATM   17  H   UNK N   1      26.880  17.438   9.492  0.00  0.00     0.210 HD
ENDBRANCH  15  16
BRANCH  15  18
HETATM   18  C   UNK N   1      28.017  17.972   7.076  0.00  0.00     0.306 C 
BRANCH  18  19
HETATM   19  N   UNK N   1      28.369  18.979   6.081  0.00  0.00     0.091 N 
HETATM   20  C   UNK N   1      27.804  20.265   6.531  0.00  0.00     0.272 C 
HETATM   21  C   UNK N   1      26.353  20.459   6.081  0.00  0.00     0.030 C 
HETATM   22  C   UNK N   1      26.230  20.405   4.554  0.00  0.00     0.003 C 
HETATM   23  C   UNK N   1      27.401  19.679   3.890  0.00  0.00     0.030 C 
HETATM   24  C   UNK N   1      27.861  18.525   4.774  0.00  0.00     0.272 C 
ENDBRANCH  18  19
ENDBRANCH  15  18
ENDBRANCH  14  15
ENDBRANCH   1  14
TORSDOF 8
ENDMDL
MODEL 3
REMARK VINA RESULT:      -5.9      4.001      9.156
REMARK  8 active torsions:
REMARK  status: ('A' for Active; 'I' for Inactive)
REMARK    1  A    between atoms: C_16  and  O_2 
REMARK    2  A    between atoms: O_3  and  N_7 
REMARK    3  A    between atoms: O_3  and  C_17 
REMARK    4  A    between atoms: O_4  and  N_9 
REMARK    5  A    between atoms: N_6  and  C_15 
REMARK    6  A    between atoms: C_15  and  C_16 
REMARK    7  A    between atoms: C_16  and  C_17 
REMARK    8  A    between atoms: C_18  and  C_19 
ROOT
HETATM    1  O   UNK N   1      33.279  15.562   8.644  0.00  0.00    -0.277 OA
ENDROOT
BRANCH   1   2
HETATM    2  N   UNK N   1      32.484  16.536   9.050  0.00  0.00    -0.254 N 
HETATM    3  C   UNK N   1      31.824  17.324   8.257  0.00  0.00     0.135 C 
HETATM    4 Cl   UNK N   1      30.726  18.480   9.006  0.00  0.00    -0.062 Cl
ATOM      5  HN  UNK N   1      32.381  16.678  10.055  1.00  0.00     0.195 HD
BRANCH   3   6
HETATM    6  C   UNK N   1      31.939  17.305   6.764  0.00  0.00     0.022 A 
HETATM    7  C   UNK N   1      30.794  17.059   5.990  0.00  0.00     0.137 A 
HETATM    8  N   UNK N   1      30.864  17.036   4.632  0.00  0.00    -0.246 N 
HETATM    9  C   UNK N   1      32.036  17.256   3.981  0.00  0.00     0.122 A 
HETATM   10  C   UNK N   1      33.200  17.518   4.703  0.00  0.00     0.021 A 
HETATM   11  C   UNK N   1      33.146  17.543   6.095  0.00  0.00     0.017 A 
BRANCH   8  12
HETATM   12  O   UNK N   1      29.764  16.787   3.926  0.00  0.00    -0.284 OA
ATOM     13  HO  UNK N   1      29.453  15.894   3.847  1.00  0.00     0.245 HD
ENDBRANCH   8  12
ENDBRANCH   3   6
ENDBRANCH   1   2
BRANCH   1  14
HETATM   14  C   UNK N   1      34.638  15.574   8.905  0.00  0.00     0.234 C 
BRANCH  14  15
HETATM   15  C   UNK N   1      34.973  15.837  10.375  0.00  0.00     0.172 C 
BRANCH  15  16
HETATM   16  O   UNK N   1      34.975  17.202  10.670  0.00  0.00    -0.392 OA
HETATM   17  H   UNK N   1      35.586  17.566  11.330  0.00  0.00     0.210 HD
ENDBRANCH  15  16
BRANCH  15  18
HETATM   18  C   UNK N   1      36.259  15.153  10.836  0.00  0.00     0.306 C 
BRANCH  18  19
HETATM   19  N   UNK N   1      36.059  13.739  11.134  0.00  0.00     0.091 N 
HETATM   20  C   UNK N   1      35.075  13.649  12.228  0.00  0.00     0.272 C 
HETATM   21  C   UNK N   1      35.722  13.755  13.612  0.00  0.00     0.030 C 
HETATM   22  C   UNK N   1      36.762  12.650  13.828  0.00  0.00     0.003 C 
HETATM   23  C   UNK N   1      37.281  12.058  12.516  0.00  0.00     0.030 C 
HETATM   24  C   UNK N   1      37.372  13.153  11.458  0.00  0.00     0.272 C 
ENDBRANCH  18  19
ENDBRANCH  15  18
ENDBRANCH  14  15
ENDBRANCH   1  14
TORSDOF 8
ENDMDL
MODEL 4
REMARK VINA RESULT:      -5.9      7.644      9.674
REMARK  8 active torsions:
REMARK  status: ('A' for Active; 'I' for Inactive)
REMARK    1  A    between atoms: C_16  and  O_2 
REMARK    2  A    between atoms: O_3  and  N_7 
REMARK    3  A    between atoms: O_3  and  C_17 
REMARK    4  A    between atoms: O_4  and  N_9 
REMARK    5  A    between atoms: N_6  and  C_15 
REMARK    6  A    between atoms: C_15  and  C_16 
REMARK    7  A    between atoms: C_16  and  C_17 
REMARK    8  A    between atoms: C_18  and  C_19 
ROOT
HETATM    1  O   UNK N   1      30.646  17.642   8.997  0.00  0.00    -0.277 OA
ENDROOT
BRANCH   1   2
HETATM    2  N   UNK N   1      31.935  17.885   8.832  0.00  0.00    -0.254 N 
HETATM    3  C   UNK N   1      32.615  17.547   7.780  0.00  0.00     0.135 C 
HETATM    4 Cl   UNK N   1      34.296  18.072   7.709  0.00  0.00    -0.062 Cl
ATOM      5  HN  UNK N   1      32.427  18.370   9.582  1.00  0.00     0.195 HD
BRANCH   3   6
HETATM    6  C   UNK N   1      32.062  16.752   6.638  0.00  0.00     0.022 A 
HETATM    7  C   UNK N   1      31.957  17.348   5.372  0.00  0.00     0.137 A 
HETATM    8  N   UNK N   1      31.460  16.654   4.314  0.00  0.00    -0.246 N 
HETATM    9  C   UNK N   1      31.058  15.363   4.443  0.00  0.00     0.122 A 
HETATM   10  C   UNK N   1      31.154  14.719   5.675  0.00  0.00     0.021 A 
HETATM   11  C   UNK N   1      31.659  15.417   6.770  0.00  0.00     0.017 A 
BRANCH   8  12
HETATM   12  O   UNK N   1      31.361  17.252   3.129  0.00  0.00    -0.284 OA
ATOM     13  HO  UNK N   1      30.845  18.045   3.049  1.00  0.00     0.245 HD
ENDBRANCH   8  12
ENDBRANCH   3   6
ENDBRANCH   1   2
BRANCH   1  14
HETATM   14  C   UNK N   1      29.736  18.662   9.223  0.00  0.00     0.234 C 
BRANCH  14  15
HETATM   15  C   UNK N   1      28.381  18.427   8.552  0.00  0.00     0.172 C 
BRANCH  15  16
HETATM   16  O   UNK N   1      27.414  18.010   9.470  0.00  0.00    -0.392 OA
HETATM   17  H   UNK N   1      27.484  18.250  10.407  0.00  0.00     0.210 HD
ENDBRANCH  15  16
BRANCH  15  18
HETATM   18  C   UNK N   1      28.456  17.498   7.342  0.00  0.00     0.306 C 
BRANCH  18  19
HETATM   19  N   UNK N   1      27.552  17.906   6.272  0.00  0.00     0.091 N 
HETATM   20  C   UNK N   1      26.704  16.746   5.939  0.00  0.00     0.272 C 
HETATM   21  C   UNK N   1      27.355  15.818   4.910  0.00  0.00     0.030 C 
HETATM   22  C   UNK N   1      27.663  16.560   3.605  0.00  0.00     0.003 C 
HETATM   23  C   UNK N   1      27.750  18.076   3.790  0.00  0.00     0.030 C 
HETATM   24  C   UNK N   1      28.369  18.394   5.147  0.00  0.00     0.272 C 
ENDBRANCH  18  19
ENDBRANCH  15  18
ENDBRANCH  14  15
ENDBRANCH   1  14
TORSDOF 8
ENDMDL
MODEL 5
REMARK VINA RESULT:      -5.8      3.036      8.094
REMARK  8 active torsions:
REMARK  status: ('A' for Active; 'I' for Inactive)
REMARK    1  A    between atoms: C_16  and  O_2 
REMARK    2  A    between atoms: O_3  and  N_7 
REMARK    3  A    between atoms: O_3  and  C_17 
REMARK    4  A    between atoms: O_4  and  N_9 
REMARK    5  A    between atoms: N_6  and  C_15 
REMARK    6  A    between atoms: C_15  and  C_16 
REMARK    7  A    between atoms: C_16  and  C_17 
REMARK    8  A    between atoms: C_18  and  C_19 
ROOT
HETATM    1  O   UNK N   1      34.305  14.558  11.674  0.00  0.00    -0.277 OA
ENDROOT
BRANCH   1   2
HETATM    2  N   UNK N   1      34.353  13.729  10.645  0.00  0.00    -0.254 N 
HETATM    3  C   UNK N   1      34.089  14.066   9.420  0.00  0.00     0.135 C 
HETATM    4 Cl   UNK N   1      34.331  12.837   8.180  0.00  0.00    -0.062 Cl
ATOM      5  HN  UNK N   1      34.617  12.761  10.826  1.00  0.00     0.195 HD
BRANCH   3   6
HETATM    6  C   UNK N   1      33.600  15.419   9.004  0.00  0.00     0.022 A 
HETATM    7  C   UNK N   1      32.219  15.658   8.932  0.00  0.00     0.137 A 
HETATM    8  N   UNK N   1      31.741  16.876   8.558  0.00  0.00    -0.246 N 
HETATM    9  C   UNK N   1      32.581  17.899   8.252  0.00  0.00     0.122 A 
HETATM   10  C   UNK N   1      33.961  17.718   8.321  0.00  0.00     0.021 A 
HETATM   11  C   UNK N   1      34.466  16.476   8.700  0.00  0.00     0.017 A 
BRANCH   8  12
HETATM   12  O   UNK N   1      30.427  17.068   8.487  0.00  0.00    -0.284 OA
ATOM     13  HO  UNK N   1      29.966  16.847   7.686  1.00  0.00     0.245 HD
ENDBRANCH   8  12
ENDBRANCH   3   6
ENDBRANCH   1   2
BRANCH   1  14
HETATM   14  C   UNK N   1      35.427  15.237  12.116  0.00  0.00     0.234 C 
BRANCH  14  15
HETATM   15  C   UNK N   1      36.335  14.392  13.012  0.00  0.00     0.172 C 
BRANCH  15  16
HETATM   16  O   UNK N   1      37.217  13.608  12.266  0.00  0.00    -0.392 OA
HETATM   17  H   UNK N   1      38.132  13.896  12.117  0.00  0.00     0.210 HD
ENDBRANCH  15  16
BRANCH  15  18
HETATM   18  C   UNK N   1      35.569  13.564  14.043  0.00  0.00     0.306 C 
BRANCH  18  19
HETATM   19  N   UNK N   1      35.900  12.145  13.972  0.00  0.00     0.091 N 
HETATM   20  C   UNK N   1      34.682  11.423  13.559  0.00  0.00     0.272 C 
HETATM   21  C   UNK N   1      33.784  11.060  14.745  0.00  0.00     0.030 C 
HETATM   22  C   UNK N   1      34.526  10.181  15.759  0.00  0.00     0.003 C 
HETATM   23  C   UNK N   1      36.047  10.302  15.648  0.00  0.00     0.030 C 
HETATM   24  C   UNK N   1      36.425  11.734  15.286  0.00  0.00     0.272 C 
ENDBRANCH  18  19
ENDBRANCH  15  18
ENDBRANCH  14  15
ENDBRANCH   1  14
TORSDOF 8
ENDMDL
MODEL 6
REMARK VINA RESULT:      -5.7      4.111      8.250
REMARK  8 active torsions:
REMARK  status: ('A' for Active; 'I' for Inactive)
REMARK    1  A    between atoms: C_16  and  O_2 
REMARK    2  A    between atoms: O_3  and  N_7 
REMARK    3  A    between atoms: O_3  and  C_17 
REMARK    4  A    between atoms: O_4  and  N_9 
REMARK    5  A    between atoms: N_6  and  C_15 
REMARK    6  A    between atoms: C_15  and  C_16 
REMARK    7  A    between atoms: C_16  and  C_17 
REMARK    8  A    between atoms: C_18  and  C_19 
ROOT
HETATM    1  O   UNK N   1      34.423  16.813   9.220  0.00  0.00    -0.277 OA
ENDROOT
BRANCH   1   2
HETATM    2  N   UNK N   1      33.309  17.517   9.329  0.00  0.00    -0.254 N 
HETATM    3  C   UNK N   1      32.352  17.514   8.453  0.00  0.00     0.135 C 
HETATM    4 Cl   UNK N   1      30.900  18.431   8.848  0.00  0.00    -0.062 Cl
ATOM      5  HN  UNK N   1      33.195  18.102  10.157  1.00  0.00     0.195 HD
BRANCH   3   6
HETATM    6  C   UNK N   1      32.407  16.785   7.146  0.00  0.00     0.022 A 
HETATM    7  C   UNK N   1      31.823  15.513   7.043  0.00  0.00     0.137 A 
HETATM    8  N   UNK N   1      31.856  14.824   5.871  0.00  0.00    -0.246 N 
HETATM    9  C   UNK N   1      32.444  15.345   4.762  0.00  0.00     0.122 A 
HETATM   10  C   UNK N   1      33.027  16.610   4.807  0.00  0.00     0.021 A 
HETATM   11  C   UNK N   1      33.004  17.328   6.001  0.00  0.00     0.017 A 
BRANCH   8  12
HETATM   12  O   UNK N   1      31.305  13.615   5.809  0.00  0.00    -0.284 OA
ATOM     13  HO  UNK N   1      30.589  13.398   6.395  1.00  0.00     0.245 HD
ENDBRANCH   8  12
ENDBRANCH   3   6
ENDBRANCH   1   2
BRANCH   1  14
HETATM   14  C   UNK N   1      35.044  16.259  10.326  0.00  0.00     0.234 C 
BRANCH  14  15
HETATM   15  C   UNK N   1      34.402  14.952  10.794  0.00  0.00     0.172 C 
BRANCH  15  16
HETATM   16  O   UNK N   1      33.036  15.104  11.042  0.00  0.00    -0.392 OA
HETATM   17  H   UNK N   1      32.614  15.975  10.972  0.00  0.00     0.210 HD
ENDBRANCH  15  16
BRANCH  15  18
HETATM   18  C   UNK N   1      35.127  14.309  11.976  0.00  0.00     0.306 C 
BRANCH  18  19
HETATM   19  N   UNK N   1      35.631  12.977  11.661  0.00  0.00     0.091 N 
HETATM   20  C   UNK N   1      37.101  13.018  11.778  0.00  0.00     0.272 C 
HETATM   21  C   UNK N   1      37.781  13.481  10.486  0.00  0.00     0.030 C 
HETATM   22  C   UNK N   1      37.432  12.560   9.311  0.00  0.00     0.003 C 
HETATM   23  C   UNK N   1      36.147  11.763   9.542  0.00  0.00     0.030 C 
HETATM   24  C   UNK N   1      35.146  12.613  10.317  0.00  0.00     0.272 C 
ENDBRANCH  18  19
ENDBRANCH  15  18
ENDBRANCH  14  15
ENDBRANCH   1  14
TORSDOF 8
ENDMDL
MODEL 7
REMARK VINA RESULT:      -5.6      5.704      9.955
REMARK  8 active torsions:
REMARK  status: ('A' for Active; 'I' for Inactive)
REMARK    1  A    between atoms: C_16  and  O_2 
REMARK    2  A    between atoms: O_3  and  N_7 
REMARK    3  A    between atoms: O_3  and  C_17 
REMARK    4  A    between atoms: O_4  and  N_9 
REMARK    5  A    between atoms: N_6  and  C_15 
REMARK    6  A    between atoms: C_15  and  C_16 
REMARK    7  A    between atoms: C_16  and  C_17 
REMARK    8  A    between atoms: C_18  and  C_19 
ROOT
HETATM    1  O   UNK N   1      32.170  17.403   6.720  0.00  0.00    -0.277 OA
ENDROOT
BRANCH   1   2
HETATM    2  N   UNK N   1      31.540  16.293   6.375  0.00  0.00    -0.254 N 
HETATM    3  C   UNK N   1      30.292  16.239   6.021  0.00  0.00     0.135 C 
HETATM    4 Cl   UNK N   1      29.679  14.677   5.483  0.00  0.00    -0.062 Cl
ATOM      5  HN  UNK N   1      32.069  15.422   6.387  1.00  0.00     0.195 HD
BRANCH   3   6
HETATM    6  C   UNK N   1      29.359  17.409   6.042  0.00  0.00     0.022 A 
HETATM    7  C   UNK N   1      28.786  17.811   7.259  0.00  0.00     0.137 A 
HETATM    8  N   UNK N   1      27.934  18.870   7.312  0.00  0.00    -0.246 N 
HETATM    9  C   UNK N   1      27.617  19.577   6.196  0.00  0.00     0.122 A 
HETATM   10  C   UNK N   1      28.170  19.229   4.965  0.00  0.00     0.021 A 
HETATM   11  C   UNK N   1      29.042  18.145   4.893  0.00  0.00     0.017 A 
BRANCH   8  12
HETATM   12  O   UNK N   1      27.397  19.217   8.479  0.00  0.00    -0.284 OA
ATOM     13  HO  UNK N   1      27.096  18.541   9.073  1.00  0.00     0.245 HD
ENDBRANCH   8  12
ENDBRANCH   3   6
ENDBRANCH   1   2
BRANCH   1  14
HETATM   14  C   UNK N   1      32.448  17.700   8.043  0.00  0.00     0.234 C 
BRANCH  14  15
HETATM   15  C   UNK N   1      33.924  18.009   8.300  0.00  0.00     0.172 C 
BRANCH  15  16
HETATM   16  O   UNK N   1      34.639  18.153   7.108  0.00  0.00    -0.392 OA
HETATM   17  H   UNK N   1      35.576  18.406   7.120  0.00  0.00     0.210 HD
ENDBRANCH  15  16
BRANCH  15  18
HETATM   18  C   UNK N   1      34.595  17.019   9.250  0.00  0.00     0.306 C 
BRANCH  18  19
HETATM   19  N   UNK N   1      34.171  15.644   9.009  0.00  0.00     0.091 N 
HETATM   20  C   UNK N   1      33.730  15.081  10.298  0.00  0.00     0.272 C 
HETATM   21  C   UNK N   1      34.885  14.486  11.107  0.00  0.00     0.030 C 
HETATM   22  C   UNK N   1      35.594  13.370  10.330  0.00  0.00     0.003 C 
HETATM   23  C   UNK N   1      35.362  13.459   8.821  0.00  0.00     0.030 C 
HETATM   24  C   UNK N   1      35.299  14.921   8.394  0.00  0.00     0.272 C 
ENDBRANCH  18  19
ENDBRANCH  15  18
ENDBRANCH  14  15
ENDBRANCH   1  14
TORSDOF 8
ENDMDL
MODEL 8
REMARK VINA RESULT:      -5.6     12.497     14.431
REMARK  8 active torsions:
REMARK  status: ('A' for Active; 'I' for Inactive)
REMARK    1  A    between atoms: C_16  and  O_2 
REMARK    2  A    between atoms: O_3  and  N_7 
REMARK    3  A    between atoms: O_3  and  C_17 
REMARK    4  A    between atoms: O_4  and  N_9 
REMARK    5  A    between atoms: N_6  and  C_15 
REMARK    6  A    between atoms: C_15  and  C_16 
REMARK    7  A    between atoms: C_16  and  C_17 
REMARK    8  A    between atoms: C_18  and  C_19 
ROOT
HETATM    1  O   UNK N   1      22.257  14.882   7.309  0.00  0.00    -0.277 OA
ENDROOT
BRANCH   1   2
HETATM    2  N   UNK N   1      22.763  13.812   6.719  0.00  0.00    -0.254 N 
HETATM    3  C   UNK N   1      23.057  12.707   7.333  0.00  0.00     0.135 C 
HETATM    4 Cl   UNK N   1      23.608  11.360   6.340  0.00  0.00    -0.062 Cl
ATOM      5  HN  UNK N   1      22.933  13.858   5.715  1.00  0.00     0.195 HD
BRANCH   3   6
HETATM    6  C   UNK N   1      22.953  12.513   8.814  0.00  0.00     0.022 A 
HETATM    7  C   UNK N   1      24.123  12.507   9.591  0.00  0.00     0.137 A 
HETATM    8  N   UNK N   1      24.064  12.333  10.938  0.00  0.00    -0.246 N 
HETATM    9  C   UNK N   1      22.877  12.169  11.577  0.00  0.00     0.122 A 
HETATM   10  C   UNK N   1      21.685  12.181  10.855  0.00  0.00     0.021 A 
HETATM   11  C   UNK N   1      21.728  12.355   9.473  0.00  0.00     0.017 A 
BRANCH   8  12
HETATM   12  O   UNK N   1      25.192  12.319  11.644  0.00  0.00    -0.284 OA
ATOM     13  HO  UNK N   1      25.147  12.314  12.593  1.00  0.00     0.245 HD
ENDBRANCH   8  12
ENDBRANCH   3   6
ENDBRANCH   1   2
BRANCH   1  14
HETATM   14  C   UNK N   1      22.132  16.090   6.643  0.00  0.00     0.234 C 
BRANCH  14  15
HETATM   15  C   UNK N   1      23.056  16.214   5.430  0.00  0.00     0.172 C 
BRANCH  15  16
HETATM   16  O   UNK N   1      24.185  16.986   5.714  0.00  0.00    -0.392 OA
HETATM   17  H   UNK N   1      24.790  17.257   5.006  0.00  0.00     0.210 HD
ENDBRANCH  15  16
BRANCH  15  18
HETATM   18  C   UNK N   1      22.339  16.695   4.169  0.00  0.00     0.306 C 
BRANCH  18  19
HETATM   19  N   UNK N   1      21.287  17.661   4.463  0.00  0.00     0.091 N 
HETATM   20  C   UNK N   1      20.076  17.235   3.736  0.00  0.00     0.272 C 
HETATM   21  C   UNK N   1      20.035  17.765   2.300  0.00  0.00     0.030 C 
HETATM   22  C   UNK N   1      20.083  19.297   2.269  0.00  0.00     0.003 C 
HETATM   23  C   UNK N   1      20.668  19.899   3.548  0.00  0.00     0.030 C 
HETATM   24  C   UNK N   1      21.776  18.998   4.081  0.00  0.00     0.272 C 
ENDBRANCH  18  19
ENDBRANCH  15  18
ENDBRANCH  14  15
ENDBRANCH   1  14
TORSDOF 8
ENDMDL
MODEL 9
REMARK VINA RESULT:      -5.5     17.985     21.623
REMARK  8 active torsions:
REMARK  status: ('A' for Active; 'I' for Inactive)
REMARK    1  A    between atoms: C_16  and  O_2 
REMARK    2  A    between atoms: O_3  and  N_7 
REMARK    3  A    between atoms: O_3  and  C_17 
REMARK    4  A    between atoms: O_4  and  N_9 
REMARK    5  A    between atoms: N_6  and  C_15 
REMARK    6  A    between atoms: C_15  and  C_16 
REMARK    7  A    between atoms: C_16  and  C_17 
REMARK    8  A    between atoms: C_18  and  C_19 
ROOT
HETATM    1  O   UNK N   1      29.554  24.906  -4.099  0.00  0.00    -0.277 OA
ENDROOT
BRANCH   1   2
HETATM    2  N   UNK N   1      28.401  24.312  -4.357  0.00  0.00    -0.254 N 
HETATM    3  C   UNK N   1      27.340  24.926  -4.782  0.00  0.00     0.135 C 
HETATM    4 Cl   UNK N   1      25.942  23.929  -5.179  0.00  0.00    -0.062 Cl
ATOM      5  HN  UNK N   1      28.342  23.305  -4.211  1.00  0.00     0.195 HD
BRANCH   3   6
HETATM    6  C   UNK N   1      27.236  26.410  -4.956  0.00  0.00     0.022 A 
HETATM    7  C   UNK N   1      26.839  27.203  -3.868  0.00  0.00     0.137 A 
HETATM    8  N   UNK N   1      26.735  28.553  -3.992  0.00  0.00    -0.246 N 
HETATM    9  C   UNK N   1      27.019  29.179  -5.165  0.00  0.00     0.122 A 
HETATM   10  C   UNK N   1      27.431  28.438  -6.272  0.00  0.00     0.021 A 
HETATM   11  C   UNK N   1      27.540  27.054  -6.162  0.00  0.00     0.017 A 
BRANCH   8  12
HETATM   12  O   UNK N   1      26.344  29.277  -2.946  0.00  0.00    -0.284 OA
ATOM     13  HO  UNK N   1      25.590  29.849  -3.032  1.00  0.00     0.245 HD
ENDBRANCH   8  12
ENDBRANCH   3   6
ENDBRANCH   1   2
BRANCH   1  14
HETATM   14  C   UNK N   1      30.542  24.286  -3.354  0.00  0.00     0.234 C 
BRANCH  14  15
HETATM   15  C   UNK N   1      30.072  23.002  -2.669  0.00  0.00     0.172 C 
BRANCH  15  16
HETATM   16  O   UNK N   1      30.271  23.049  -1.287  0.00  0.00    -0.392 OA
HETATM   17  H   UNK N   1      30.702  23.814  -0.874  0.00  0.00     0.210 HD
ENDBRANCH  15  16
BRANCH  15  18
HETATM   18  C   UNK N   1      30.660  21.734  -3.286  0.00  0.00     0.306 C 
BRANCH  18  19
HETATM   19  N   UNK N   1      32.028  21.928  -3.755  0.00  0.00     0.091 N 
HETATM   20  C   UNK N   1      32.116  21.368  -5.116  0.00  0.00     0.272 C 
HETATM   21  C   UNK N   1      32.427  19.869  -5.116  0.00  0.00     0.030 C 
HETATM   22  C   UNK N   1      33.751  19.573  -4.404  0.00  0.00     0.003 C 
HETATM   23  C   UNK N   1      34.171  20.687  -3.444  0.00  0.00     0.030 C 
HETATM   24  C   UNK N   1      32.936  21.291  -2.784  0.00  0.00     0.272 C 
ENDBRANCH  18  19
ENDBRANCH  15  18
ENDBRANCH  14  15
ENDBRANCH   1  14
TORSDOF 8
ENDMDL
