MODEL 1
REMARK VINA RESULT:      -4.9      0.000      0.000
REMARK WARNING: 32 MAX_TORS EXCEEDED!!!
REMARK  92 active torsions:
REMARK  status: ('A' for Active; 'I' for Inactive)
REMARK       I    between atoms: C_3  and  N_4 
REMARK       I    between atoms: C_3  and  N_5 
REMARK    1  A    between atoms: N_5  and  C_6 
REMARK    2  A    between atoms: C_6  and  C_7 
REMARK    3  A    between atoms: C_7  and  C_8 
REMARK    4  A    between atoms: C_9  and  C_8 
REMARK    5  A    between atoms: C_21  and  C_22 
REMARK    6  A    between atoms: C_22  and  C_23 
REMARK    7  A    between atoms: C_32  and  N_169 
REMARK    8  A    between atoms: C_37  and  C_117 
REMARK    9  A    between atoms: C_45  and  C_46 
REMARK   10  A    between atoms: C_46  and  C_47 
REMARK   11  A    between atoms: C_57  and  C_58 
REMARK   12  A    between atoms: C_58  and  O_59 
REMARK   13  A    between atoms: C_63  and  C_64 
REMARK   14  A    between atoms: C_64  and  C_65 
REMARK   15  A    between atoms: C_65  and  C_66 
REMARK       I    between atoms: C_66  and  N_67 
REMARK   16  A    between atoms: C_81  and  C_113 
REMARK   17  A    between atoms: C_85  and  C_86 
REMARK   18  A    between atoms: C_86  and  C_87 
REMARK   19  A    between atoms: C_87  and  C_88 
REMARK   20  A    between atoms: C_88  and  N_89 
REMARK       I    between atoms: N_89  and  C_90 
REMARK       I    between atoms: C_90  and  N_91 
REMARK   21  A    between atoms: C_97  and  C_98 
REMARK   22  A    between atoms: C_98  and  C_99 
REMARK   23  A    between atoms: C_99  and  O_100 
REMARK   24  A    between atoms: C_105  and  C_106 
REMARK   25  A    between atoms: C_106  and  C_107 
REMARK   26  A    between atoms: C_107  and  S_108 
REMARK   27  A    between atoms: C_113  and  C_115 
REMARK       I    between atoms: C_117  and  N_119 
REMARK   28  A    between atoms: C_120  and  N_119 
REMARK   29  A    between atoms: C_120  and  C_121 
REMARK   30  A    between atoms: C_120  and  C_125 
REMARK   31  A    between atoms: C_121  and  C_122 
REMARK       I    between atoms: C_122  and  N_123 
REMARK       I    between atoms: C_125  and  N_127 
REMARK   32  A    between atoms: C_128  and  N_127 
REMARK   33  A    between atoms: C_128  and  C_129 
REMARK   34  A    between atoms: C_128  and  C_131 
REMARK   35  A    between atoms: C_129  and  O_130 
REMARK       I    between atoms: C_131  and  N_133 
REMARK   36  A    between atoms: C_134  and  N_133 
REMARK   37  A    between atoms: C_134  and  C_135 
REMARK   38  A    between atoms: C_134  and  C_142 
REMARK   39  A    between atoms: C_135  and  C_136 
REMARK       I    between atoms: C_142  and  N_144 
REMARK   40  A    between atoms: C_145  and  N_144 
REMARK   41  A    between atoms: C_145  and  C_146 
REMARK   42  A    between atoms: C_145  and  C_154 
REMARK   43  A    between atoms: C_146  and  C_147 
REMARK   44  A    between atoms: C_147  and  C_148 
REMARK   45  A    between atoms: C_148  and  N_149 
REMARK       I    between atoms: N_149  and  C_150 
REMARK       I    between atoms: C_150  and  N_151 
REMARK       I    between atoms: C_154  and  N_156 
REMARK   46  A    between atoms: C_157  and  N_156 
REMARK   47  A    between atoms: C_157  and  C_158 
REMARK   48  A    between atoms: C_157  and  C_166 
REMARK   49  A    between atoms: C_158  and  C_159 
REMARK   50  A    between atoms: C_162  and  O_163 
REMARK   51  A    between atoms: C_166  and  O_167 
REMARK       I    between atoms: N_169  and  C_170 
REMARK   52  A    between atoms: C_170  and  C_172 
REMARK   53  A    between atoms: C_172  and  C_173 
REMARK   54  A    between atoms: C_172  and  N_175 
REMARK   55  A    between atoms: C_173  and  O_174 
REMARK       I    between atoms: N_175  and  C_176 
REMARK   56  A    between atoms: C_176  and  C_178 
REMARK   57  A    between atoms: C_178  and  C_179 
REMARK   58  A    between atoms: C_178  and  N_181 
REMARK   59  A    between atoms: C_179  and  O_180 
REMARK       I    between atoms: N_181  and  C_182 
REMARK   60  A    between atoms: C_182  and  C_184 
REMARK   61  A    between atoms: C_184  and  C_185 
REMARK   62  A    between atoms: C_184  and  N_193 
REMARK   63  A    between atoms: C_185  and  C_186 
REMARK   64  A    between atoms: C_186  and  C_187 
REMARK   65  A    between atoms: C_187  and  N_188 
REMARK       I    between atoms: N_188  and  C_189 
REMARK       I    between atoms: C_189  and  N_190 
REMARK       I    between atoms: N_193  and  C_194 
REMARK   66  A    between atoms: C_194  and  C_196 
REMARK   67  A    between atoms: C_196  and  C_197 
REMARK   68  A    between atoms: C_196  and  N_205 
REMARK   69  A    between atoms: C_197  and  C_198 
REMARK   70  A    between atoms: C_198  and  C_199 
REMARK   71  A    between atoms: C_199  and  N_200 
REMARK       I    between atoms: N_200  and  C_201 
REMARK       I    between atoms: C_201  and  N_202 
REMARK       I    between atoms: N_205  and  C_206 
REMARK   72  A    between atoms: C_206  and  C_208 
REMARK   73  A    between atoms: C_208  and  C_209 
REMARK   74  A    between atoms: C_208  and  N_213 
REMARK   75  A    between atoms: C_209  and  C_210 
REMARK       I    between atoms: N_213  and  C_214 
REMARK   76  A    between atoms: C_214  and  C_216 
REMARK   77  A    between atoms: C_216  and  C_217 
REMARK   78  A    between atoms: C_216  and  N_219 
REMARK   79  A    between atoms: C_217  and  O_218 
REMARK       I    between atoms: N_219  and  C_220 
REMARK   80  A    between atoms: C_220  and  C_222 
REMARK   81  A    between atoms: C_222  and  C_223 
REMARK   82  A    between atoms: C_222  and  N_231 
REMARK   83  A    between atoms: C_223  and  C_224 
REMARK   84  A    between atoms: C_224  and  C_225 
REMARK   85  A    between atoms: C_225  and  N_226 
REMARK       I    between atoms: N_226  and  C_227 
REMARK       I    between atoms: C_227  and  N_228 
REMARK       I    between atoms: N_231  and  C_232 
REMARK   86  A    between atoms: C_234  and  C_232 
REMARK       I    between atoms: N_238  and  C_239 
REMARK   87  A    between atoms: C_239  and  C_241 
REMARK   88  A    between atoms: C_241  and  N_243 
REMARK       I    between atoms: N_243  and  C_244 
REMARK   89  A    between atoms: C_244  and  C_246 
REMARK   90  A    between atoms: C_246  and  N_247 
REMARK   91  A    between atoms: C_246  and  C_248 
REMARK   92  A    between atoms: C_248  and  O_250 
ROOT
HETATM    1  C   UNK N   1      20.082  11.902   4.178  0.00  0.00     0.176 C 
HETATM    2  N   UNK N   1      19.375  12.925   4.913  0.00  0.00    -0.346 N 
HETATM    3  C   UNK N   1      19.960  14.013   5.477  0.00  0.00     0.236 C 
HETATM    4  O   UNK N   1      19.262  14.818   6.070  0.00  0.00    -0.272 OA
HETATM    5  C   UNK N   1      21.416  14.324   5.311  0.00  0.00     0.225 C 
HETATM    6  N   UNK N   1      22.282  13.382   5.971  0.00  0.00    -0.351 N 
HETATM    7  C   UNK N   1      23.173  12.651   5.263  0.00  0.00     0.235 C 
HETATM    8  O   UNK N   1      23.194  12.710   4.044  0.00  0.00    -0.272 OA
HETATM    9  C   UNK N   1      24.184  11.821   5.970  0.00  0.00     0.225 C 
HETATM   10  N   UNK N   1      25.338  12.639   6.241  0.00  0.00    -0.351 N 
HETATM   11  C   UNK N   1      26.369  12.769   5.373  0.00  0.00     0.241 C 
HETATM   12  O   UNK N   1      27.303  13.498   5.669  0.00  0.00    -0.271 OA
HETATM   13  C   UNK N   1      26.410  12.023   4.065  0.00  0.00     0.180 C 
HETATM   14  N   UNK N   1      27.639  11.269   4.053  0.00  0.00    -0.346 N 
HETATM   15  C   UNK N   1      28.069  10.655   2.927  0.00  0.00     0.242 C 
HETATM   16  O   UNK N   1      27.345  10.548   1.960  0.00  0.00    -0.271 OA
HETATM   17  C   UNK N   1      29.488  10.413   2.712  0.00  0.00     0.186 C 
HETATM   18  C   UNK N   1      30.435  10.440   3.871  0.00  0.00     0.120 C 
HETATM   19  S   UNK N   1      30.675   8.740   4.419  0.00  0.00    -0.095 SA
HETATM   20  S   UNK N   1      30.689   7.820   2.452  0.00  0.00    -0.095 SA
HETATM   21  C   UNK N   1      32.083   8.688   1.640  0.00  0.00     0.120 C 
HETATM   22  C   UNK N   1      33.129   9.412   2.484  0.00  0.00     0.186 C 
HETATM   23  N   UNK N   1      33.502   8.699   3.686  0.00  0.00    -0.346 N 
HETATM   24  C   UNK N   1      34.786   8.632   4.106  0.00  0.00     0.236 C 
HETATM   25  O   UNK N   1      35.059   7.985   5.105  0.00  0.00    -0.272 OA
HETATM   26  C   UNK N   1      35.880   9.338   3.358  0.00  0.00     0.225 C 
HETATM   27  N   UNK N   1      35.758   9.062   1.945  0.00  0.00    -0.351 N 
HETATM   28  C   UNK N   1      36.780   8.712   1.131  0.00  0.00     0.240 C 
HETATM   29  O   UNK N   1      36.540   8.463  -0.042  0.00  0.00    -0.271 OA
HETATM   30  C   UNK N   1      38.185   8.574   1.656  0.00  0.00     0.177 C 
HETATM   31  N   UNK N   1      39.053   8.159   0.580  0.00  0.00    -0.346 N 
HETATM   32  C   UNK N   1      39.666   6.954   0.576  0.00  0.00     0.236 C 
HETATM   33  O   UNK N   1      40.290   6.609  -0.414  0.00  0.00    -0.272 OA
HETATM   34  C   UNK N   1      39.572   6.017   1.749  0.00  0.00     0.225 C 
HETATM   35  N   UNK N   1      40.863   5.414   1.960  0.00  0.00    -0.350 N 
HETATM   36  C   UNK N   1      41.099   4.133   2.355  0.00  0.00     0.242 C 
HETATM   37  O   UNK N   1      42.262   3.776   2.451  0.00  0.00    -0.271 OA
HETATM   38  C   UNK N   1      40.014   3.126   2.745  0.00  0.00     0.200 C 
HETATM   39  N   UNK N   1      38.671   3.471   2.324  0.00  0.00    -0.344 N 
HETATM   40  C   UNK N   1      37.565   2.692   2.544  0.00  0.00     0.241 C 
HETATM   41  O   UNK N   1      37.670   1.608   3.098  0.00  0.00    -0.271 OA
HETATM   42  C   UNK N   1      36.195   3.186   2.138  0.00  0.00     0.177 C 
HETATM   43  N   UNK N   1      36.404   4.576   1.786  0.00  0.00    -0.346 N 
HETATM   44  C   UNK N   1      35.722   5.664   2.205  0.00  0.00     0.240 C 
HETATM   45  O   UNK N   1      36.380   6.588   2.617  0.00  0.00    -0.271 OA
HETATM   46  C   UNK N   1      34.243   5.701   2.448  0.00  0.00     0.172 C 
HETATM   47  C   UNK N   1      33.488   4.830   1.448  0.00  0.00     0.042 C 
HETATM   48  N   UNK N   1      34.051   5.336   3.824  0.00  0.00    -0.347 N 
HETATM   49  C   UNK N   1      32.896   5.033   4.441  0.00  0.00     0.236 C 
HETATM   50  O   UNK N   1      32.933   4.682   5.609  0.00  0.00    -0.272 OA
HETATM   51  C   UNK N   1      31.582   5.093   3.757  0.00  0.00     0.225 C 
HETATM   52  N   UNK N   1      30.718   5.765   4.675  0.00  0.00    -0.351 N 
HETATM   53  C   UNK N   1      29.391   5.596   4.724  0.00  0.00     0.241 C 
HETATM   54  O   UNK N   1      28.771   6.151   5.616  0.00  0.00    -0.271 OA
HETATM   55  C   UNK N   1      28.665   4.757   3.700  0.00  0.00     0.180 C 
HETATM   56  N   UNK N   1      27.560   5.521   3.141  0.00  0.00    -0.346 N 
HETATM   57  C   UNK N   1      26.476   5.876   3.875  0.00  0.00     0.241 C 
HETATM   58  O   UNK N   1      26.336   5.435   5.005  0.00  0.00    -0.271 OA
HETATM   59  C   UNK N   1      25.439   6.815   3.326  0.00  0.00     0.176 C 
HETATM   60  N   UNK N   1      24.369   6.948   4.290  0.00  0.00    -0.346 N 
HETATM   61  C   UNK N   1      24.521   7.400   5.563  0.00  0.00     0.241 C 
HETATM   62  O   UNK N   1      25.551   7.958   5.917  0.00  0.00    -0.271 OA
HETATM   63  C   UNK N   1      23.482   7.061   6.586  0.00  0.00     0.186 C 
HETATM   64  N   UNK N   1      22.191   7.662   6.336  0.00  0.00    -0.346 N 
HETATM   65  C   UNK N   1      21.395   7.413   5.265  0.00  0.00     0.241 C 
HETATM   66  O   UNK N   1      21.715   6.603   4.413  0.00  0.00    -0.271 OA
HETATM   67  C   UNK N   1      20.141   8.203   5.079  0.00  0.00     0.177 C 
HETATM   68  N   UNK N   1      20.473   9.609   4.991  0.00  0.00    -0.346 N 
HETATM   69  C   UNK N   1      19.586  10.551   4.594  0.00  0.00     0.241 C 
HETATM   70  O   UNK N   1      18.405  10.267   4.446  0.00  0.00    -0.271 OA
HETATM   71  H   UNK N   1      18.400  12.828   5.010  0.00  0.00     0.163 HD
HETATM   72  H   UNK N   1      22.227  13.270   6.948  0.00  0.00     0.163 HD
HETATM   73  H   UNK N   1      25.379  13.125   7.096  0.00  0.00     0.163 HD
HETATM   74  H   UNK N   1      28.173  11.199   4.878  0.00  0.00     0.163 HD
HETATM   75  H   UNK N   1      32.802   8.252   4.213  0.00  0.00     0.163 HD
HETATM   76  H   UNK N   1      34.862   9.133   1.543  0.00  0.00     0.163 HD
HETATM   77  H   UNK N   1      39.202   8.773  -0.176  0.00  0.00     0.163 HD
HETATM   78  H   UNK N   1      41.652   5.983   1.803  0.00  0.00     0.163 HD
HETATM   79  H   UNK N   1      38.544   4.323   1.848  0.00  0.00     0.163 HD
HETATM   80  H   UNK N   1      37.140   4.751   1.158  0.00  0.00     0.163 HD
HETATM   81  H   UNK N   1      34.862   5.303   4.383  0.00  0.00     0.163 HD
HETATM   82  H   UNK N   1      31.125   6.394   5.315  0.00  0.00     0.163 HD
HETATM   83  H   UNK N   1      27.600   5.792   2.195  0.00  0.00     0.163 HD
HETATM   84  H   UNK N   1      23.463   6.692   4.002  0.00  0.00     0.163 HD
HETATM   85  H   UNK N   1      21.859   8.309   7.001  0.00  0.00     0.163 HD
HETATM   86  H   UNK N   1      21.385   9.894   5.230  0.00  0.00     0.163 HD
ENDROOT
BRANCH  17  87
HETATM   87  N   UNK N   1      29.928  10.957   1.445  0.00  0.00    -0.345 N 
HETATM   88  C   UNK N   1      29.991  12.279   1.121  0.00  0.00     0.243 C 
HETATM   89  O   UNK N   1      29.865  12.581  -0.053  0.00  0.00    -0.271 OA
HETATM   90  H   UNK N   1      30.209  10.313   0.754  0.00  0.00     0.163 HD
BRANCH  88  91
HETATM   91  C   UNK N   1      30.060  13.402   2.131  0.00  0.00     0.200 C 
BRANCH  91  92
HETATM   92  C   UNK N   1      28.868  14.355   2.192  0.00  0.00     0.199 C 
BRANCH  92  93
HETATM   93  O   UNK N   1      28.543  14.823   0.918  0.00  0.00    -0.398 OA
HETATM   94  H   UNK N   1      28.415  15.754   0.677  0.00  0.00     0.209 HD
ENDBRANCH  92  93
ENDBRANCH  91  92
BRANCH  91  95
HETATM   95  N   UNK N   1      30.234  12.893   3.465  0.00  0.00    -0.344 N 
HETATM   96  C   UNK N   1      30.829  13.643   4.409  0.00  0.00     0.243 C 
HETATM   97  O   UNK N   1      30.752  13.304   5.577  0.00  0.00    -0.271 OA
HETATM   98  H   UNK N   1      29.916  11.990   3.688  0.00  0.00     0.163 HD
BRANCH  96  99
HETATM   99  C   UNK N   1      31.547  14.902   4.010  0.00  0.00     0.200 C 
BRANCH  99 100
HETATM  100  C   UNK N   1      32.581  14.914   2.894  0.00  0.00     0.199 C 
BRANCH 100 101
HETATM  101  O   UNK N   1      33.723  14.216   3.282  0.00  0.00    -0.398 OA
HETATM  102  H   UNK N   1      33.887  13.351   3.688  0.00  0.00     0.209 HD
ENDBRANCH 100 101
ENDBRANCH  99 100
BRANCH  99 103
HETATM  103  N   UNK N   1      30.875  16.158   4.288  0.00  0.00    -0.344 N 
HETATM  104  C   UNK N   1      31.052  16.956   5.376  0.00  0.00     0.241 C 
HETATM  105  O   UNK N   1      30.354  17.946   5.502  0.00  0.00    -0.271 OA
HETATM  106  H   UNK N   1      30.223  16.466   3.618  0.00  0.00     0.163 HD
BRANCH 104 107
HETATM  107  C   UNK N   1      32.029  16.633   6.464  0.00  0.00     0.176 C 
BRANCH 107 108
HETATM  108  C   UNK N   1      31.759  17.520   7.665  0.00  0.00     0.036 C 
BRANCH 108 109
HETATM  109  C   UNK N   1      30.956  16.750   8.680  0.00  0.00     0.023 C 
BRANCH 109 110
HETATM  110  C   UNK N   1      29.905  17.605   9.363  0.00  0.00     0.138 C 
BRANCH 110 111
HETATM  111  N   UNK N   1      29.209  18.468   8.442  0.00  0.00    -0.227 N 
HETATM  112  C   UNK N   1      28.039  18.077   7.747  0.00  0.00     0.665 C 
HETATM  113  N   UNK N   1      27.333  16.906   8.108  0.00  0.00    -0.235 N 
HETATM  114  N   UNK N   1      27.597  18.819   6.808  0.00  0.00    -0.235 N 
HETATM  115  H   UNK N   1      26.794  16.087   8.024  0.00  0.00     0.174 HD
HETATM  116  H   UNK N   1      27.471  16.919   9.082  0.00  0.00     0.174 HD
HETATM  117  H   UNK N   1      27.154  19.678   7.001  0.00  0.00     0.174 HD
ATOM    118  HN  UNK N   1      27.703  18.518   5.840  1.00  0.00     0.174 HD
HETATM  119  H   UNK N   1      29.564  19.374   8.288  0.00  0.00     0.177 HD
ENDBRANCH 110 111
ENDBRANCH 109 110
ENDBRANCH 108 109
ENDBRANCH 107 108
BRANCH 107 120
HETATM  120  N   UNK N   1      33.396  16.704   5.965  0.00  0.00    -0.346 N 
HETATM  121  C   UNK N   1      34.346  15.828   6.385  0.00  0.00     0.241 C 
HETATM  122  O   UNK N   1      35.457  15.839   5.876  0.00  0.00    -0.271 OA
HETATM  123  H   UNK N   1      33.636  17.399   5.311  0.00  0.00     0.163 HD
BRANCH 121 124
HETATM  124  C   UNK N   1      34.039  14.938   7.552  0.00  0.00     0.176 C 
BRANCH 124 125
HETATM  125  C   UNK N   1      33.763  13.477   7.258  0.00  0.00     0.036 C 
BRANCH 125 126
HETATM  126  C   UNK N   1      35.081  12.726   7.326  0.00  0.00     0.023 C 
BRANCH 126 127
HETATM  127  C   UNK N   1      35.242  11.795   6.140  0.00  0.00     0.138 C 
BRANCH 127 128
HETATM  128  N   UNK N   1      35.363  12.568   4.932  0.00  0.00    -0.227 N 
HETATM  129  C   UNK N   1      36.615  12.749   4.291  0.00  0.00     0.665 C 
HETATM  130  N   UNK N   1      36.691  13.507   3.104  0.00  0.00    -0.235 N 
HETATM  131  N   UNK N   1      37.686  12.263   4.803  0.00  0.00    -0.235 N 
HETATM  132  H   UNK N   1      37.145  13.280   2.259  0.00  0.00     0.174 HD
HETATM  133  H   UNK N   1      36.231  14.377   3.121  0.00  0.00     0.174 HD
HETATM  134  H   UNK N   1      37.927  11.784   5.629  0.00  0.00     0.174 HD
ATOM    135  HN  UNK N   1      38.496  12.411   4.200  1.00  0.00     0.174 HD
HETATM  136  H   UNK N   1      34.558  12.980   4.542  0.00  0.00     0.177 HD
ENDBRANCH 127 128
ENDBRANCH 126 127
ENDBRANCH 125 126
ENDBRANCH 124 125
BRANCH 124 137
HETATM  137  N   UNK N   1      35.128  15.160   8.464  0.00  0.00    -0.346 N 
HETATM  138  C   UNK N   1      34.958  15.091   9.808  0.00  0.00     0.241 C 
HETATM  139  O   UNK N   1      33.855  15.252  10.312  0.00  0.00    -0.271 OA
HETATM  140  H   UNK N   1      36.020  15.367   8.104  0.00  0.00     0.163 HD
BRANCH 138 141
HETATM  141  C   UNK N   1      36.041  14.489  10.626  0.00  0.00     0.177 C 
BRANCH 141 142
HETATM  142  C   UNK N   1      37.273  14.529   9.725  0.00  0.00     0.038 C 
BRANCH 142 143
HETATM  143  C   UNK N   1      37.893  13.184   9.427  0.00  0.00    -0.020 C 
HETATM  144  C   UNK N   1      38.774  12.752  10.582  0.00  0.00     0.009 C 
HETATM  145  C   UNK N   1      38.737  13.304   8.172  0.00  0.00     0.009 C 
ENDBRANCH 142 143
ENDBRANCH 141 142
BRANCH 141 146
HETATM  146  N   UNK N   1      36.325  15.113  11.911  0.00  0.00    -0.346 N 
HETATM  147  C   UNK N   1      36.309  14.615  13.182  0.00  0.00     0.243 C 
HETATM  148  O   UNK N   1      36.597  15.376  14.092  0.00  0.00    -0.271 OA
HETATM  149  H   UNK N   1      36.571  16.064  11.853  0.00  0.00     0.163 HD
BRANCH 147 150
HETATM  150  C   UNK N   1      35.959  13.169  13.532  0.00  0.00     0.200 C 
BRANCH 150 151
HETATM  151  C   UNK N   1      35.215  13.069  14.863  0.00  0.00     0.199 C 
BRANCH 151 152
HETATM  152  O   UNK N   1      36.091  13.220  15.937  0.00  0.00    -0.398 OA
HETATM  153  H   UNK N   1      37.054  13.124  15.864  0.00  0.00     0.209 HD
ENDBRANCH 151 152
ENDBRANCH 150 151
BRANCH 150 154
HETATM  154  N   UNK N   1      37.047  12.199  13.512  0.00  0.00    -0.344 N 
HETATM  155  C   UNK N   1      36.987  10.864  13.272  0.00  0.00     0.241 C 
HETATM  156  O   UNK N   1      38.015  10.207  13.351  0.00  0.00    -0.271 OA
HETATM  157  H   UNK N   1      37.944  12.558  13.696  0.00  0.00     0.163 HD
BRANCH 155 158
HETATM  158  C   UNK N   1      35.714  10.179  12.882  0.00  0.00     0.176 C 
BRANCH 158 159
HETATM  159  C   UNK N   1      35.396   9.045  13.853  0.00  0.00     0.036 C 
BRANCH 159 160
HETATM  160  C   UNK N   1      35.980   7.747  13.316  0.00  0.00     0.023 C 
BRANCH 160 161
HETATM  161  C   UNK N   1      36.796   7.028  14.374  0.00  0.00     0.138 C 
BRANCH 161 162
HETATM  162  N   UNK N   1      36.536   7.585  15.678  0.00  0.00    -0.227 N 
HETATM  163  C   UNK N   1      37.594   8.028  16.516  0.00  0.00     0.665 C 
HETATM  164  N   UNK N   1      38.941   7.821  16.143  0.00  0.00    -0.235 N 
HETATM  165  N   UNK N   1      37.327   8.599  17.631  0.00  0.00    -0.235 N 
HETATM  166  H   UNK N   1      39.717   8.192  16.622  0.00  0.00     0.174 HD
HETATM  167  H   UNK N   1      39.116   7.266  15.349  0.00  0.00     0.174 HD
HETATM  168  H   UNK N   1      36.518   8.354  18.136  0.00  0.00     0.174 HD
ATOM    169  HN  UNK N   1      37.958   9.312  17.999  1.00  0.00     0.174 HD
HETATM  170  H   UNK N   1      35.607   7.661  15.993  0.00  0.00     0.177 HD
ENDBRANCH 161 162
ENDBRANCH 160 161
ENDBRANCH 159 160
ENDBRANCH 158 159
BRANCH 158 171
HETATM  171  N   UNK N   1      35.911   9.620  11.585  0.00  0.00    -0.346 N 
HETATM  172  C   UNK N   1      35.539  10.181  10.414  0.00  0.00     0.241 C 
HETATM  173  O   UNK N   1      34.983  11.271  10.378  0.00  0.00    -0.271 OA
HETATM  174  H   UNK N   1      36.358   8.744  11.538  0.00  0.00     0.163 HD
BRANCH 172 175
HETATM  175  C   UNK N   1      35.714   9.353   9.175  0.00  0.00     0.179 C 
HETATM  176  C   UNK N   1      37.090   9.626   8.592  0.00  0.00     0.037 C 
HETATM  177  C   UNK N   1      38.032   8.614   9.244  0.00  0.00     0.022 C 
HETATM  178  C   UNK N   1      37.148   7.503   9.799  0.00  0.00     0.127 C 
HETATM  179  N   UNK N   1      35.808   7.990   9.653  0.00  0.00    -0.337 N 
HETATM  180  C   UNK N   1      34.710   7.253   9.986  0.00  0.00     0.243 C 
HETATM  181  O   UNK N   1      34.845   6.170  10.549  0.00  0.00    -0.271 OA
BRANCH 180 182
HETATM  182  C   UNK N   1      33.356   7.678   9.469  0.00  0.00     0.172 C 
HETATM  183  C   UNK N   1      32.665   8.735  10.324  0.00  0.00     0.042 C 
BRANCH 182 184
HETATM  184  N   UNK N   1      32.605   6.434   9.432  0.00  0.00    -0.346 N 
HETATM  185  C   UNK N   1      31.525   6.270   8.614  0.00  0.00     0.243 C 
HETATM  186  O   UNK N   1      31.371   6.991   7.638  0.00  0.00    -0.271 OA
HETATM  187  H   UNK N   1      32.885   5.690  10.012  0.00  0.00     0.163 HD
BRANCH 185 188
HETATM  188  C   UNK N   1      30.378   5.402   9.061  0.00  0.00     0.196 C 
BRANCH 188 189
HETATM  189  N   UNK N   1      29.797   4.669   7.945  0.00  0.00    -0.417 N 
HETATM  190  H   UNK N   1      28.864   4.371   7.659  0.00  0.00     0.150 HD
HETATM  191  H   UNK N   1      30.508   4.379   7.273  0.00  0.00     0.150 HD
ENDBRANCH 188 189
BRANCH 188 192
HETATM  192  C   UNK N   1      29.301   6.097   9.882  0.00  0.00     0.145 C 
HETATM  193  C   UNK N   1      29.439   5.658  11.329  0.00  0.00     0.042 C 
BRANCH 192 194
HETATM  194  O   UNK N   1      29.465   7.481   9.828  0.00  0.00    -0.393 OA
HETATM  195  H   UNK N   1      30.149   8.091   9.507  0.00  0.00     0.210 HD
ENDBRANCH 192 194
ENDBRANCH 188 192
ENDBRANCH 185 188
ENDBRANCH 182 184
ENDBRANCH 180 182
ENDBRANCH 172 175
ENDBRANCH 158 171
ENDBRANCH 155 158
ENDBRANCH 150 154
ENDBRANCH 147 150
ENDBRANCH 141 146
ENDBRANCH 138 141
ENDBRANCH 124 137
ENDBRANCH 121 124
ENDBRANCH 107 120
ENDBRANCH 104 107
ENDBRANCH  99 103
ENDBRANCH  96  99
ENDBRANCH  91  95
ENDBRANCH  88  91
ENDBRANCH  17  87
BRANCH  13 196
HETATM  196  C   UNK N   1      26.574  13.029   2.928  0.00  0.00     0.073 C 
BRANCH 196 197
HETATM  197  C   UNK N   1      25.531  13.236   1.914  0.00  0.00    -0.056 A 
HETATM  198  C   UNK N   1      25.054  12.141   1.200  0.00  0.00     0.007 A 
HETATM  199  C   UNK N   1      23.895  12.269   0.440  0.00  0.00     0.001 A 
HETATM  200  C   UNK N   1      23.213  13.490   0.393  0.00  0.00     0.000 A 
HETATM  201  C   UNK N   1      23.689  14.587   1.114  0.00  0.00     0.001 A 
HETATM  202  C   UNK N   1      24.836  14.451   1.897  0.00  0.00     0.007 A 
ENDBRANCH 196 197
ENDBRANCH  13 196
BRANCH  22 203
HETATM  203  C   UNK N   1      33.019  10.917   2.647  0.00  0.00     0.242 C 
HETATM  204  O   UNK N   1      32.790  11.384   3.752  0.00  0.00    -0.271 OA
HETATM  205  N   UNK N   1      33.212  11.768   1.601  0.00  0.00    -0.346 N 
HETATM  206  H   UNK N   1      33.098  12.733   1.759  0.00  0.00     0.163 HD
BRANCH 205 207
HETATM  207  C   UNK N   1      33.574  11.331   0.265  0.00  0.00     0.185 C 
BRANCH 207 208
HETATM  208  C   UNK N   1      32.776  11.910  -0.908  0.00  0.00     0.137 C 
BRANCH 208 209
HETATM  209  C   UNK N   1      31.924  11.007  -1.744  0.00  0.00     0.217 C 
HETATM  210  N   UNK N   1      31.496   9.848  -1.208  0.00  0.00    -0.370 N 
HETATM  211  H   UNK N   1      31.905   8.953  -1.238  0.00  0.00     0.159 HD
HETATM  212  H   UNK N   1      30.648   9.904  -0.711  0.00  0.00     0.159 HD
HETATM  213  O   UNK N   1      31.593  11.308  -2.879  0.00  0.00    -0.274 OA
ENDBRANCH 208 209
ENDBRANCH 207 208
BRANCH 207 214
HETATM  214  C   UNK N   1      35.034  11.445  -0.026  0.00  0.00     0.241 C 
HETATM  215  O   UNK N   1      35.773  11.829   0.864  0.00  0.00    -0.271 OA
HETATM  216  N   UNK N   1      35.564  11.146  -1.239  0.00  0.00    -0.344 N 
HETATM  217  H   UNK N   1      36.538  11.248  -1.334  0.00  0.00     0.163 HD
BRANCH 216 218
HETATM  218  C   UNK N   1      34.836  10.691  -2.409  0.00  0.00     0.200 C 
BRANCH 218 219
HETATM  219  C   UNK N   1      35.273  11.534  -3.584  0.00  0.00     0.199 C 
BRANCH 219 220
HETATM  220  O   UNK N   1      34.156  12.113  -4.192  0.00  0.00    -0.398 OA
HETATM  221  H   UNK N   1      33.859  13.002  -4.441  0.00  0.00     0.209 HD
ENDBRANCH 219 220
ENDBRANCH 218 219
BRANCH 218 222
HETATM  222  C   UNK N   1      35.153   9.266  -2.731  0.00  0.00     0.243 C 
HETATM  223  O   UNK N   1      36.135   9.008  -3.411  0.00  0.00    -0.271 OA
HETATM  224  N   UNK N   1      34.335   8.267  -2.300  0.00  0.00    -0.346 N 
HETATM  225  H   UNK N   1      33.552   8.479  -1.743  0.00  0.00     0.163 HD
BRANCH 224 226
HETATM  226  C   UNK N   1      34.615   6.895  -2.656  0.00  0.00     0.180 C 
BRANCH 226 227
HETATM  227  C   UNK N   1      34.690   5.948  -1.448  0.00  0.00     0.073 C 
BRANCH 227 228
HETATM  228  C   UNK N   1      35.745   4.861  -1.564  0.00  0.00    -0.056 A 
HETATM  229  C   UNK N   1      37.091   5.220  -1.681  0.00  0.00     0.007 A 
HETATM  230  C   UNK N   1      38.078   4.231  -1.780  0.00  0.00     0.001 A 
HETATM  231  C   UNK N   1      37.728   2.877  -1.756  0.00  0.00     0.000 A 
HETATM  232  C   UNK N   1      36.390   2.509  -1.635  0.00  0.00     0.001 A 
HETATM  233  C   UNK N   1      35.411   3.494  -1.542  0.00  0.00     0.007 A 
ENDBRANCH 227 228
ENDBRANCH 226 227
BRANCH 226 234
HETATM  234  C   UNK N   1      33.717   6.408  -3.770  0.00  0.00     0.241 C 
HETATM  235  O   UNK N   1      34.034   6.665  -4.919  0.00  0.00    -0.271 OA
HETATM  236  N   UNK N   1      32.610   5.666  -3.553  0.00  0.00    -0.346 N 
HETATM  237  H   UNK N   1      32.155   5.287  -4.339  0.00  0.00     0.163 HD
BRANCH 236 238
HETATM  238  C   UNK N   1      32.040   5.387  -2.257  0.00  0.00     0.176 C 
BRANCH 238 239
HETATM  239  C   UNK N   1      31.718   3.887  -2.107  0.00  0.00     0.036 C 
BRANCH 239 240
HETATM  240  C   UNK N   1      30.998   3.451  -0.839  0.00  0.00     0.023 C 
BRANCH 240 241
HETATM  241  C   UNK N   1      31.447   2.074  -0.357  0.00  0.00     0.138 C 
BRANCH 241 242
HETATM  242  N   UNK N   1      31.021   1.037  -1.264  0.00  0.00    -0.227 N 
HETATM  243  C   UNK N   1      29.887   0.231  -1.001  0.00  0.00     0.665 C 
HETATM  244  N   UNK N   1      29.059   0.495   0.116  0.00  0.00    -0.235 N 
HETATM  245  N   UNK N   1      29.585  -0.719  -1.804  0.00  0.00    -0.235 N 
HETATM  246  H   UNK N   1      28.150   0.129   0.197  0.00  0.00     0.174 HD
HETATM  247  H   UNK N   1      29.406   1.068   0.837  0.00  0.00     0.174 HD
HETATM  248  H   UNK N   1      30.109  -0.892  -2.619  0.00  0.00     0.174 HD
ATOM    249  HN  UNK N   1      28.782  -1.312  -1.594  1.00  0.00     0.174 HD
HETATM  250  H   UNK N   1      31.534   0.884  -2.090  0.00  0.00     0.177 HD
ENDBRANCH 241 242
ENDBRANCH 240 241
ENDBRANCH 239 240
ENDBRANCH 238 239
BRANCH 238 251
HETATM  251  C   UNK N   1      30.750   6.151  -2.263  0.00  0.00     0.241 C 
HETATM  252  O   UNK N   1      30.470   6.859  -1.309  0.00  0.00    -0.271 OA
HETATM  253  N   UNK N   1      30.007   6.206  -3.390  0.00  0.00    -0.345 N 
HETATM  254  H   UNK N   1      30.096   5.488  -4.057  0.00  0.00     0.163 HD
BRANCH 253 255
HETATM  255  C   UNK N   1      29.092   7.283  -3.639  0.00  0.00     0.186 C 
BRANCH 255 256
HETATM  256  C   UNK N   1      28.030   6.867  -4.641  0.00  0.00     0.074 C 
BRANCH 256 257
HETATM  257  C   UNK N   1      26.667   6.932  -4.020  0.00  0.00    -0.056 A 
HETATM  258  C   UNK N   1      26.113   5.784  -3.446  0.00  0.00     0.010 A 
HETATM  259  C   UNK N   1      24.862   5.844  -2.822  0.00  0.00     0.037 A 
HETATM  260  C   UNK N   1      24.158   7.051  -2.777  0.00  0.00     0.065 A 
HETATM  261  C   UNK N   1      24.700   8.198  -3.357  0.00  0.00     0.037 A 
HETATM  262  C   UNK N   1      25.955   8.142  -3.969  0.00  0.00     0.010 A 
BRANCH 260 263
HETATM  263  O   UNK N   1      22.961   7.106  -2.173  0.00  0.00    -0.361 OA
HETATM  264  H   UNK N   1      22.131   7.166  -2.603  0.00  0.00     0.217 HD
ENDBRANCH 260 263
ENDBRANCH 256 257
ENDBRANCH 255 256
BRANCH 255 265
HETATM  265  C   UNK N   1      29.879   8.496  -4.046  0.00  0.00     0.163 C 
HETATM  266  O   UNK N   1      30.949   8.368  -4.615  0.00  0.00    -0.648 OA
BRANCH 265 267
HETATM  267  O   UNK N   1      29.385   9.734  -3.829  0.00  0.00    -0.775 OA
HETATM  268  H   UNK N   1      28.619  10.036  -4.276  0.00  0.00     0.167 HD
ENDBRANCH 265 267
ENDBRANCH 255 265
ENDBRANCH 253 255
ENDBRANCH 238 251
ENDBRANCH 236 238
ENDBRANCH 226 234
ENDBRANCH 224 226
ENDBRANCH 218 222
ENDBRANCH 216 218
ENDBRANCH 207 214
ENDBRANCH 205 207
ENDBRANCH  22 203
BRANCH  30 269
HETATM  269  C   UNK N   1      38.611   9.887   2.318  0.00  0.00     0.038 C 
BRANCH 269 270
HETATM  270  C   UNK N   1      39.797  10.616   1.727  0.00  0.00    -0.020 C 
HETATM  271  C   UNK N   1      39.295  11.884   1.068  0.00  0.00     0.009 C 
HETATM  272  C   UNK N   1      40.792  10.972   2.808  0.00  0.00     0.009 C 
ENDBRANCH 269 270
ENDBRANCH  30 269
BRANCH   1 273
HETATM  273  C   UNK N   1      19.770  12.007   2.688  0.00  0.00     0.036 C 
BRANCH 273 274
HETATM  274  C   UNK N   1      18.961  13.234   2.340  0.00  0.00     0.023 C 
BRANCH 274 275
HETATM  275  C   UNK N   1      19.838  14.201   1.585  0.00  0.00     0.138 C 
BRANCH 275 276
HETATM  276  N   UNK N   1      19.632  15.510   2.131  0.00  0.00    -0.227 N 
HETATM  277  C   UNK N   1      19.661  16.684   1.345  0.00  0.00     0.665 C 
HETATM  278  N   UNK N   1      19.803  16.612   0.074  0.00  0.00    -0.235 N 
HETATM  279  N   UNK N   1      19.383  17.927   1.948  0.00  0.00    -0.235 N 
HETATM  280  H   UNK N   1      20.502  17.125  -0.393  0.00  0.00     0.174 HD
ATOM    281  HN  UNK N   1      19.180  16.011  -0.466  1.00  0.00     0.174 HD
HETATM  282  H   UNK N   1      18.818  18.371   2.622  0.00  0.00     0.174 HD
HETATM  283  H   UNK N   1      19.973  18.605   1.546  0.00  0.00     0.174 HD
HETATM  284  H   UNK N   1      19.463  15.595   3.097  0.00  0.00     0.177 HD
ENDBRANCH 275 276
ENDBRANCH 274 275
ENDBRANCH 273 274
ENDBRANCH   1 273
BRANCH  67 285
HETATM  285  C   UNK N   1      18.982   7.919   6.047  0.00  0.00     0.045 C 
BRANCH 285 286
HETATM  286  C   UNK N   1      18.076   6.746   5.701  0.00  0.00     0.076 C 
BRANCH 286 287
HETATM  287  S   UNK N   1      17.863   6.600   3.897  0.00  0.00    -0.173 SA
HETATM  288  C   UNK N   1      18.596   4.941   3.845  0.00  0.00     0.089 C 
ENDBRANCH 286 287
ENDBRANCH 285 286
ENDBRANCH  67 285
BRANCH  38 289
HETATM  289  C   UNK N   1      40.397   1.728   2.284  0.00  0.00     0.199 C 
BRANCH 289 290
HETATM  290  O   UNK N   1      40.655   1.763   0.912  0.00  0.00    -0.398 OA
HETATM  291  H   UNK N   1      40.043   1.738   0.161  0.00  0.00     0.209 HD
ENDBRANCH 289 290
ENDBRANCH  38 289
BRANCH  63 292
HETATM  292  C   UNK N   1      23.449   5.582   7.046  0.00  0.00     0.144 C 
BRANCH 292 293
HETATM  293  C   UNK N   1      24.565   4.965   7.870  0.00  0.00     0.141 C 
HETATM  294  O   UNK N   1      25.285   5.700   8.523  0.00  0.00    -0.650 OA
BRANCH 293 295
HETATM  295  O   UNK N   1      24.800   3.643   7.894  0.00  0.00    -0.776 OA
HETATM  296  H   UNK N   1      24.987   2.801   7.527  0.00  0.00     0.167 HD
ENDBRANCH 293 295
ENDBRANCH 292 293
ENDBRANCH  63 292
BRANCH  42 297
HETATM  297  C   UNK N   1      35.335   3.015   3.390  0.00  0.00     0.044 C 
BRANCH 297 298
HETATM  298  C   UNK N   1      34.385   1.835   3.291  0.00  0.00     0.105 C 
BRANCH 298 299
HETATM  299  C   UNK N   1      33.960   1.421   4.664  0.00  0.00     0.215 C 
HETATM  300  N   UNK N   1      34.504   2.014   5.744  0.00  0.00    -0.370 N 
HETATM  301  H   UNK N   1      34.511   1.660   6.663  0.00  0.00     0.159 HD
HETATM  302  H   UNK N   1      34.938   2.886   5.600  0.00  0.00     0.159 HD
HETATM  303  O   UNK N   1      33.134   0.536   4.811  0.00  0.00    -0.274 OA
ENDBRANCH 298 299
ENDBRANCH 297 298
ENDBRANCH  42 297
BRANCH  59 304
HETATM  304  C   UNK N   1      25.993   8.164   2.922  0.00  0.00     0.036 C 
BRANCH 304 305
HETATM  305  C   UNK N   1      24.989   8.809   1.980  0.00  0.00     0.023 C 
BRANCH 305 306
HETATM  306  C   UNK N   1      25.089   8.234   0.577  0.00  0.00     0.138 C 
BRANCH 306 307
HETATM  307  N   UNK N   1      26.119   8.911  -0.142  0.00  0.00    -0.227 N 
HETATM  308  C   UNK N   1      27.327   8.260  -0.454  0.00  0.00     0.665 C 
HETATM  309  N   UNK N   1      27.472   6.870  -0.238  0.00  0.00    -0.235 N 
HETATM  310  N   UNK N   1      28.325   8.955  -0.840  0.00  0.00    -0.235 N 
HETATM  311  H   UNK N   1      27.832   5.954  -0.224  0.00  0.00     0.174 HD
HETATM  312  H   UNK N   1      26.612   6.699   0.212  0.00  0.00     0.174 HD
HETATM  313  H   UNK N   1      28.363   9.488  -1.668  0.00  0.00     0.174 HD
ATOM    314  HN  UNK N   1      29.152   8.959  -0.244  1.00  0.00     0.174 HD
HETATM  315  H   UNK N   1      25.983   9.845  -0.422  0.00  0.00     0.177 HD
ENDBRANCH 306 307
ENDBRANCH 305 306
ENDBRANCH 304 305
ENDBRANCH  59 304
BRANCH  55 316
HETATM  316  C   UNK N   1      28.282   3.341   4.192  0.00  0.00     0.013 C 
HETATM  317  C   UNK N   1      27.794   2.517   3.015  0.00  0.00     0.012 C 
BRANCH 316 318
HETATM  318  C   UNK N   1      29.431   2.586   4.861  0.00  0.00     0.002 C 
HETATM  319  C   UNK N   1      28.912   1.592   5.876  0.00  0.00     0.005 C 
ENDBRANCH 316 318
ENDBRANCH  55 316
TORSDOF 92
ENDMDL
MODEL 2
REMARK VINA RESULT:      -4.8      3.302     12.630
REMARK WARNING: 32 MAX_TORS EXCEEDED!!!
REMARK  92 active torsions:
REMARK  status: ('A' for Active; 'I' for Inactive)
REMARK       I    between atoms: C_3  and  N_4 
REMARK       I    between atoms: C_3  and  N_5 
REMARK    1  A    between atoms: N_5  and  C_6 
REMARK    2  A    between atoms: C_6  and  C_7 
REMARK    3  A    between atoms: C_7  and  C_8 
REMARK    4  A    between atoms: C_9  and  C_8 
REMARK    5  A    between atoms: C_21  and  C_22 
REMARK    6  A    between atoms: C_22  and  C_23 
REMARK    7  A    between atoms: C_32  and  N_169 
REMARK    8  A    between atoms: C_37  and  C_117 
REMARK    9  A    between atoms: C_45  and  C_46 
REMARK   10  A    between atoms: C_46  and  C_47 
REMARK   11  A    between atoms: C_57  and  C_58 
REMARK   12  A    between atoms: C_58  and  O_59 
REMARK   13  A    between atoms: C_63  and  C_64 
REMARK   14  A    between atoms: C_64  and  C_65 
REMARK   15  A    between atoms: C_65  and  C_66 
REMARK       I    between atoms: C_66  and  N_67 
REMARK   16  A    between atoms: C_81  and  C_113 
REMARK   17  A    between atoms: C_85  and  C_86 
REMARK   18  A    between atoms: C_86  and  C_87 
REMARK   19  A    between atoms: C_87  and  C_88 
REMARK   20  A    between atoms: C_88  and  N_89 
REMARK       I    between atoms: N_89  and  C_90 
REMARK       I    between atoms: C_90  and  N_91 
REMARK   21  A    between atoms: C_97  and  C_98 
REMARK   22  A    between atoms: C_98  and  C_99 
REMARK   23  A    between atoms: C_99  and  O_100 
REMARK   24  A    between atoms: C_105  and  C_106 
REMARK   25  A    between atoms: C_106  and  C_107 
REMARK   26  A    between atoms: C_107  and  S_108 
REMARK   27  A    between atoms: C_113  and  C_115 
REMARK       I    between atoms: C_117  and  N_119 
REMARK   28  A    between atoms: C_120  and  N_119 
REMARK   29  A    between atoms: C_120  and  C_121 
REMARK   30  A    between atoms: C_120  and  C_125 
REMARK   31  A    between atoms: C_121  and  C_122 
REMARK       I    between atoms: C_122  and  N_123 
REMARK       I    between atoms: C_125  and  N_127 
REMARK   32  A    between atoms: C_128  and  N_127 
REMARK   33  A    between atoms: C_128  and  C_129 
REMARK   34  A    between atoms: C_128  and  C_131 
REMARK   35  A    between atoms: C_129  and  O_130 
REMARK       I    between atoms: C_131  and  N_133 
REMARK   36  A    between atoms: C_134  and  N_133 
REMARK   37  A    between atoms: C_134  and  C_135 
REMARK   38  A    between atoms: C_134  and  C_142 
REMARK   39  A    between atoms: C_135  and  C_136 
REMARK       I    between atoms: C_142  and  N_144 
REMARK   40  A    between atoms: C_145  and  N_144 
REMARK   41  A    between atoms: C_145  and  C_146 
REMARK   42  A    between atoms: C_145  and  C_154 
REMARK   43  A    between atoms: C_146  and  C_147 
REMARK   44  A    between atoms: C_147  and  C_148 
REMARK   45  A    between atoms: C_148  and  N_149 
REMARK       I    between atoms: N_149  and  C_150 
REMARK       I    between atoms: C_150  and  N_151 
REMARK       I    between atoms: C_154  and  N_156 
REMARK   46  A    between atoms: C_157  and  N_156 
REMARK   47  A    between atoms: C_157  and  C_158 
REMARK   48  A    between atoms: C_157  and  C_166 
REMARK   49  A    between atoms: C_158  and  C_159 
REMARK   50  A    between atoms: C_162  and  O_163 
REMARK   51  A    between atoms: C_166  and  O_167 
REMARK       I    between atoms: N_169  and  C_170 
REMARK   52  A    between atoms: C_170  and  C_172 
REMARK   53  A    between atoms: C_172  and  C_173 
REMARK   54  A    between atoms: C_172  and  N_175 
REMARK   55  A    between atoms: C_173  and  O_174 
REMARK       I    between atoms: N_175  and  C_176 
REMARK   56  A    between atoms: C_176  and  C_178 
REMARK   57  A    between atoms: C_178  and  C_179 
REMARK   58  A    between atoms: C_178  and  N_181 
REMARK   59  A    between atoms: C_179  and  O_180 
REMARK       I    between atoms: N_181  and  C_182 
REMARK   60  A    between atoms: C_182  and  C_184 
REMARK   61  A    between atoms: C_184  and  C_185 
REMARK   62  A    between atoms: C_184  and  N_193 
REMARK   63  A    between atoms: C_185  and  C_186 
REMARK   64  A    between atoms: C_186  and  C_187 
REMARK   65  A    between atoms: C_187  and  N_188 
REMARK       I    between atoms: N_188  and  C_189 
REMARK       I    between atoms: C_189  and  N_190 
REMARK       I    between atoms: N_193  and  C_194 
REMARK   66  A    between atoms: C_194  and  C_196 
REMARK   67  A    between atoms: C_196  and  C_197 
REMARK   68  A    between atoms: C_196  and  N_205 
REMARK   69  A    between atoms: C_197  and  C_198 
REMARK   70  A    between atoms: C_198  and  C_199 
REMARK   71  A    between atoms: C_199  and  N_200 
REMARK       I    between atoms: N_200  and  C_201 
REMARK       I    between atoms: C_201  and  N_202 
REMARK       I    between atoms: N_205  and  C_206 
REMARK   72  A    between atoms: C_206  and  C_208 
REMARK   73  A    between atoms: C_208  and  C_209 
REMARK   74  A    between atoms: C_208  and  N_213 
REMARK   75  A    between atoms: C_209  and  C_210 
REMARK       I    between atoms: N_213  and  C_214 
REMARK   76  A    between atoms: C_214  and  C_216 
REMARK   77  A    between atoms: C_216  and  C_217 
REMARK   78  A    between atoms: C_216  and  N_219 
REMARK   79  A    between atoms: C_217  and  O_218 
REMARK       I    between atoms: N_219  and  C_220 
REMARK   80  A    between atoms: C_220  and  C_222 
REMARK   81  A    between atoms: C_222  and  C_223 
REMARK   82  A    between atoms: C_222  and  N_231 
REMARK   83  A    between atoms: C_223  and  C_224 
REMARK   84  A    between atoms: C_224  and  C_225 
REMARK   85  A    between atoms: C_225  and  N_226 
REMARK       I    between atoms: N_226  and  C_227 
REMARK       I    between atoms: C_227  and  N_228 
REMARK       I    between atoms: N_231  and  C_232 
REMARK   86  A    between atoms: C_234  and  C_232 
REMARK       I    between atoms: N_238  and  C_239 
REMARK   87  A    between atoms: C_239  and  C_241 
REMARK   88  A    between atoms: C_241  and  N_243 
REMARK       I    between atoms: N_243  and  C_244 
REMARK   89  A    between atoms: C_244  and  C_246 
REMARK   90  A    between atoms: C_246  and  N_247 
REMARK   91  A    between atoms: C_246  and  C_248 
REMARK   92  A    between atoms: C_248  and  O_250 
ROOT
HETATM    1  C   UNK N   1      36.735  13.766   6.559  0.00  0.00     0.176 C 
HETATM    2  N   UNK N   1      38.143  14.077   6.657  0.00  0.00    -0.346 N 
HETATM    3  C   UNK N   1      39.109  13.534   5.872  0.00  0.00     0.236 C 
HETATM    4  O   UNK N   1      40.268  13.875   6.040  0.00  0.00    -0.272 OA
HETATM    5  C   UNK N   1      38.801  12.609   4.735  0.00  0.00     0.225 C 
HETATM    6  N   UNK N   1      38.277  11.336   5.156  0.00  0.00    -0.351 N 
HETATM    7  C   UNK N   1      37.043  10.937   4.772  0.00  0.00     0.235 C 
HETATM    8  O   UNK N   1      36.318  11.687   4.138  0.00  0.00    -0.272 OA
HETATM    9  C   UNK N   1      36.586   9.551   5.058  0.00  0.00     0.225 C 
HETATM   10  N   UNK N   1      37.006   8.699   3.975  0.00  0.00    -0.351 N 
HETATM   11  C   UNK N   1      36.254   8.488   2.869  0.00  0.00     0.241 C 
HETATM   12  O   UNK N   1      36.690   7.766   1.986  0.00  0.00    -0.271 OA
HETATM   13  C   UNK N   1      34.886   9.096   2.707  0.00  0.00     0.180 C 
HETATM   14  N   UNK N   1      33.970   8.007   2.472  0.00  0.00    -0.346 N 
HETATM   15  C   UNK N   1      32.696   8.239   2.082  0.00  0.00     0.242 C 
HETATM   16  O   UNK N   1      32.228   9.357   2.114  0.00  0.00    -0.271 OA
HETATM   17  C   UNK N   1      31.968   7.248   1.303  0.00  0.00     0.186 C 
HETATM   18  C   UNK N   1      32.432   5.825   1.283  0.00  0.00     0.120 C 
HETATM   19  S   UNK N   1      31.474   4.922   2.514  0.00  0.00    -0.095 SA
HETATM   20  S   UNK N   1      29.577   5.918   2.166  0.00  0.00    -0.095 SA
HETATM   21  C   UNK N   1      29.285   5.565   0.392  0.00  0.00     0.120 C 
HETATM   22  C   UNK N   1      30.027   4.419  -0.292  0.00  0.00     0.186 C 
HETATM   23  N   UNK N   1      30.153   3.235   0.529  0.00  0.00    -0.346 N 
HETATM   24  C   UNK N   1      29.988   1.993   0.019  0.00  0.00     0.236 C 
HETATM   25  O   UNK N   1      30.064   1.025   0.758  0.00  0.00    -0.272 OA
HETATM   26  C   UNK N   1      29.708   1.790  -1.442  0.00  0.00     0.225 C 
HETATM   27  N   UNK N   1      28.662   2.692  -1.866  0.00  0.00    -0.351 N 
HETATM   28  C   UNK N   1      27.599   2.345  -2.627  0.00  0.00     0.240 C 
HETATM   29  O   UNK N   1      26.757   3.195  -2.884  0.00  0.00    -0.271 OA
HETATM   30  C   UNK N   1      27.412   0.932  -3.112  0.00  0.00     0.177 C 
HETATM   31  N   UNK N   1      26.184   0.848  -3.865  0.00  0.00    -0.346 N 
HETATM   32  C   UNK N   1      25.129   0.116  -3.440  0.00  0.00     0.236 C 
HETATM   33  O   UNK N   1      24.078   0.179  -4.054  0.00  0.00    -0.272 OA
HETATM   34  C   UNK N   1      25.213  -0.749  -2.213  0.00  0.00     0.225 C 
HETATM   35  N   UNK N   1      24.528  -1.988  -2.476  0.00  0.00    -0.350 N 
HETATM   36  C   UNK N   1      23.779  -2.699  -1.590  0.00  0.00     0.242 C 
HETATM   37  O   UNK N   1      23.238  -3.716  -1.995  0.00  0.00    -0.271 OA
HETATM   38  C   UNK N   1      23.615  -2.351  -0.109  0.00  0.00     0.200 C 
HETATM   39  N   UNK N   1      23.998  -1.001   0.254  0.00  0.00    -0.344 N 
HETATM   40  C   UNK N   1      23.899  -0.480   1.518  0.00  0.00     0.241 C 
HETATM   41  O   UNK N   1      23.430  -1.146   2.429  0.00  0.00    -0.271 OA
HETATM   42  C   UNK N   1      24.406   0.915   1.806  0.00  0.00     0.177 C 
HETATM   43  N   UNK N   1      25.130   1.289   0.608  0.00  0.00    -0.346 N 
HETATM   44  C   UNK N   1      26.379   1.790   0.498  0.00  0.00     0.240 C 
HETATM   45  O   UNK N   1      27.110   1.250  -0.295  0.00  0.00    -0.271 OA
HETATM   46  C   UNK N   1      26.993   2.763   1.459  0.00  0.00     0.172 C 
HETATM   47  C   UNK N   1      25.962   3.752   1.993  0.00  0.00     0.042 C 
HETATM   48  N   UNK N   1      27.646   1.975   2.468  0.00  0.00    -0.347 N 
HETATM   49  C   UNK N   1      28.154   2.396   3.640  0.00  0.00     0.236 C 
HETATM   50  O   UNK N   1      28.618   1.568   4.405  0.00  0.00    -0.272 OA
HETATM   51  C   UNK N   1      28.157   3.823   4.046  0.00  0.00     0.225 C 
HETATM   52  N   UNK N   1      29.472   4.059   4.553  0.00  0.00    -0.351 N 
HETATM   53  C   UNK N   1      29.772   4.990   5.467  0.00  0.00     0.241 C 
HETATM   54  O   UNK N   1      30.913   5.032   5.895  0.00  0.00    -0.271 OA
HETATM   55  C   UNK N   1      28.739   5.979   5.952  0.00  0.00     0.180 C 
HETATM   56  N   UNK N   1      29.269   7.330   5.835  0.00  0.00    -0.346 N 
HETATM   57  C   UNK N   1      30.304   7.773   6.591  0.00  0.00     0.241 C 
HETATM   58  O   UNK N   1      30.732   7.082   7.502  0.00  0.00    -0.271 OA
HETATM   59  C   UNK N   1      30.946   9.106   6.325  0.00  0.00     0.176 C 
HETATM   60  N   UNK N   1      31.959   9.347   7.327  0.00  0.00    -0.346 N 
HETATM   61  C   UNK N   1      33.037   8.549   7.551  0.00  0.00     0.241 C 
HETATM   62  O   UNK N   1      33.357   7.680   6.751  0.00  0.00    -0.271 OA
HETATM   63  C   UNK N   1      33.737   8.623   8.872  0.00  0.00     0.186 C 
HETATM   64  N   UNK N   1      34.397   9.887   9.119  0.00  0.00    -0.346 N 
HETATM   65  C   UNK N   1      33.783  11.091   9.237  0.00  0.00     0.241 C 
HETATM   66  O   UNK N   1      32.570  11.193   9.171  0.00  0.00    -0.271 OA
HETATM   67  C   UNK N   1      34.607  12.329   9.370  0.00  0.00     0.177 C 
HETATM   68  N   UNK N   1      35.471  12.452   8.214  0.00  0.00    -0.346 N 
HETATM   69  C   UNK N   1      36.165  13.578   7.931  0.00  0.00     0.241 C 
HETATM   70  O   UNK N   1      36.217  14.495   8.740  0.00  0.00    -0.271 OA
HETATM   71  H   UNK N   1      38.421  14.729   7.340  0.00  0.00     0.163 HD
HETATM   72  H   UNK N   1      38.822  10.750   5.729  0.00  0.00     0.163 HD
HETATM   73  H   UNK N   1      37.880   8.250   4.042  0.00  0.00     0.163 HD
HETATM   74  H   UNK N   1      34.277   7.079   2.597  0.00  0.00     0.163 HD
HETATM   75  H   UNK N   1      30.366   3.336   1.484  0.00  0.00     0.163 HD
HETATM   76  H   UNK N   1      28.727   3.631  -1.578  0.00  0.00     0.163 HD
HETATM   77  H   UNK N   1      26.112   1.341  -4.714  0.00  0.00     0.163 HD
HETATM   78  H   UNK N   1      24.608  -2.357  -3.387  0.00  0.00     0.163 HD
HETATM   79  H   UNK N   1      24.353  -0.419  -0.455  0.00  0.00     0.163 HD
HETATM   80  H   UNK N   1      24.646   1.162  -0.240  0.00  0.00     0.163 HD
HETATM   81  H   UNK N   1      27.733   1.012   2.280  0.00  0.00     0.163 HD
HETATM   82  H   UNK N   1      30.205   3.499   4.209  0.00  0.00     0.163 HD
HETATM   83  H   UNK N   1      28.861   7.945   5.183  0.00  0.00     0.163 HD
HETATM   84  H   UNK N   1      31.861  10.150   7.889  0.00  0.00     0.163 HD
HETATM   85  H   UNK N   1      35.377   9.872   9.209  0.00  0.00     0.163 HD
HETATM   86  H   UNK N   1      35.557  11.681   7.607  0.00  0.00     0.163 HD
ENDROOT
BRANCH  17  87
HETATM   87  N   UNK N   1      31.439   7.822   0.084  0.00  0.00    -0.345 N 
HETATM   88  C   UNK N   1      30.263   8.499  -0.037  0.00  0.00     0.243 C 
HETATM   89  O   UNK N   1      29.698   8.466  -1.116  0.00  0.00    -0.271 OA
HETATM   90  H   UNK N   1      31.978   7.712  -0.733  0.00  0.00     0.163 HD
BRANCH  88  91
HETATM   91  C   UNK N   1      29.540   9.166   1.113  0.00  0.00     0.200 C 
BRANCH  91  92
HETATM   92  C   UNK N   1      30.141  10.461   1.653  0.00  0.00     0.199 C 
BRANCH  92  93
HETATM   93  O   UNK N   1      30.380  11.367   0.618  0.00  0.00    -0.398 OA
HETATM   94  H   UNK N   1      30.925  12.166   0.686  0.00  0.00     0.209 HD
ENDBRANCH  92  93
ENDBRANCH  91  92
BRANCH  91  95
HETATM   95  N   UNK N   1      28.179   9.469   0.765  0.00  0.00    -0.344 N 
HETATM   96  C   UNK N   1      27.240   9.583   1.721  0.00  0.00     0.243 C 
HETATM   97  O   UNK N   1      26.159  10.074   1.442  0.00  0.00    -0.271 OA
HETATM   98  H   UNK N   1      27.932   9.595  -0.179  0.00  0.00     0.163 HD
BRANCH  96  99
HETATM   99  C   UNK N   1      27.552   9.133   3.121  0.00  0.00     0.200 C 
BRANCH  99 100
HETATM  100  C   UNK N   1      27.776  10.126   4.251  0.00  0.00     0.199 C 
BRANCH 100 101
HETATM  101  O   UNK N   1      27.482  11.420   3.826  0.00  0.00    -0.398 OA
HETATM  102  H   UNK N   1      27.585  12.303   4.212  0.00  0.00     0.209 HD
ENDBRANCH 100 101
ENDBRANCH  99 100
BRANCH  99 103
HETATM  103  N   UNK N   1      27.098   7.807   3.501  0.00  0.00    -0.344 N 
HETATM  104  C   UNK N   1      25.853   7.462   3.930  0.00  0.00     0.241 C 
HETATM  105  O   UNK N   1      25.648   6.315   4.285  0.00  0.00    -0.271 OA
HETATM  106  H   UNK N   1      27.759   7.081   3.441  0.00  0.00     0.163 HD
BRANCH 104 107
HETATM  107  C   UNK N   1      24.735   8.452   4.045  0.00  0.00     0.176 C 
BRANCH 107 108
HETATM  108  C   UNK N   1      24.960   9.329   5.263  0.00  0.00     0.036 C 
BRANCH 108 109
HETATM  109  C   UNK N   1      24.075   8.856   6.386  0.00  0.00     0.023 C 
BRANCH 109 110
HETATM  110  C   UNK N   1      23.517  10.001   7.212  0.00  0.00     0.138 C 
BRANCH 110 111
HETATM  111  N   UNK N   1      24.053  11.280   6.817  0.00  0.00    -0.227 N 
HETATM  112  C   UNK N   1      23.435  12.512   7.140  0.00  0.00     0.665 C 
HETATM  113  N   UNK N   1      22.390  12.577   8.091  0.00  0.00    -0.235 N 
HETATM  114  N   UNK N   1      23.860  13.583   6.592  0.00  0.00    -0.235 N 
HETATM  115  H   UNK N   1      21.561  12.863   8.537  0.00  0.00     0.174 HD
HETATM  116  H   UNK N   1      22.686  11.877   8.716  0.00  0.00     0.174 HD
HETATM  117  H   UNK N   1      24.720  13.985   6.855  0.00  0.00     0.174 HD
ATOM    118  HN  UNK N   1      23.299  14.032   5.869  1.00  0.00     0.174 HD
HETATM  119  H   UNK N   1      24.890  11.298   6.299  0.00  0.00     0.177 HD
ENDBRANCH 110 111
ENDBRANCH 109 110
ENDBRANCH 108 109
ENDBRANCH 107 108
BRANCH 107 120
HETATM  120  N   UNK N   1      23.446   7.775   4.027  0.00  0.00    -0.346 N 
HETATM  121  C   UNK N   1      22.431   8.213   3.235  0.00  0.00     0.241 C 
HETATM  122  O   UNK N   1      21.395   7.570   3.157  0.00  0.00    -0.271 OA
HETATM  123  H   UNK N   1      23.306   6.986   4.598  0.00  0.00     0.163 HD
BRANCH 121 124
HETATM  124  C   UNK N   1      22.568   9.544   2.561  0.00  0.00     0.176 C 
BRANCH 124 125
HETATM  125  C   UNK N   1      22.300   9.600   1.070  0.00  0.00     0.036 C 
BRANCH 125 126
HETATM  126  C   UNK N   1      22.782  10.946   0.555  0.00  0.00     0.023 C 
BRANCH 126 127
HETATM  127  C   UNK N   1      23.652  10.781  -0.675  0.00  0.00     0.138 C 
BRANCH 127 128
HETATM  128  N   UNK N   1      23.237   9.613  -1.408  0.00  0.00    -0.227 N 
HETATM  129  C   UNK N   1      24.095   8.495  -1.567  0.00  0.00     0.665 C 
HETATM  130  N   UNK N   1      23.649   7.367  -2.286  0.00  0.00    -0.235 N 
HETATM  131  N   UNK N   1      25.289   8.518  -1.099  0.00  0.00    -0.235 N 
HETATM  132  H   UNK N   1      23.704   6.417  -2.031  0.00  0.00     0.174 HD
HETATM  133  H   UNK N   1      23.228   7.552  -3.156  0.00  0.00     0.174 HD
HETATM  134  H   UNK N   1      25.866   9.177  -0.648  0.00  0.00     0.174 HD
ATOM    135  HN  UNK N   1      25.764   7.623  -1.227  1.00  0.00     0.174 HD
HETATM  136  H   UNK N   1      22.337   9.590  -1.806  0.00  0.00     0.177 HD
ENDBRANCH 127 128
ENDBRANCH 126 127
ENDBRANCH 125 126
ENDBRANCH 124 125
BRANCH 124 137
HETATM  137  N   UNK N   1      21.739  10.423   3.341  0.00  0.00    -0.346 N 
HETATM  138  C   UNK N   1      22.170  11.650   3.731  0.00  0.00     0.241 C 
HETATM  139  O   UNK N   1      23.364  11.901   3.810  0.00  0.00    -0.271 OA
HETATM  140  H   UNK N   1      20.836  10.128   3.599  0.00  0.00     0.163 HD
BRANCH 138 141
HETATM  141  C   UNK N   1      21.197  12.771   3.731  0.00  0.00     0.177 C 
BRANCH 141 142
HETATM  142  C   UNK N   1      20.104  12.335   2.759  0.00  0.00     0.038 C 
BRANCH 142 143
HETATM  143  C   UNK N   1      19.795  13.321   1.657  0.00  0.00    -0.020 C 
HETATM  144  C   UNK N   1      19.104  12.614   0.508  0.00  0.00     0.009 C 
HETATM  145  C   UNK N   1      21.096  13.924   1.164  0.00  0.00     0.009 C 
ENDBRANCH 142 143
ENDBRANCH 141 142
BRANCH 141 146
HETATM  146  N   UNK N   1      20.622  13.148   5.015  0.00  0.00    -0.346 N 
HETATM  147  C   UNK N   1      20.481  14.362   5.623  0.00  0.00     0.243 C 
HETATM  148  O   UNK N   1      19.948  14.387   6.722  0.00  0.00    -0.271 OA
HETATM  149  H   UNK N   1      20.273  12.391   5.539  0.00  0.00     0.163 HD
BRANCH 147 150
HETATM  150  C   UNK N   1      20.942  15.684   5.012  0.00  0.00     0.200 C 
BRANCH 150 151
HETATM  151  C   UNK N   1      19.764  16.536   4.539  0.00  0.00     0.199 C 
BRANCH 151 152
HETATM  152  O   UNK N   1      19.629  16.475   3.153  0.00  0.00    -0.398 OA
HETATM  153  H   UNK N   1      20.110  17.053   2.540  0.00  0.00     0.209 HD
ENDBRANCH 151 152
ENDBRANCH 150 151
BRANCH 150 154
HETATM  154  N   UNK N   1      21.943  15.615   3.955  0.00  0.00    -0.344 N 
HETATM  155  C   UNK N   1      23.182  16.169   3.923  0.00  0.00     0.241 C 
HETATM  156  O   UNK N   1      23.858  16.037   2.914  0.00  0.00    -0.271 OA
HETATM  157  H   UNK N   1      21.688  15.097   3.158  0.00  0.00     0.163 HD
BRANCH 155 158
HETATM  158  C   UNK N   1      23.758  16.906   5.093  0.00  0.00     0.176 C 
BRANCH 158 159
HETATM  159  C   UNK N   1      23.160  18.306   5.191  0.00  0.00     0.036 C 
BRANCH 159 160
HETATM  160  C   UNK N   1      22.893  18.837   3.791  0.00  0.00     0.023 C 
BRANCH 160 161
HETATM  161  C   UNK N   1      21.520  19.477   3.695  0.00  0.00     0.138 C 
BRANCH 161 162
HETATM  162  N   UNK N   1      21.456  20.370   2.565  0.00  0.00    -0.227 N 
HETATM  163  C   UNK N   1      20.746  20.020   1.386  0.00  0.00     0.665 C 
HETATM  164  N   UNK N   1      20.183  18.732   1.243  0.00  0.00    -0.235 N 
HETATM  165  N   UNK N   1      20.632  20.869   0.434  0.00  0.00    -0.235 N 
HETATM  166  H   UNK N   1      19.593  18.459   0.504  0.00  0.00     0.174 HD
HETATM  167  H   UNK N   1      20.396  18.060   1.930  0.00  0.00     0.174 HD
HETATM  168  H   UNK N   1      21.343  21.530   0.268  0.00  0.00     0.174 HD
ATOM    169  HN  UNK N   1      19.801  20.860  -0.157  1.00  0.00     0.174 HD
HETATM  170  H   UNK N   1      21.914  21.240   2.611  0.00  0.00     0.177 HD
ENDBRANCH 161 162
ENDBRANCH 160 161
ENDBRANCH 159 160
ENDBRANCH 158 159
BRANCH 158 171
HETATM  171  N   UNK N   1      25.161  17.029   4.870  0.00  0.00    -0.346 N 
HETATM  172  C   UNK N   1      26.137  16.503   5.642  0.00  0.00     0.241 C 
HETATM  173  O   UNK N   1      25.874  15.841   6.637  0.00  0.00    -0.271 OA
HETATM  174  H   UNK N   1      25.445  17.547   4.081  0.00  0.00     0.163 HD
BRANCH 172 175
HETATM  175  C   UNK N   1      27.549  16.877   5.304  0.00  0.00     0.179 C 
HETATM  176  C   UNK N   1      27.649  17.119   3.808  0.00  0.00     0.037 C 
HETATM  177  C   UNK N   1      27.345  18.603   3.599  0.00  0.00     0.022 C 
HETATM  178  C   UNK N   1      27.546  19.274   4.953  0.00  0.00     0.127 C 
HETATM  179  N   UNK N   1      27.729  18.194   5.877  0.00  0.00    -0.337 N 
HETATM  180  C   UNK N   1      27.999  18.386   7.200  0.00  0.00     0.243 C 
HETATM  181  O   UNK N   1      27.971  19.519   7.674  0.00  0.00    -0.271 OA
BRANCH 180 182
HETATM  182  C   UNK N   1      28.536  17.233   8.015  0.00  0.00     0.172 C 
HETATM  183  C   UNK N   1      27.916  17.109   9.403  0.00  0.00     0.042 C 
BRANCH 182 184
HETATM  184  N   UNK N   1      29.963  17.504   8.080  0.00  0.00    -0.346 N 
HETATM  185  C   UNK N   1      30.882  16.651   7.539  0.00  0.00     0.243 C 
HETATM  186  O   UNK N   1      30.551  15.847   6.679  0.00  0.00    -0.271 OA
HETATM  187  H   UNK N   1      30.274  18.325   8.524  0.00  0.00     0.163 HD
BRANCH 185 188
HETATM  188  C   UNK N   1      32.230  16.498   8.193  0.00  0.00     0.196 C 
BRANCH 188 189
HETATM  189  N   UNK N   1      32.119  15.885   9.509  0.00  0.00    -0.417 N 
HETATM  190  H   UNK N   1      32.760  15.522  10.214  0.00  0.00     0.150 HD
HETATM  191  H   UNK N   1      31.146  15.798   9.804  0.00  0.00     0.150 HD
ENDBRANCH 188 189
BRANCH 188 192
HETATM  192  C   UNK N   1      33.088  17.754   8.243  0.00  0.00     0.145 C 
HETATM  193  C   UNK N   1      34.355  17.443   9.021  0.00  0.00     0.042 C 
BRANCH 192 194
HETATM  194  O   UNK N   1      33.452  18.147   6.954  0.00  0.00    -0.393 OA
HETATM  195  H   UNK N   1      33.841  17.716   6.177  0.00  0.00     0.210 HD
ENDBRANCH 192 194
ENDBRANCH 188 192
ENDBRANCH 185 188
ENDBRANCH 182 184
ENDBRANCH 180 182
ENDBRANCH 172 175
ENDBRANCH 158 171
ENDBRANCH 155 158
ENDBRANCH 150 154
ENDBRANCH 147 150
ENDBRANCH 141 146
ENDBRANCH 138 141
ENDBRANCH 124 137
ENDBRANCH 121 124
ENDBRANCH 107 120
ENDBRANCH 104 107
ENDBRANCH  99 103
ENDBRANCH  96  99
ENDBRANCH  91  95
ENDBRANCH  88  91
ENDBRANCH  17  87
BRANCH  13 196
HETATM  196  C   UNK N   1      34.853   9.902   1.410  0.00  0.00     0.073 C 
BRANCH 196 197
HETATM  197  C   UNK N   1      35.180  11.333   1.374  0.00  0.00    -0.056 A 
HETATM  198  C   UNK N   1      36.382  11.740   0.803  0.00  0.00     0.007 A 
HETATM  199  C   UNK N   1      36.587  13.086   0.517  0.00  0.00     0.001 A 
HETATM  200  C   UNK N   1      35.591  14.027   0.803  0.00  0.00     0.000 A 
HETATM  201  C   UNK N   1      34.384  13.619   1.372  0.00  0.00     0.001 A 
HETATM  202  C   UNK N   1      34.168  12.266   1.633  0.00  0.00     0.007 A 
ENDBRANCH 196 197
ENDBRANCH  13 196
BRANCH  22 203
HETATM  203  C   UNK N   1      31.250   4.742  -1.132  0.00  0.00     0.242 C 
HETATM  204  O   UNK N   1      32.363   4.554  -0.665  0.00  0.00    -0.271 OA
HETATM  205  N   UNK N   1      31.141   5.197  -2.411  0.00  0.00    -0.346 N 
HETATM  206  H   UNK N   1      31.968   5.418  -2.898  0.00  0.00     0.163 HD
BRANCH 205 207
HETATM  207  C   UNK N   1      29.874   5.374  -3.097  0.00  0.00     0.185 C 
BRANCH 207 208
HETATM  208  C   UNK N   1      29.274   6.784  -3.116  0.00  0.00     0.137 C 
BRANCH 208 209
HETATM  209  C   UNK N   1      27.787   6.958  -3.079  0.00  0.00     0.217 C 
HETATM  210  N   UNK N   1      27.036   5.962  -2.573  0.00  0.00    -0.370 N 
HETATM  211  H   UNK N   1      26.608   5.202  -3.030  0.00  0.00     0.159 HD
HETATM  212  H   UNK N   1      26.892   5.999  -1.599  0.00  0.00     0.159 HD
HETATM  213  O   UNK N   1      27.253   7.983  -3.470  0.00  0.00    -0.274 OA
ENDBRANCH 208 209
ENDBRANCH 207 208
BRANCH 207 214
HETATM  214  C   UNK N   1      29.858   4.812  -4.480  0.00  0.00     0.241 C 
HETATM  215  O   UNK N   1      28.779   4.618  -5.013  0.00  0.00    -0.271 OA
HETATM  216  N   UNK N   1      30.992   4.505  -5.158  0.00  0.00    -0.344 N 
HETATM  217  H   UNK N   1      30.881   4.144  -6.067  0.00  0.00     0.163 HD
BRANCH 216 218
HETATM  218  C   UNK N   1      32.352   4.657  -4.675  0.00  0.00     0.200 C 
BRANCH 218 219
HETATM  219  C   UNK N   1      33.229   3.703  -5.452  0.00  0.00     0.199 C 
BRANCH 219 220
HETATM  220  O   UNK N   1      34.249   4.413  -6.091  0.00  0.00    -0.398 OA
HETATM  221  H   UNK N   1      34.839   4.287  -6.850  0.00  0.00     0.209 HD
ENDBRANCH 219 220
ENDBRANCH 218 219
BRANCH 218 222
HETATM  222  C   UNK N   1      32.866   6.040  -4.915  0.00  0.00     0.243 C 
HETATM  223  O   UNK N   1      32.352   6.732  -5.781  0.00  0.00    -0.271 OA
HETATM  224  N   UNK N   1      33.922   6.513  -4.197  0.00  0.00    -0.346 N 
HETATM  225  H   UNK N   1      34.325   5.957  -3.492  0.00  0.00     0.163 HD
BRANCH 224 226
HETATM  226  C   UNK N   1      34.450   7.830  -4.466  0.00  0.00     0.180 C 
BRANCH 226 227
HETATM  227  C   UNK N   1      34.870   8.596  -3.200  0.00  0.00     0.073 C 
BRANCH 227 228
HETATM  228  C   UNK N   1      33.990   9.788  -2.864  0.00  0.00    -0.056 A 
HETATM  229  C   UNK N   1      32.618   9.723  -3.121  0.00  0.00     0.007 A 
HETATM  230  C   UNK N   1      31.790  10.810  -2.809  0.00  0.00     0.001 A 
HETATM  231  C   UNK N   1      32.328  11.966  -2.233  0.00  0.00     0.000 A 
HETATM  232  C   UNK N   1      33.693  12.039  -1.970  0.00  0.00     0.001 A 
HETATM  233  C   UNK N   1      34.513  10.959  -2.286  0.00  0.00     0.007 A 
ENDBRANCH 227 228
ENDBRANCH 226 227
BRANCH 226 234
HETATM  234  C   UNK N   1      35.502   7.805  -5.550  0.00  0.00     0.241 C 
HETATM  235  O   UNK N   1      36.256   6.848  -5.598  0.00  0.00    -0.271 OA
HETATM  236  N   UNK N   1      35.616   8.767  -6.491  0.00  0.00    -0.346 N 
HETATM  237  H   UNK N   1      36.244   8.608  -7.231  0.00  0.00     0.163 HD
BRANCH 236 238
HETATM  238  C   UNK N   1      34.886  10.011  -6.495  0.00  0.00     0.176 C 
BRANCH 238 239
HETATM  239  C   UNK N   1      34.682  10.528  -7.934  0.00  0.00     0.036 C 
BRANCH 239 240
HETATM  240  C   UNK N   1      35.923  10.682  -8.802  0.00  0.00     0.023 C 
BRANCH 240 241
HETATM  241  C   UNK N   1      36.010  12.060  -9.455  0.00  0.00     0.138 C 
BRANCH 241 242
HETATM  242  N   UNK N   1      34.940  12.919  -9.011  0.00  0.00    -0.227 N 
HETATM  243  C   UNK N   1      34.168  13.683  -9.918  0.00  0.00     0.665 C 
HETATM  244  N   UNK N   1      34.348  13.542 -11.314  0.00  0.00    -0.235 N 
HETATM  245  N   UNK N   1      33.271  14.481  -9.472  0.00  0.00    -0.235 N 
HETATM  246  H   UNK N   1      33.684  13.860 -11.967  0.00  0.00     0.174 HD
HETATM  247  H   UNK N   1      35.168  13.108 -11.644  0.00  0.00     0.174 HD
HETATM  248  H   UNK N   1      33.084  14.560  -8.508  0.00  0.00     0.174 HD
ATOM    249  HN  UNK N   1      32.738  15.048 -10.130  1.00  0.00     0.174 HD
HETATM  250  H   UNK N   1      34.741  12.976  -8.048  0.00  0.00     0.177 HD
ENDBRANCH 241 242
ENDBRANCH 240 241
ENDBRANCH 239 240
ENDBRANCH 238 239
BRANCH 238 251
HETATM  251  C   UNK N   1      35.795  10.960  -5.774  0.00  0.00     0.241 C 
HETATM  252  O   UNK N   1      36.958  10.645  -5.583  0.00  0.00    -0.271 OA
HETATM  253  N   UNK N   1      35.383  12.221  -5.517  0.00  0.00    -0.345 N 
HETATM  254  H   UNK N   1      34.418  12.407  -5.459  0.00  0.00     0.163 HD
BRANCH 253 255
HETATM  255  C   UNK N   1      36.314  13.296  -5.327  0.00  0.00     0.186 C 
BRANCH 255 256
HETATM  256  C   UNK N   1      36.181  13.884  -3.933  0.00  0.00     0.074 C 
BRANCH 256 257
HETATM  257  C   UNK N   1      37.433  13.651  -3.143  0.00  0.00    -0.056 A 
HETATM  258  C   UNK N   1      38.141  14.741  -2.628  0.00  0.00     0.010 A 
HETATM  259  C   UNK N   1      39.285  14.532  -1.849  0.00  0.00     0.037 A 
HETATM  260  C   UNK N   1      39.729  13.233  -1.590  0.00  0.00     0.065 A 
HETATM  261  C   UNK N   1      39.034  12.140  -2.109  0.00  0.00     0.037 A 
HETATM  262  C   UNK N   1      37.884  12.347  -2.875  0.00  0.00     0.010 A 
BRANCH 260 263
HETATM  263  O   UNK N   1      40.823  13.036  -0.838  0.00  0.00    -0.361 OA
HETATM  264  H   UNK N   1      40.859  13.063   0.097  0.00  0.00     0.217 HD
ENDBRANCH 260 263
ENDBRANCH 256 257
ENDBRANCH 255 256
BRANCH 255 265
HETATM  265  C   UNK N   1      36.127  14.294  -6.434  0.00  0.00     0.163 C 
HETATM  266  O   UNK N   1      37.064  14.595  -7.151  0.00  0.00    -0.648 OA
BRANCH 265 267
HETATM  267  O   UNK N   1      34.908  14.826  -6.672  0.00  0.00    -0.775 OA
HETATM  268  H   UNK N   1      34.791  15.752  -6.749  0.00  0.00     0.167 HD
ENDBRANCH 265 267
ENDBRANCH 255 265
ENDBRANCH 253 255
ENDBRANCH 238 251
ENDBRANCH 236 238
ENDBRANCH 226 234
ENDBRANCH 224 226
ENDBRANCH 218 222
ENDBRANCH 216 218
ENDBRANCH 207 214
ENDBRANCH 205 207
ENDBRANCH  22 203
BRANCH  30 269
HETATM  269  C   UNK N   1      28.650   0.499  -3.902  0.00  0.00     0.038 C 
BRANCH 269 270
HETATM  270  C   UNK N   1      29.032  -0.964  -3.857  0.00  0.00    -0.020 C 
HETATM  271  C   UNK N   1      28.479  -1.638  -5.096  0.00  0.00     0.009 C 
HETATM  272  C   UNK N   1      30.535  -1.118  -3.831  0.00  0.00     0.009 C 
ENDBRANCH 269 270
ENDBRANCH  30 269
BRANCH   1 273
HETATM  273  C   UNK N   1      35.972  14.946   5.961  0.00  0.00     0.036 C 
BRANCH 273 274
HETATM  274  C   UNK N   1      34.924  14.524   4.959  0.00  0.00     0.023 C 
BRANCH 274 275
HETATM  275  C   UNK N   1      33.708  15.400   5.123  0.00  0.00     0.138 C 
BRANCH 275 276
HETATM  276  N   UNK N   1      33.230  15.748   3.818  0.00  0.00    -0.227 N 
HETATM  277  C   UNK N   1      32.343  16.824   3.587  0.00  0.00     0.665 C 
HETATM  278  N   UNK N   1      31.985  17.590   4.549  0.00  0.00    -0.235 N 
HETATM  279  N   UNK N   1      31.973  17.142   2.264  0.00  0.00    -0.235 N 
HETATM  280  H   UNK N   1      31.034  17.767   4.735  0.00  0.00     0.174 HD
ATOM    281  HN  UNK N   1      32.699  18.025   5.133  1.00  0.00     0.174 HD
HETATM  282  H   UNK N   1      32.309  17.196   1.340  0.00  0.00     0.174 HD
HETATM  283  H   UNK N   1      31.026  17.411   2.265  0.00  0.00     0.174 HD
HETATM  284  H   UNK N   1      33.532  15.214   3.049  0.00  0.00     0.177 HD
ENDBRANCH 275 276
ENDBRANCH 274 275
ENDBRANCH 273 274
ENDBRANCH   1 273
BRANCH  67 285
HETATM  285  C   UNK N   1      35.349  12.541  10.699  0.00  0.00     0.045 C 
BRANCH 285 286
HETATM  286  C   UNK N   1      34.794  13.613  11.627  0.00  0.00     0.076 C 
BRANCH 286 287
HETATM  287  S   UNK N   1      36.018  14.068  12.897  0.00  0.00    -0.173 SA
HETATM  288  C   UNK N   1      37.146  12.725  12.434  0.00  0.00     0.089 C 
ENDBRANCH 286 287
ENDBRANCH 285 286
ENDBRANCH  67 285
BRANCH  38 289
HETATM  289  C   UNK N   1      22.203  -2.670   0.359  0.00  0.00     0.199 C 
BRANCH 289 290
HETATM  290  O   UNK N   1      21.295  -2.050  -0.501  0.00  0.00    -0.398 OA
HETATM  291  H   UNK N   1      20.827  -2.402  -1.274  0.00  0.00     0.209 HD
ENDBRANCH 289 290
ENDBRANCH  38 289
BRANCH  63 292
HETATM  292  C   UNK N   1      32.966   8.030  10.077  0.00  0.00     0.144 C 
BRANCH 292 293
HETATM  293  C   UNK N   1      32.758   6.536  10.250  0.00  0.00     0.141 C 
HETATM  294  O   UNK N   1      33.734   5.826  10.423  0.00  0.00    -0.650 OA
BRANCH 293 295
HETATM  295  O   UNK N   1      31.544   5.964  10.202  0.00  0.00    -0.776 OA
HETATM  296  H   UNK N   1      30.894   5.362   9.897  0.00  0.00     0.167 HD
ENDBRANCH 293 295
ENDBRANCH 292 293
ENDBRANCH  63 292
BRANCH  42 297
HETATM  297  C   UNK N   1      25.319   0.751   3.022  0.00  0.00     0.044 C 
BRANCH 297 298
HETATM  298  C   UNK N   1      24.616   1.076   4.328  0.00  0.00     0.105 C 
BRANCH 298 299
HETATM  299  C   UNK N   1      25.587   0.951   5.459  0.00  0.00     0.215 C 
HETATM  300  N   UNK N   1      26.277  -0.193   5.631  0.00  0.00    -0.370 N 
HETATM  301  H   UNK N   1      26.723  -0.488   6.458  0.00  0.00     0.159 HD
HETATM  302  H   UNK N   1      26.341  -0.793   4.853  0.00  0.00     0.159 HD
HETATM  303  O   UNK N   1      25.746   1.876   6.238  0.00  0.00    -0.274 OA
ENDBRANCH 298 299
ENDBRANCH 297 298
ENDBRANCH  42 297
BRANCH  59 304
HETATM  304  C   UNK N   1      31.505   9.243   4.926  0.00  0.00     0.036 C 
BRANCH 304 305
HETATM  305  C   UNK N   1      32.260  10.560   4.860  0.00  0.00     0.023 C 
BRANCH 305 306
HETATM  306  C   UNK N   1      31.338  11.746   5.089  0.00  0.00     0.138 C 
BRANCH 306 307
HETATM  307  N   UNK N   1      31.361  12.594   3.941  0.00  0.00    -0.227 N 
HETATM  308  C   UNK N   1      30.323  13.514   3.705  0.00  0.00     0.665 C 
HETATM  309  N   UNK N   1      29.340  13.759   4.693  0.00  0.00    -0.235 N 
HETATM  310  N   UNK N   1      30.220  14.052   2.553  0.00  0.00    -0.235 N 
HETATM  311  H   UNK N   1      28.573  14.136   5.182  0.00  0.00     0.174 HD
HETATM  312  H   UNK N   1      29.614  13.076   5.348  0.00  0.00     0.174 HD
HETATM  313  H   UNK N   1      30.885  14.651   2.141  0.00  0.00     0.174 HD
ATOM    314  HN  UNK N   1      29.379  13.846   2.013  1.00  0.00     0.174 HD
HETATM  315  H   UNK N   1      32.112  12.534   3.307  0.00  0.00     0.177 HD
ENDBRANCH 306 307
ENDBRANCH 305 306
ENDBRANCH 304 305
ENDBRANCH  59 304
BRANCH  55 316
HETATM  316  C   UNK N   1      28.136   5.644   7.336  0.00  0.00     0.013 C 
HETATM  317  C   UNK N   1      26.683   6.077   7.367  0.00  0.00     0.012 C 
BRANCH 316 318
HETATM  318  C   UNK N   1      28.200   4.160   7.697  0.00  0.00     0.002 C 
HETATM  319  C   UNK N   1      28.912   3.950   9.016  0.00  0.00     0.005 C 
ENDBRANCH 316 318
ENDBRANCH  55 316
TORSDOF 92
ENDMDL
MODEL 3
REMARK VINA RESULT:      -4.6      3.528     13.956
REMARK WARNING: 32 MAX_TORS EXCEEDED!!!
REMARK  92 active torsions:
REMARK  status: ('A' for Active; 'I' for Inactive)
REMARK       I    between atoms: C_3  and  N_4 
REMARK       I    between atoms: C_3  and  N_5 
REMARK    1  A    between atoms: N_5  and  C_6 
REMARK    2  A    between atoms: C_6  and  C_7 
REMARK    3  A    between atoms: C_7  and  C_8 
REMARK    4  A    between atoms: C_9  and  C_8 
REMARK    5  A    between atoms: C_21  and  C_22 
REMARK    6  A    between atoms: C_22  and  C_23 
REMARK    7  A    between atoms: C_32  and  N_169 
REMARK    8  A    between atoms: C_37  and  C_117 
REMARK    9  A    between atoms: C_45  and  C_46 
REMARK   10  A    between atoms: C_46  and  C_47 
REMARK   11  A    between atoms: C_57  and  C_58 
REMARK   12  A    between atoms: C_58  and  O_59 
REMARK   13  A    between atoms: C_63  and  C_64 
REMARK   14  A    between atoms: C_64  and  C_65 
REMARK   15  A    between atoms: C_65  and  C_66 
REMARK       I    between atoms: C_66  and  N_67 
REMARK   16  A    between atoms: C_81  and  C_113 
REMARK   17  A    between atoms: C_85  and  C_86 
REMARK   18  A    between atoms: C_86  and  C_87 
REMARK   19  A    between atoms: C_87  and  C_88 
REMARK   20  A    between atoms: C_88  and  N_89 
REMARK       I    between atoms: N_89  and  C_90 
REMARK       I    between atoms: C_90  and  N_91 
REMARK   21  A    between atoms: C_97  and  C_98 
REMARK   22  A    between atoms: C_98  and  C_99 
REMARK   23  A    between atoms: C_99  and  O_100 
REMARK   24  A    between atoms: C_105  and  C_106 
REMARK   25  A    between atoms: C_106  and  C_107 
REMARK   26  A    between atoms: C_107  and  S_108 
REMARK   27  A    between atoms: C_113  and  C_115 
REMARK       I    between atoms: C_117  and  N_119 
REMARK   28  A    between atoms: C_120  and  N_119 
REMARK   29  A    between atoms: C_120  and  C_121 
REMARK   30  A    between atoms: C_120  and  C_125 
REMARK   31  A    between atoms: C_121  and  C_122 
REMARK       I    between atoms: C_122  and  N_123 
REMARK       I    between atoms: C_125  and  N_127 
REMARK   32  A    between atoms: C_128  and  N_127 
REMARK   33  A    between atoms: C_128  and  C_129 
REMARK   34  A    between atoms: C_128  and  C_131 
REMARK   35  A    between atoms: C_129  and  O_130 
REMARK       I    between atoms: C_131  and  N_133 
REMARK   36  A    between atoms: C_134  and  N_133 
REMARK   37  A    between atoms: C_134  and  C_135 
REMARK   38  A    between atoms: C_134  and  C_142 
REMARK   39  A    between atoms: C_135  and  C_136 
REMARK       I    between atoms: C_142  and  N_144 
REMARK   40  A    between atoms: C_145  and  N_144 
REMARK   41  A    between atoms: C_145  and  C_146 
REMARK   42  A    between atoms: C_145  and  C_154 
REMARK   43  A    between atoms: C_146  and  C_147 
REMARK   44  A    between atoms: C_147  and  C_148 
REMARK   45  A    between atoms: C_148  and  N_149 
REMARK       I    between atoms: N_149  and  C_150 
REMARK       I    between atoms: C_150  and  N_151 
REMARK       I    between atoms: C_154  and  N_156 
REMARK   46  A    between atoms: C_157  and  N_156 
REMARK   47  A    between atoms: C_157  and  C_158 
REMARK   48  A    between atoms: C_157  and  C_166 
REMARK   49  A    between atoms: C_158  and  C_159 
REMARK   50  A    between atoms: C_162  and  O_163 
REMARK   51  A    between atoms: C_166  and  O_167 
REMARK       I    between atoms: N_169  and  C_170 
REMARK   52  A    between atoms: C_170  and  C_172 
REMARK   53  A    between atoms: C_172  and  C_173 
REMARK   54  A    between atoms: C_172  and  N_175 
REMARK   55  A    between atoms: C_173  and  O_174 
REMARK       I    between atoms: N_175  and  C_176 
REMARK   56  A    between atoms: C_176  and  C_178 
REMARK   57  A    between atoms: C_178  and  C_179 
REMARK   58  A    between atoms: C_178  and  N_181 
REMARK   59  A    between atoms: C_179  and  O_180 
REMARK       I    between atoms: N_181  and  C_182 
REMARK   60  A    between atoms: C_182  and  C_184 
REMARK   61  A    between atoms: C_184  and  C_185 
REMARK   62  A    between atoms: C_184  and  N_193 
REMARK   63  A    between atoms: C_185  and  C_186 
REMARK   64  A    between atoms: C_186  and  C_187 
REMARK   65  A    between atoms: C_187  and  N_188 
REMARK       I    between atoms: N_188  and  C_189 
REMARK       I    between atoms: C_189  and  N_190 
REMARK       I    between atoms: N_193  and  C_194 
REMARK   66  A    between atoms: C_194  and  C_196 
REMARK   67  A    between atoms: C_196  and  C_197 
REMARK   68  A    between atoms: C_196  and  N_205 
REMARK   69  A    between atoms: C_197  and  C_198 
REMARK   70  A    between atoms: C_198  and  C_199 
REMARK   71  A    between atoms: C_199  and  N_200 
REMARK       I    between atoms: N_200  and  C_201 
REMARK       I    between atoms: C_201  and  N_202 
REMARK       I    between atoms: N_205  and  C_206 
REMARK   72  A    between atoms: C_206  and  C_208 
REMARK   73  A    between atoms: C_208  and  C_209 
REMARK   74  A    between atoms: C_208  and  N_213 
REMARK   75  A    between atoms: C_209  and  C_210 
REMARK       I    between atoms: N_213  and  C_214 
REMARK   76  A    between atoms: C_214  and  C_216 
REMARK   77  A    between atoms: C_216  and  C_217 
REMARK   78  A    between atoms: C_216  and  N_219 
REMARK   79  A    between atoms: C_217  and  O_218 
REMARK       I    between atoms: N_219  and  C_220 
REMARK   80  A    between atoms: C_220  and  C_222 
REMARK   81  A    between atoms: C_222  and  C_223 
REMARK   82  A    between atoms: C_222  and  N_231 
REMARK   83  A    between atoms: C_223  and  C_224 
REMARK   84  A    between atoms: C_224  and  C_225 
REMARK   85  A    between atoms: C_225  and  N_226 
REMARK       I    between atoms: N_226  and  C_227 
REMARK       I    between atoms: C_227  and  N_228 
REMARK       I    between atoms: N_231  and  C_232 
REMARK   86  A    between atoms: C_234  and  C_232 
REMARK       I    between atoms: N_238  and  C_239 
REMARK   87  A    between atoms: C_239  and  C_241 
REMARK   88  A    between atoms: C_241  and  N_243 
REMARK       I    between atoms: N_243  and  C_244 
REMARK   89  A    between atoms: C_244  and  C_246 
REMARK   90  A    between atoms: C_246  and  N_247 
REMARK   91  A    between atoms: C_246  and  C_248 
REMARK   92  A    between atoms: C_248  and  O_250 
ROOT
HETATM    1  C   UNK N   1      36.145  11.816  11.519  0.00  0.00     0.176 C 
HETATM    2  N   UNK N   1      35.790  12.044  12.901  0.00  0.00    -0.346 N 
HETATM    3  C   UNK N   1      34.873  11.317  13.591  0.00  0.00     0.236 C 
HETATM    4  O   UNK N   1      34.656  11.596  14.758  0.00  0.00    -0.272 OA
HETATM    5  C   UNK N   1      34.189  10.118  13.009  0.00  0.00     0.225 C 
HETATM    6  N   UNK N   1      33.286  10.437  11.934  0.00  0.00    -0.351 N 
HETATM    7  C   UNK N   1      33.486   9.935  10.694  0.00  0.00     0.235 C 
HETATM    8  O   UNK N   1      34.484   9.278  10.444  0.00  0.00    -0.272 OA
HETATM    9  C   UNK N   1      32.452  10.120   9.641  0.00  0.00     0.225 C 
HETATM   10  N   UNK N   1      31.506   9.038   9.735  0.00  0.00    -0.351 N 
HETATM   11  C   UNK N   1      31.659   7.866   9.075  0.00  0.00     0.241 C 
HETATM   12  O   UNK N   1      30.820   6.990   9.223  0.00  0.00    -0.271 OA
HETATM   13  C   UNK N   1      32.818   7.619   8.145  0.00  0.00     0.180 C 
HETATM   14  N   UNK N   1      32.257   7.260   6.866  0.00  0.00    -0.346 N 
HETATM   15  C   UNK N   1      33.039   6.777   5.873  0.00  0.00     0.242 C 
HETATM   16  O   UNK N   1      34.248   6.822   5.954  0.00  0.00    -0.271 OA
HETATM   17  C   UNK N   1      32.484   5.898   4.855  0.00  0.00     0.186 C 
HETATM   18  C   UNK N   1      31.004   5.852   4.634  0.00  0.00     0.120 C 
HETATM   19  S   UNK N   1      30.624   6.958   3.262  0.00  0.00    -0.095 SA
HETATM   20  S   UNK N   1      32.368   6.500   2.053  0.00  0.00    -0.095 SA
HETATM   21  C   UNK N   1      32.189   4.694   1.802  0.00  0.00     0.120 C 
HETATM   22  C   UNK N   1      30.834   4.022   2.014  0.00  0.00     0.186 C 
HETATM   23  N   UNK N   1      29.717   4.797   1.519  0.00  0.00    -0.346 N 
HETATM   24  C   UNK N   1      28.684   4.220   0.864  0.00  0.00     0.236 C 
HETATM   25  O   UNK N   1      27.783   4.919   0.429  0.00  0.00    -0.272 OA
HETATM   26  C   UNK N   1      28.633   2.733   0.662  0.00  0.00     0.225 C 
HETATM   27  N   UNK N   1      29.911   2.266   0.174  0.00  0.00    -0.351 N 
HETATM   28  C   UNK N   1      30.081   1.404  -0.855  0.00  0.00     0.240 C 
HETATM   29  O   UNK N   1      31.219   1.118  -1.200  0.00  0.00    -0.271 OA
HETATM   30  C   UNK N   1      28.904   0.843  -1.608  0.00  0.00     0.177 C 
HETATM   31  N   UNK N   1      29.384  -0.012  -2.667  0.00  0.00    -0.346 N 
HETATM   32  C   UNK N   1      29.203   0.292  -3.973  0.00  0.00     0.236 C 
HETATM   33  O   UNK N   1      29.734  -0.404  -4.822  0.00  0.00    -0.272 OA
HETATM   34  C   UNK N   1      28.389   1.481  -4.401  0.00  0.00     0.225 C 
HETATM   35  N   UNK N   1      27.591   1.107  -5.540  0.00  0.00    -0.350 N 
HETATM   36  C   UNK N   1      27.289   1.896  -6.607  0.00  0.00     0.242 C 
HETATM   37  O   UNK N   1      26.626   1.402  -7.505  0.00  0.00    -0.271 OA
HETATM   38  C   UNK N   1      27.670   3.373  -6.736  0.00  0.00     0.200 C 
HETATM   39  N   UNK N   1      28.702   3.826  -5.825  0.00  0.00    -0.344 N 
HETATM   40  C   UNK N   1      29.209   5.099  -5.799  0.00  0.00     0.241 C 
HETATM   41  O   UNK N   1      28.822   5.937  -6.599  0.00  0.00    -0.271 OA
HETATM   42  C   UNK N   1      30.225   5.491  -4.751  0.00  0.00     0.177 C 
HETATM   43  N   UNK N   1      30.238   4.374  -3.827  0.00  0.00    -0.346 N 
HETATM   44  C   UNK N   1      30.124   4.391  -2.482  0.00  0.00     0.240 C 
HETATM   45  O   UNK N   1      29.315   3.637  -1.999  0.00  0.00    -0.271 OA
HETATM   46  C   UNK N   1      30.714   5.441  -1.590  0.00  0.00     0.172 C 
HETATM   47  C   UNK N   1      32.059   5.933  -2.115  0.00  0.00     0.042 C 
HETATM   48  N   UNK N   1      29.713   6.464  -1.457  0.00  0.00    -0.347 N 
HETATM   49  C   UNK N   1      29.858   7.692  -0.927  0.00  0.00     0.236 C 
HETATM   50  O   UNK N   1      28.907   8.454  -0.956  0.00  0.00    -0.272 OA
HETATM   51  C   UNK N   1      31.129   8.160  -0.324  0.00  0.00     0.225 C 
HETATM   52  N   UNK N   1      30.747   8.784   0.904  0.00  0.00    -0.351 N 
HETATM   53  C   UNK N   1      31.441   9.760   1.501  0.00  0.00     0.241 C 
HETATM   54  O   UNK N   1      30.964  10.283   2.495  0.00  0.00    -0.271 OA
HETATM   55  C   UNK N   1      32.788  10.203   0.980  0.00  0.00     0.180 C 
HETATM   56  N   UNK N   1      33.756  10.191   2.066  0.00  0.00    -0.346 N 
HETATM   57  C   UNK N   1      33.685  11.049   3.114  0.00  0.00     0.241 C 
HETATM   58  O   UNK N   1      32.872  11.959   3.100  0.00  0.00    -0.271 OA
HETATM   59  C   UNK N   1      34.587  10.896   4.306  0.00  0.00     0.176 C 
HETATM   60  N   UNK N   1      34.344  11.989   5.222  0.00  0.00    -0.346 N 
HETATM   61  C   UNK N   1      33.145  12.265   5.802  0.00  0.00     0.241 C 
HETATM   62  O   UNK N   1      32.228  11.455   5.774  0.00  0.00    -0.271 OA
HETATM   63  C   UNK N   1      32.893  13.641   6.334  0.00  0.00     0.186 C 
HETATM   64  N   UNK N   1      33.724  13.998   7.463  0.00  0.00    -0.346 N 
HETATM   65  C   UNK N   1      35.075  14.119   7.444  0.00  0.00     0.241 C 
HETATM   66  O   UNK N   1      35.712  13.958   6.417  0.00  0.00    -0.271 OA
HETATM   67  C   UNK N   1      35.811  14.375   8.719  0.00  0.00     0.177 C 
HETATM   68  N   UNK N   1      35.535  13.301   9.651  0.00  0.00    -0.346 N 
HETATM   69  C   UNK N   1      36.230  13.127  10.799  0.00  0.00     0.241 C 
HETATM   70  O   UNK N   1      37.023  13.977  11.179  0.00  0.00    -0.271 OA
HETATM   71  H   UNK N   1      36.245  12.776  13.376  0.00  0.00     0.163 HD
HETATM   72  H   UNK N   1      32.516  11.026  12.103  0.00  0.00     0.163 HD
HETATM   73  H   UNK N   1      30.712   9.157  10.305  0.00  0.00     0.163 HD
HETATM   74  H   UNK N   1      31.291   7.369   6.712  0.00  0.00     0.163 HD
HETATM   75  H   UNK N   1      29.709   5.770   1.663  0.00  0.00     0.163 HD
HETATM   76  H   UNK N   1      30.719   2.600   0.625  0.00  0.00     0.163 HD
HETATM   77  H   UNK N   1      29.859  -0.841  -2.431  0.00  0.00     0.163 HD
HETATM   78  H   UNK N   1      27.228   0.190  -5.547  0.00  0.00     0.163 HD
HETATM   79  H   UNK N   1      29.064   3.175  -5.182  0.00  0.00     0.163 HD
HETATM   80  H   UNK N   1      30.344   3.485  -4.235  0.00  0.00     0.163 HD
HETATM   81  H   UNK N   1      28.815   6.241  -1.793  0.00  0.00     0.163 HD
HETATM   82  H   UNK N   1      29.918   8.477   1.338  0.00  0.00     0.163 HD
HETATM   83  H   UNK N   1      34.490   9.535   2.040  0.00  0.00     0.163 HD
HETATM   84  H   UNK N   1      35.103  12.576   5.441  0.00  0.00     0.163 HD
HETATM   85  H   UNK N   1      33.270  14.167   8.320  0.00  0.00     0.163 HD
HETATM   86  H   UNK N   1      34.810  12.669   9.440  0.00  0.00     0.163 HD
ENDROOT
BRANCH  17  87
HETATM   87  N   UNK N   1      33.237   4.666   4.756  0.00  0.00    -0.345 N 
HETATM   88  C   UNK N   1      33.127   3.592   5.588  0.00  0.00     0.243 C 
HETATM   89  O   UNK N   1      34.109   2.886   5.734  0.00  0.00    -0.271 OA
HETATM   90  H   UNK N   1      33.888   4.596   4.021  0.00  0.00     0.163 HD
BRANCH  88  91
HETATM   91  C   UNK N   1      31.919   3.303   6.452  0.00  0.00     0.200 C 
BRANCH  91  92
HETATM   92  C   UNK N   1      31.413   1.862   6.477  0.00  0.00     0.199 C 
BRANCH  92  93
HETATM   93  O   UNK N   1      32.479   0.962   6.484  0.00  0.00    -0.398 OA
HETATM   94  H   UNK N   1      33.148   0.889   7.183  0.00  0.00     0.209 HD
ENDBRANCH  92  93
ENDBRANCH  91  92
BRANCH  91  95
HETATM   95  N   UNK N   1      32.160   3.667   7.821  0.00  0.00    -0.344 N 
HETATM   96  C   UNK N   1      31.133   3.833   8.673  0.00  0.00     0.243 C 
HETATM   97  O   UNK N   1      31.355   3.900   9.870  0.00  0.00    -0.271 OA
HETATM   98  H   UNK N   1      33.082   3.796   8.138  0.00  0.00     0.163 HD
BRANCH  96  99
HETATM   99  C   UNK N   1      29.731   3.901   8.137  0.00  0.00     0.200 C 
BRANCH  99 100
HETATM  100  C   UNK N   1      29.316   4.940   7.107  0.00  0.00     0.199 C 
BRANCH 100 101
HETATM  101  O   UNK N   1      28.768   6.056   7.736  0.00  0.00    -0.398 OA
HETATM  102  H   UNK N   1      28.071   6.191   8.397  0.00  0.00     0.209 HD
ENDBRANCH 100 101
ENDBRANCH  99 100
BRANCH  99 103
HETATM  103  N   UNK N   1      28.955   2.675   8.173  0.00  0.00    -0.344 N 
HETATM  104  C   UNK N   1      27.638   2.550   8.495  0.00  0.00     0.241 C 
HETATM  105  O   UNK N   1      27.146   1.437   8.552  0.00  0.00    -0.271 OA
HETATM  106  H   UNK N   1      29.430   1.846   7.938  0.00  0.00     0.163 HD
BRANCH 104 107
HETATM  107  C   UNK N   1      26.778   3.725   8.845  0.00  0.00     0.176 C 
BRANCH 107 108
HETATM  108  C   UNK N   1      26.957   4.062  10.315  0.00  0.00     0.036 C 
BRANCH 108 109
HETATM  109  C   UNK N   1      25.803   3.495  11.098  0.00  0.00     0.023 C 
BRANCH 109 110
HETATM  110  C   UNK N   1      26.253   2.725  12.327  0.00  0.00     0.138 C 
BRANCH 110 111
HETATM  111  N   UNK N   1      25.237   1.833  12.824  0.00  0.00    -0.227 N 
HETATM  112  C   UNK N   1      24.818   1.812  14.176  0.00  0.00     0.665 C 
HETATM  113  N   UNK N   1      25.188   2.844  15.070  0.00  0.00    -0.235 N 
HETATM  114  N   UNK N   1      24.060   0.867  14.578  0.00  0.00    -0.235 N 
HETATM  115  H   UNK N   1      25.448   3.298  15.904  0.00  0.00     0.174 HD
HETATM  116  H   UNK N   1      25.179   3.612  14.455  0.00  0.00     0.174 HD
HETATM  117  H   UNK N   1      23.110   0.829  14.318  0.00  0.00     0.174 HD
ATOM    118  HN  UNK N   1      24.444   0.139  15.179  1.00  0.00     0.174 HD
HETATM  119  H   UNK N   1      24.813   1.207  12.193  0.00  0.00     0.177 HD
ENDBRANCH 110 111
ENDBRANCH 109 110
ENDBRANCH 108 109
ENDBRANCH 107 108
BRANCH 107 120
HETATM  120  N   UNK N   1      25.396   3.486   8.451  0.00  0.00    -0.346 N 
HETATM  121  C   UNK N   1      25.002   3.604   7.156  0.00  0.00     0.241 C 
HETATM  122  O   UNK N   1      23.865   3.298   6.832  0.00  0.00    -0.271 OA
HETATM  123  H   UNK N   1      24.735   3.235   9.136  0.00  0.00     0.163 HD
BRANCH 121 124
HETATM  124  C   UNK N   1      25.948   4.220   6.169  0.00  0.00     0.176 C 
BRANCH 124 125
HETATM  125  C   UNK N   1      26.439   3.342   5.035  0.00  0.00     0.036 C 
BRANCH 125 126
HETATM  126  C   UNK N   1      26.312   4.129   3.742  0.00  0.00     0.023 C 
BRANCH 126 127
HETATM  127  C   UNK N   1      25.551   3.341   2.695  0.00  0.00     0.138 C 
BRANCH 127 128
HETATM  128  N   UNK N   1      25.091   4.231   1.660  0.00  0.00    -0.227 N 
HETATM  129  C   UNK N   1      23.842   4.034   1.016  0.00  0.00     0.665 C 
HETATM  130  N   UNK N   1      23.423   4.932   0.013  0.00  0.00    -0.235 N 
HETATM  131  N   UNK N   1      23.109   3.024   1.310  0.00  0.00    -0.235 N 
HETATM  132  H   UNK N   1      22.549   5.376  -0.087  0.00  0.00     0.174 HD
HETATM  133  H   UNK N   1      24.091   5.143  -0.679  0.00  0.00     0.174 HD
HETATM  134  H   UNK N   1      23.188   2.229   1.886  0.00  0.00     0.174 HD
ATOM    135  HN  UNK N   1      22.213   3.050   0.821  1.00  0.00     0.174 HD
HETATM  136  H   UNK N   1      25.655   4.992   1.394  0.00  0.00     0.177 HD
ENDBRANCH 127 128
ENDBRANCH 126 127
ENDBRANCH 125 126
ENDBRANCH 124 125
BRANCH 124 137
HETATM  137  N   UNK N   1      25.281   5.419   5.740  0.00  0.00    -0.346 N 
HETATM  138  C   UNK N   1      25.468   6.605   6.373  0.00  0.00     0.241 C 
HETATM  139  O   UNK N   1      25.850   6.644   7.534  0.00  0.00    -0.271 OA
HETATM  140  H   UNK N   1      24.674   5.380   4.966  0.00  0.00     0.163 HD
BRANCH 138 141
HETATM  141  C   UNK N   1      25.531   7.840   5.552  0.00  0.00     0.177 C 
BRANCH 141 142
HETATM  142  C   UNK N   1      24.439   8.741   6.125  0.00  0.00     0.038 C 
BRANCH 142 143
HETATM  143  C   UNK N   1      23.412   9.218   5.126  0.00  0.00    -0.020 C 
HETATM  144  C   UNK N   1      22.017   9.029   5.687  0.00  0.00     0.009 C 
HETATM  145  C   UNK N   1      23.554   8.404   3.854  0.00  0.00     0.009 C 
ENDBRANCH 142 143
ENDBRANCH 141 142
BRANCH 141 146
HETATM  146  N   UNK N   1      26.806   8.542   5.510  0.00  0.00    -0.346 N 
HETATM  147  C   UNK N   1      27.542   9.021   4.463  0.00  0.00     0.243 C 
HETATM  148  O   UNK N   1      28.595   9.582   4.722  0.00  0.00    -0.271 OA
HETATM  149  H   UNK N   1      27.211   8.699   6.393  0.00  0.00     0.163 HD
BRANCH 147 150
HETATM  150  C   UNK N   1      27.126   8.901   2.998  0.00  0.00     0.200 C 
BRANCH 150 151
HETATM  151  C   UNK N   1      27.165   7.453   2.511  0.00  0.00     0.199 C 
BRANCH 151 152
HETATM  152  O   UNK N   1      26.094   7.183   1.660  0.00  0.00    -0.398 OA
HETATM  153  H   UNK N   1      26.194   6.997   0.713  0.00  0.00     0.209 HD
ENDBRANCH 151 152
ENDBRANCH 150 151
BRANCH 150 154
HETATM  154  N   UNK N   1      27.819   9.752   2.039  0.00  0.00    -0.344 N 
HETATM  155  C   UNK N   1      27.296  10.672   1.188  0.00  0.00     0.241 C 
HETATM  156  O   UNK N   1      28.046  11.253   0.419  0.00  0.00    -0.271 OA
HETATM  157  H   UNK N   1      28.797   9.647   2.003  0.00  0.00     0.163 HD
BRANCH 155 158
HETATM  158  C   UNK N   1      25.840  11.020   1.186  0.00  0.00     0.176 C 
BRANCH 158 159
HETATM  159  C   UNK N   1      25.382  11.420   2.586  0.00  0.00     0.036 C 
BRANCH 159 160
HETATM  160  C   UNK N   1      25.646  12.903   2.795  0.00  0.00     0.023 C 
BRANCH 160 161
HETATM  161  C   UNK N   1      26.276  13.166   4.150  0.00  0.00     0.138 C 
BRANCH 161 162
HETATM  162  N   UNK N   1      27.509  12.431   4.286  0.00  0.00    -0.227 N 
HETATM  163  C   UNK N   1      28.768  13.058   4.090  0.00  0.00     0.665 C 
HETATM  164  N   UNK N   1      28.842  14.393   3.634  0.00  0.00    -0.235 N 
HETATM  165  N   UNK N   1      29.847  12.402   4.304  0.00  0.00    -0.235 N 
HETATM  166  H   UNK N   1      29.672  14.919   3.577  0.00  0.00     0.174 HD
HETATM  167  H   UNK N   1      28.005  14.828   3.353  0.00  0.00     0.174 HD
HETATM  168  H   UNK N   1      29.878  11.429   4.153  0.00  0.00     0.174 HD
ATOM    169  HN  UNK N   1      30.680  12.890   4.633  1.00  0.00     0.174 HD
HETATM  170  H   UNK N   1      27.477  11.476   4.520  0.00  0.00     0.177 HD
ENDBRANCH 161 162
ENDBRANCH 160 161
ENDBRANCH 159 160
ENDBRANCH 158 159
BRANCH 158 171
HETATM  171  N   UNK N   1      25.123   9.851   0.794  0.00  0.00    -0.346 N 
HETATM  172  C   UNK N   1      24.102   9.805  -0.090  0.00  0.00     0.241 C 
HETATM  173  O   UNK N   1      23.701  10.814  -0.652  0.00  0.00    -0.271 OA
HETATM  174  H   UNK N   1      25.397   8.999   1.206  0.00  0.00     0.163 HD
BRANCH 172 175
HETATM  175  C   UNK N   1      23.397   8.490  -0.247  0.00  0.00     0.179 C 
HETATM  176  C   UNK N   1      22.416   8.318   0.900  0.00  0.00     0.037 C 
HETATM  177  C   UNK N   1      21.099   8.931   0.424  0.00  0.00     0.022 C 
HETATM  178  C   UNK N   1      21.187   9.007  -1.096  0.00  0.00     0.127 C 
HETATM  179  N   UNK N   1      22.544   8.665  -1.404  0.00  0.00    -0.337 N 
HETATM  180  C   UNK N   1      23.013   8.563  -2.681  0.00  0.00     0.243 C 
HETATM  181  O   UNK N   1      22.298   8.889  -3.625  0.00  0.00    -0.271 OA
BRANCH 180 182
HETATM  182  C   UNK N   1      24.322   7.851  -2.928  0.00  0.00     0.172 C 
HETATM  183  C   UNK N   1      25.203   8.514  -3.982  0.00  0.00     0.042 C 
BRANCH 182 184
HETATM  184  N   UNK N   1      23.908   6.517  -3.328  0.00  0.00    -0.346 N 
HETATM  185  C   UNK N   1      24.684   5.420  -3.086  0.00  0.00     0.243 C 
HETATM  186  O   UNK N   1      25.549   5.451  -2.222  0.00  0.00    -0.271 OA
HETATM  187  H   UNK N   1      23.044   6.401  -3.785  0.00  0.00     0.163 HD
BRANCH 185 188
HETATM  188  C   UNK N   1      24.677   4.273  -4.062  0.00  0.00     0.196 C 
BRANCH 188 189
HETATM  189  N   UNK N   1      24.484   4.735  -5.429  0.00  0.00    -0.417 N 
HETATM  190  H   UNK N   1      25.080   4.999  -6.213  0.00  0.00     0.150 HD
HETATM  191  H   UNK N   1      23.494   4.816  -5.663  0.00  0.00     0.150 HD
ENDBRANCH 188 189
BRANCH 188 192
HETATM  192  C   UNK N   1      23.730   3.128  -3.731  0.00  0.00     0.145 C 
HETATM  193  C   UNK N   1      24.542   1.849  -3.613  0.00  0.00     0.042 C 
BRANCH 192 194
HETATM  194  O   UNK N   1      23.096   3.357  -2.509  0.00  0.00    -0.393 OA
HETATM  195  H   UNK N   1      23.064   4.082  -1.865  0.00  0.00     0.210 HD
ENDBRANCH 192 194
ENDBRANCH 188 192
ENDBRANCH 185 188
ENDBRANCH 182 184
ENDBRANCH 180 182
ENDBRANCH 172 175
ENDBRANCH 158 171
ENDBRANCH 155 158
ENDBRANCH 150 154
ENDBRANCH 147 150
ENDBRANCH 141 146
ENDBRANCH 138 141
ENDBRANCH 124 137
ENDBRANCH 121 124
ENDBRANCH 107 120
ENDBRANCH 104 107
ENDBRANCH  99 103
ENDBRANCH  96  99
ENDBRANCH  91  95
ENDBRANCH  88  91
ENDBRANCH  17  87
BRANCH  13 196
HETATM  196  C   UNK N   1      33.556   6.361   8.599  0.00  0.00     0.073 C 
BRANCH 196 197
HETATM  197  C   UNK N   1      34.449   6.360   9.765  0.00  0.00    -0.056 A 
HETATM  198  C   UNK N   1      33.924   6.064  11.020  0.00  0.00     0.007 A 
HETATM  199  C   UNK N   1      34.785   5.795  12.079  0.00  0.00     0.001 A 
HETATM  200  C   UNK N   1      36.172   5.821  11.885  0.00  0.00     0.000 A 
HETATM  201  C   UNK N   1      36.698   6.113  10.626  0.00  0.00     0.001 A 
HETATM  202  C   UNK N   1      35.834   6.356   9.558  0.00  0.00     0.007 A 
ENDBRANCH 196 197
ENDBRANCH  13 196
BRANCH  22 203
HETATM  203  C   UNK N   1      30.575   3.301   3.324  0.00  0.00     0.242 C 
HETATM  204  O   UNK N   1      29.786   3.780   4.124  0.00  0.00    -0.271 OA
HETATM  205  N   UNK N   1      31.168   2.110   3.616  0.00  0.00    -0.346 N 
HETATM  206  H   UNK N   1      30.986   1.703   4.494  0.00  0.00     0.163 HD
BRANCH 205 207
HETATM  207  C   UNK N   1      32.053   1.407   2.705  0.00  0.00     0.185 C 
BRANCH 207 208
HETATM  208  C   UNK N   1      33.363   2.102   2.318  0.00  0.00     0.137 C 
BRANCH 208 209
HETATM  209  C   UNK N   1      34.120   1.638   1.113  0.00  0.00     0.217 C 
HETATM  210  N   UNK N   1      33.687   2.017  -0.104  0.00  0.00    -0.370 N 
HETATM  211  H   UNK N   1      33.068   1.561  -0.721  0.00  0.00     0.159 HD
HETATM  212  H   UNK N   1      34.040   2.877  -0.427  0.00  0.00     0.159 HD
HETATM  213  O   UNK N   1      35.125   0.954   1.213  0.00  0.00    -0.274 OA
ENDBRANCH 208 209
ENDBRANCH 207 208
BRANCH 207 214
HETATM  214  C   UNK N   1      32.343   0.002   3.118  0.00  0.00     0.241 C 
HETATM  215  O   UNK N   1      33.292  -0.199   3.858  0.00  0.00    -0.271 OA
HETATM  216  N   UNK N   1      31.600  -1.052   2.699  0.00  0.00    -0.344 N 
HETATM  217  H   UNK N   1      31.864  -1.941   3.029  0.00  0.00     0.163 HD
BRANCH 216 218
HETATM  218  C   UNK N   1      30.452  -0.998   1.813  0.00  0.00     0.200 C 
BRANCH 218 219
HETATM  219  C   UNK N   1      30.537  -2.176   0.871  0.00  0.00     0.199 C 
BRANCH 219 220
HETATM  220  O   UNK N   1      30.993  -1.750  -0.379  0.00  0.00    -0.398 OA
HETATM  221  H   UNK N   1      30.808  -1.945  -1.311  0.00  0.00     0.209 HD
ENDBRANCH 219 220
ENDBRANCH 218 219
BRANCH 218 222
HETATM  222  C   UNK N   1      29.169  -1.117   2.571  0.00  0.00     0.243 C 
HETATM  223  O   UNK N   1      28.746  -0.154   3.194  0.00  0.00    -0.271 OA
HETATM  224  N   UNK N   1      28.494  -2.299   2.596  0.00  0.00    -0.346 N 
HETATM  225  H   UNK N   1      28.832  -3.069   2.083  0.00  0.00     0.163 HD
BRANCH 224 226
HETATM  226  C   UNK N   1      27.282  -2.427   3.372  0.00  0.00     0.180 C 
BRANCH 226 227
HETATM  227  C   UNK N   1      26.001  -2.393   2.523  0.00  0.00     0.073 C 
BRANCH 227 228
HETATM  228  C   UNK N   1      24.966  -1.381   2.985  0.00  0.00    -0.056 A 
HETATM  229  C   UNK N   1      23.675  -1.426   2.451  0.00  0.00     0.007 A 
HETATM  230  C   UNK N   1      22.706  -0.506   2.873  0.00  0.00     0.001 A 
HETATM  231  C   UNK N   1      23.018   0.459   3.837  0.00  0.00     0.000 A 
HETATM  232  C   UNK N   1      24.300   0.509   4.378  0.00  0.00     0.001 A 
HETATM  233  C   UNK N   1      25.262  -0.403   3.953  0.00  0.00     0.007 A 
ENDBRANCH 227 228
ENDBRANCH 226 227
BRANCH 226 234
HETATM  234  C   UNK N   1      27.352  -3.587   4.339  0.00  0.00     0.241 C 
HETATM  235  O   UNK N   1      27.287  -4.717   3.887  0.00  0.00    -0.271 OA
HETATM  236  N   UNK N   1      27.527  -3.429   5.668  0.00  0.00    -0.346 N 
HETATM  237  H   UNK N   1      27.687  -4.238   6.206  0.00  0.00     0.163 HD
BRANCH 236 238
HETATM  238  C   UNK N   1      27.498  -2.165   6.363  0.00  0.00     0.176 C 
BRANCH 238 239
HETATM  239  C   UNK N   1      28.436  -2.186   7.588  0.00  0.00     0.036 C 
BRANCH 239 240
HETATM  240  C   UNK N   1      29.652  -1.272   7.551  0.00  0.00     0.023 C 
BRANCH 240 241
HETATM  241  C   UNK N   1      29.942  -0.632   8.906  0.00  0.00     0.138 C 
BRANCH 241 242
HETATM  242  N   UNK N   1      28.884  -0.900   9.849  0.00  0.00    -0.227 N 
HETATM  243  C   UNK N   1      28.735  -0.149  11.040  0.00  0.00     0.665 C 
HETATM  244  N   UNK N   1      29.557   0.974  11.292  0.00  0.00    -0.235 N 
HETATM  245  N   UNK N   1      27.819  -0.465  11.877  0.00  0.00    -0.235 N 
HETATM  246  H   UNK N   1      29.331   1.654  11.967  0.00  0.00     0.174 HD
HETATM  247  H   UNK N   1      30.385   1.081  10.770  0.00  0.00     0.174 HD
HETATM  248  H   UNK N   1      27.195  -1.207  11.704  0.00  0.00     0.174 HD
ATOM    249  HN  UNK N   1      27.734   0.064  12.745  1.00  0.00     0.174 HD
HETATM  250  H   UNK N   1      28.248  -1.627   9.660  0.00  0.00     0.177 HD
ENDBRANCH 241 242
ENDBRANCH 240 241
ENDBRANCH 239 240
ENDBRANCH 238 239
BRANCH 238 251
HETATM  251  C   UNK N   1      26.085  -2.058   6.850  0.00  0.00     0.241 C 
HETATM  252  O   UNK N   1      25.357  -3.036   6.795  0.00  0.00    -0.271 OA
HETATM  253  N   UNK N   1      25.686  -0.953   7.518  0.00  0.00    -0.345 N 
HETATM  254  H   UNK N   1      26.166  -0.106   7.373  0.00  0.00     0.163 HD
BRANCH 253 255
HETATM  255  C   UNK N   1      24.581  -0.982   8.434  0.00  0.00     0.186 C 
BRANCH 255 256
HETATM  256  C   UNK N   1      23.655   0.198   8.199  0.00  0.00     0.074 C 
BRANCH 256 257
HETATM  257  C   UNK N   1      22.439  -0.232   7.435  0.00  0.00    -0.056 A 
HETATM  258  C   UNK N   1      21.415   0.688   7.187  0.00  0.00     0.010 A 
HETATM  259  C   UNK N   1      20.298   0.309   6.436  0.00  0.00     0.037 A 
HETATM  260  C   UNK N   1      20.196  -0.992   5.936  0.00  0.00     0.065 A 
HETATM  261  C   UNK N   1      21.209  -1.919   6.189  0.00  0.00     0.037 A 
HETATM  262  C   UNK N   1      22.332  -1.538   6.928  0.00  0.00     0.010 A 
BRANCH 260 263
HETATM  263  O   UNK N   1      19.125  -1.350   5.211  0.00  0.00    -0.361 OA
HETATM  264  H   UNK N   1      18.554  -0.768   4.751  0.00  0.00     0.217 HD
ENDBRANCH 260 263
ENDBRANCH 256 257
ENDBRANCH 255 256
BRANCH 255 265
HETATM  265  C   UNK N   1      25.121  -1.069   9.833  0.00  0.00     0.163 C 
HETATM  266  O   UNK N   1      24.832  -0.217  10.654  0.00  0.00    -0.648 OA
BRANCH 265 267
HETATM  267  O   UNK N   1      25.890  -2.117  10.203  0.00  0.00    -0.775 OA
HETATM  268  H   UNK N   1      25.722  -2.585  10.996  0.00  0.00     0.167 HD
ENDBRANCH 265 267
ENDBRANCH 255 265
ENDBRANCH 253 255
ENDBRANCH 238 251
ENDBRANCH 236 238
ENDBRANCH 226 234
ENDBRANCH 224 226
ENDBRANCH 218 222
ENDBRANCH 216 218
ENDBRANCH 207 214
ENDBRANCH 205 207
ENDBRANCH  22 203
BRANCH  30 269
HETATM  269  C   UNK N   1      27.963   0.138  -0.627  0.00  0.00     0.038 C 
BRANCH 269 270
HETATM  270  C   UNK N   1      26.508   0.013  -1.021  0.00  0.00    -0.020 C 
HETATM  271  C   UNK N   1      26.155  -1.459  -1.073  0.00  0.00     0.009 C 
HETATM  272  C   UNK N   1      25.624   0.706  -0.010  0.00  0.00     0.009 C 
ENDBRANCH 269 270
ENDBRANCH  30 269
BRANCH   1 273
HETATM  273  C   UNK N   1      37.544  11.211  11.424  0.00  0.00     0.036 C 
BRANCH 273 274
HETATM  274  C   UNK N   1      37.527   9.720  11.182  0.00  0.00     0.023 C 
BRANCH 274 275
HETATM  275  C   UNK N   1      38.369   9.044  12.234  0.00  0.00     0.138 C 
BRANCH 275 276
HETATM  276  N   UNK N   1      37.559   8.854  13.400  0.00  0.00    -0.227 N 
HETATM  277  C   UNK N   1      37.780   9.549  14.611  0.00  0.00     0.665 C 
HETATM  278  N   UNK N   1      38.688  10.449  14.687  0.00  0.00    -0.235 N 
HETATM  279  N   UNK N   1      36.896   9.353  15.691  0.00  0.00    -0.235 N 
HETATM  280  H   UNK N   1      39.373  10.426  15.394  0.00  0.00     0.174 HD
ATOM    281  HN  UNK N   1      38.701  11.206  14.003  1.00  0.00     0.174 HD
HETATM  282  H   UNK N   1      35.949   9.213  15.924  0.00  0.00     0.174 HD
HETATM  283  H   UNK N   1      37.420   9.360  16.524  0.00  0.00     0.174 HD
HETATM  284  H   UNK N   1      36.816   8.210  13.357  0.00  0.00     0.177 HD
ENDBRANCH 275 276
ENDBRANCH 274 275
ENDBRANCH 273 274
ENDBRANCH   1 273
BRANCH  67 285
HETATM  285  C   UNK N   1      35.662  15.769   9.349  0.00  0.00     0.045 C 
BRANCH 285 286
HETATM  286  C   UNK N   1      34.269  16.382   9.325  0.00  0.00     0.076 C 
BRANCH 286 287
HETATM  287  S   UNK N   1      34.188  17.763   8.140  0.00  0.00    -0.173 SA
HETATM  288  C   UNK N   1      32.390  17.937   8.313  0.00  0.00     0.089 C 
ENDBRANCH 286 287
ENDBRANCH 285 286
ENDBRANCH  67 285
BRANCH  38 289
HETATM  289  C   UNK N   1      28.018   3.707  -8.178  0.00  0.00     0.199 C 
BRANCH 289 290
HETATM  290  O   UNK N   1      27.115   4.662  -8.648  0.00  0.00    -0.398 OA
HETATM  291  H   UNK N   1      26.578   4.670  -9.456  0.00  0.00     0.209 HD
ENDBRANCH 289 290
ENDBRANCH  38 289
BRANCH  63 292
HETATM  292  C   UNK N   1      32.706  14.751   5.269  0.00  0.00     0.144 C 
BRANCH 292 293
HETATM  293  C   UNK N   1      31.635  15.819   5.393  0.00  0.00     0.141 C 
HETATM  294  O   UNK N   1      31.863  16.930   4.948  0.00  0.00    -0.650 OA
BRANCH 293 295
HETATM  295  O   UNK N   1      30.452  15.592   5.989  0.00  0.00    -0.776 OA
HETATM  296  H   UNK N   1      29.871  15.457   6.711  0.00  0.00     0.167 HD
ENDBRANCH 293 295
ENDBRANCH 292 293
ENDBRANCH  63 292
BRANCH  42 297
HETATM  297  C   UNK N   1      29.665   6.769  -4.127  0.00  0.00     0.044 C 
BRANCH 297 298
HETATM  298  C   UNK N   1      30.510   7.991  -4.437  0.00  0.00     0.105 C 
BRANCH 298 299
HETATM  299  C   UNK N   1      29.680   9.224  -4.279  0.00  0.00     0.215 C 
HETATM  300  N   UNK N   1      28.370   9.120  -3.981  0.00  0.00    -0.370 N 
HETATM  301  H   UNK N   1      27.684   9.813  -4.113  0.00  0.00     0.159 HD
HETATM  302  H   UNK N   1      28.069   8.265  -3.595  0.00  0.00     0.159 HD
HETATM  303  O   UNK N   1      30.178  10.326  -4.433  0.00  0.00    -0.274 OA
ENDBRANCH 298 299
ENDBRANCH 297 298
ENDBRANCH  42 297
BRANCH  59 304
HETATM  304  C   UNK N   1      34.463   9.556   4.997  0.00  0.00     0.036 C 
BRANCH 304 305
HETATM  305  C   UNK N   1      35.355   9.588   6.226  0.00  0.00     0.023 C 
BRANCH 305 306
HETATM  306  C   UNK N   1      36.818   9.759   5.852  0.00  0.00     0.138 C 
BRANCH 306 307
HETATM  307  N   UNK N   1      37.305  10.987   6.393  0.00  0.00    -0.227 N 
HETATM  308  C   UNK N   1      38.269  10.989   7.418  0.00  0.00     0.665 C 
HETATM  309  N   UNK N   1      38.918   9.791   7.798  0.00  0.00    -0.235 N 
HETATM  310  N   UNK N   1      38.480  12.066   8.070  0.00  0.00    -0.235 N 
HETATM  311  H   UNK N   1      39.524   9.148   8.232  0.00  0.00     0.174 HD
HETATM  312  H   UNK N   1      38.409   9.161   7.238  0.00  0.00     0.174 HD
HETATM  313  H   UNK N   1      38.837  12.902   7.690  0.00  0.00     0.174 HD
ATOM    314  HN  UNK N   1      38.261  12.061   9.066  1.00  0.00     0.174 HD
HETATM  315  H   UNK N   1      36.963  11.842   6.045  0.00  0.00     0.177 HD
ENDBRANCH 306 307
ENDBRANCH 305 306
ENDBRANCH 304 305
ENDBRANCH  59 304
BRANCH  55 316
HETATM  316  C   UNK N   1      32.755  11.516   0.164  0.00  0.00     0.013 C 
HETATM  317  C   UNK N   1      34.161  11.861  -0.287  0.00  0.00     0.012 C 
BRANCH 316 318
HETATM  318  C   UNK N   1      31.858  11.455  -1.073  0.00  0.00     0.002 C 
HETATM  319  C   UNK N   1      32.639  11.021  -2.293  0.00  0.00     0.005 C 
ENDBRANCH 316 318
ENDBRANCH  55 316
TORSDOF 92
ENDMDL
MODEL 4
REMARK VINA RESULT:      -4.6      3.178     12.250
REMARK WARNING: 32 MAX_TORS EXCEEDED!!!
REMARK  92 active torsions:
REMARK  status: ('A' for Active; 'I' for Inactive)
REMARK       I    between atoms: C_3  and  N_4 
REMARK       I    between atoms: C_3  and  N_5 
REMARK    1  A    between atoms: N_5  and  C_6 
REMARK    2  A    between atoms: C_6  and  C_7 
REMARK    3  A    between atoms: C_7  and  C_8 
REMARK    4  A    between atoms: C_9  and  C_8 
REMARK    5  A    between atoms: C_21  and  C_22 
REMARK    6  A    between atoms: C_22  and  C_23 
REMARK    7  A    between atoms: C_32  and  N_169 
REMARK    8  A    between atoms: C_37  and  C_117 
REMARK    9  A    between atoms: C_45  and  C_46 
REMARK   10  A    between atoms: C_46  and  C_47 
REMARK   11  A    between atoms: C_57  and  C_58 
REMARK   12  A    between atoms: C_58  and  O_59 
REMARK   13  A    between atoms: C_63  and  C_64 
REMARK   14  A    between atoms: C_64  and  C_65 
REMARK   15  A    between atoms: C_65  and  C_66 
REMARK       I    between atoms: C_66  and  N_67 
REMARK   16  A    between atoms: C_81  and  C_113 
REMARK   17  A    between atoms: C_85  and  C_86 
REMARK   18  A    between atoms: C_86  and  C_87 
REMARK   19  A    between atoms: C_87  and  C_88 
REMARK   20  A    between atoms: C_88  and  N_89 
REMARK       I    between atoms: N_89  and  C_90 
REMARK       I    between atoms: C_90  and  N_91 
REMARK   21  A    between atoms: C_97  and  C_98 
REMARK   22  A    between atoms: C_98  and  C_99 
REMARK   23  A    between atoms: C_99  and  O_100 
REMARK   24  A    between atoms: C_105  and  C_106 
REMARK   25  A    between atoms: C_106  and  C_107 
REMARK   26  A    between atoms: C_107  and  S_108 
REMARK   27  A    between atoms: C_113  and  C_115 
REMARK       I    between atoms: C_117  and  N_119 
REMARK   28  A    between atoms: C_120  and  N_119 
REMARK   29  A    between atoms: C_120  and  C_121 
REMARK   30  A    between atoms: C_120  and  C_125 
REMARK   31  A    between atoms: C_121  and  C_122 
REMARK       I    between atoms: C_122  and  N_123 
REMARK       I    between atoms: C_125  and  N_127 
REMARK   32  A    between atoms: C_128  and  N_127 
REMARK   33  A    between atoms: C_128  and  C_129 
REMARK   34  A    between atoms: C_128  and  C_131 
REMARK   35  A    between atoms: C_129  and  O_130 
REMARK       I    between atoms: C_131  and  N_133 
REMARK   36  A    between atoms: C_134  and  N_133 
REMARK   37  A    between atoms: C_134  and  C_135 
REMARK   38  A    between atoms: C_134  and  C_142 
REMARK   39  A    between atoms: C_135  and  C_136 
REMARK       I    between atoms: C_142  and  N_144 
REMARK   40  A    between atoms: C_145  and  N_144 
REMARK   41  A    between atoms: C_145  and  C_146 
REMARK   42  A    between atoms: C_145  and  C_154 
REMARK   43  A    between atoms: C_146  and  C_147 
REMARK   44  A    between atoms: C_147  and  C_148 
REMARK   45  A    between atoms: C_148  and  N_149 
REMARK       I    between atoms: N_149  and  C_150 
REMARK       I    between atoms: C_150  and  N_151 
REMARK       I    between atoms: C_154  and  N_156 
REMARK   46  A    between atoms: C_157  and  N_156 
REMARK   47  A    between atoms: C_157  and  C_158 
REMARK   48  A    between atoms: C_157  and  C_166 
REMARK   49  A    between atoms: C_158  and  C_159 
REMARK   50  A    between atoms: C_162  and  O_163 
REMARK   51  A    between atoms: C_166  and  O_167 
REMARK       I    between atoms: N_169  and  C_170 
REMARK   52  A    between atoms: C_170  and  C_172 
REMARK   53  A    between atoms: C_172  and  C_173 
REMARK   54  A    between atoms: C_172  and  N_175 
REMARK   55  A    between atoms: C_173  and  O_174 
REMARK       I    between atoms: N_175  and  C_176 
REMARK   56  A    between atoms: C_176  and  C_178 
REMARK   57  A    between atoms: C_178  and  C_179 
REMARK   58  A    between atoms: C_178  and  N_181 
REMARK   59  A    between atoms: C_179  and  O_180 
REMARK       I    between atoms: N_181  and  C_182 
REMARK   60  A    between atoms: C_182  and  C_184 
REMARK   61  A    between atoms: C_184  and  C_185 
REMARK   62  A    between atoms: C_184  and  N_193 
REMARK   63  A    between atoms: C_185  and  C_186 
REMARK   64  A    between atoms: C_186  and  C_187 
REMARK   65  A    between atoms: C_187  and  N_188 
REMARK       I    between atoms: N_188  and  C_189 
REMARK       I    between atoms: C_189  and  N_190 
REMARK       I    between atoms: N_193  and  C_194 
REMARK   66  A    between atoms: C_194  and  C_196 
REMARK   67  A    between atoms: C_196  and  C_197 
REMARK   68  A    between atoms: C_196  and  N_205 
REMARK   69  A    between atoms: C_197  and  C_198 
REMARK   70  A    between atoms: C_198  and  C_199 
REMARK   71  A    between atoms: C_199  and  N_200 
REMARK       I    between atoms: N_200  and  C_201 
REMARK       I    between atoms: C_201  and  N_202 
REMARK       I    between atoms: N_205  and  C_206 
REMARK   72  A    between atoms: C_206  and  C_208 
REMARK   73  A    between atoms: C_208  and  C_209 
REMARK   74  A    between atoms: C_208  and  N_213 
REMARK   75  A    between atoms: C_209  and  C_210 
REMARK       I    between atoms: N_213  and  C_214 
REMARK   76  A    between atoms: C_214  and  C_216 
REMARK   77  A    between atoms: C_216  and  C_217 
REMARK   78  A    between atoms: C_216  and  N_219 
REMARK   79  A    between atoms: C_217  and  O_218 
REMARK       I    between atoms: N_219  and  C_220 
REMARK   80  A    between atoms: C_220  and  C_222 
REMARK   81  A    between atoms: C_222  and  C_223 
REMARK   82  A    between atoms: C_222  and  N_231 
REMARK   83  A    between atoms: C_223  and  C_224 
REMARK   84  A    between atoms: C_224  and  C_225 
REMARK   85  A    between atoms: C_225  and  N_226 
REMARK       I    between atoms: N_226  and  C_227 
REMARK       I    between atoms: C_227  and  N_228 
REMARK       I    between atoms: N_231  and  C_232 
REMARK   86  A    between atoms: C_234  and  C_232 
REMARK       I    between atoms: N_238  and  C_239 
REMARK   87  A    between atoms: C_239  and  C_241 
REMARK   88  A    between atoms: C_241  and  N_243 
REMARK       I    between atoms: N_243  and  C_244 
REMARK   89  A    between atoms: C_244  and  C_246 
REMARK   90  A    between atoms: C_246  and  N_247 
REMARK   91  A    between atoms: C_246  and  C_248 
REMARK   92  A    between atoms: C_248  and  O_250 
ROOT
HETATM    1  C   UNK N   1      37.030  13.351   6.490  0.00  0.00     0.176 C 
HETATM    2  N   UNK N   1      38.461  13.521   6.595  0.00  0.00    -0.346 N 
HETATM    3  C   UNK N   1      39.367  12.975   5.743  0.00  0.00     0.236 C 
HETATM    4  O   UNK N   1      40.553  13.191   5.925  0.00  0.00    -0.272 OA
HETATM    5  C   UNK N   1      38.966  12.204   4.523  0.00  0.00     0.225 C 
HETATM    6  N   UNK N   1      38.329  10.948   4.822  0.00  0.00    -0.351 N 
HETATM    7  C   UNK N   1      37.061  10.704   4.420  0.00  0.00     0.235 C 
HETATM    8  O   UNK N   1      36.403  11.579   3.879  0.00  0.00    -0.272 OA
HETATM    9  C   UNK N   1      36.480   9.344   4.571  0.00  0.00     0.225 C 
HETATM   10  N   UNK N   1      36.811   8.573   3.400  0.00  0.00    -0.351 N 
HETATM   11  C   UNK N   1      36.034   8.546   2.292  0.00  0.00     0.241 C 
HETATM   12  O   UNK N   1      36.395   7.882   1.332  0.00  0.00    -0.271 OA
HETATM   13  C   UNK N   1      34.727   9.290   2.216  0.00  0.00     0.180 C 
HETATM   14  N   UNK N   1      33.713   8.319   1.887  0.00  0.00    -0.346 N 
HETATM   15  C   UNK N   1      32.462   8.705   1.544  0.00  0.00     0.242 C 
HETATM   16  O   UNK N   1      32.100   9.852   1.699  0.00  0.00    -0.271 OA
HETATM   17  C   UNK N   1      31.640   7.870   0.682  0.00  0.00     0.186 C 
HETATM   18  C   UNK N   1      31.970   6.421   0.509  0.00  0.00     0.120 C 
HETATM   19  S   UNK N   1      30.943   5.486   1.658  0.00  0.00    -0.095 SA
HETATM   20  S   UNK N   1      29.143   6.682   1.446  0.00  0.00    -0.095 SA
HETATM   21  C   UNK N   1      28.806   6.541  -0.350  0.00  0.00     0.120 C 
HETATM   22  C   UNK N   1      29.434   5.409  -1.159  0.00  0.00     0.186 C 
HETATM   23  N   UNK N   1      29.456   4.140  -0.465  0.00  0.00    -0.346 N 
HETATM   24  C   UNK N   1      29.173   2.977  -1.096  0.00  0.00     0.236 C 
HETATM   25  O   UNK N   1      29.165   1.935  -0.460  0.00  0.00    -0.272 OA
HETATM   26  C   UNK N   1      28.864   2.952  -2.565  0.00  0.00     0.225 C 
HETATM   27  N   UNK N   1      27.902   3.985  -2.877  0.00  0.00    -0.351 N 
HETATM   28  C   UNK N   1      26.806   3.816  -3.651  0.00  0.00     0.240 C 
HETATM   29  O   UNK N   1      26.044   4.761  -3.806  0.00  0.00    -0.271 OA
HETATM   30  C   UNK N   1      26.486   2.483  -4.274  0.00  0.00     0.177 C 
HETATM   31  N   UNK N   1      25.249   2.590  -5.010  0.00  0.00    -0.346 N 
HETATM   32  C   UNK N   1      24.135   1.917  -4.644  0.00  0.00     0.236 C 
HETATM   33  O   UNK N   1      23.089   2.139  -5.230  0.00  0.00    -0.272 OA
HETATM   34  C   UNK N   1      24.147   0.926  -3.512  0.00  0.00     0.225 C 
HETATM   35  N   UNK N   1      23.349  -0.212  -3.889  0.00  0.00    -0.350 N 
HETATM   36  C   UNK N   1      22.544  -0.939  -3.066  0.00  0.00     0.242 C 
HETATM   37  O   UNK N   1      21.908  -1.855  -3.563  0.00  0.00    -0.271 OA
HETATM   38  C   UNK N   1      22.425  -0.731  -1.555  0.00  0.00     0.200 C 
HETATM   39  N   UNK N   1      22.934   0.534  -1.063  0.00  0.00    -0.344 N 
HETATM   40  C   UNK N   1      22.893   0.929   0.248  0.00  0.00     0.241 C 
HETATM   41  O   UNK N   1      22.371   0.219   1.094  0.00  0.00    -0.271 OA
HETATM   42  C   UNK N   1      23.529   2.235   0.668  0.00  0.00     0.177 C 
HETATM   43  N   UNK N   1      24.275   2.663  -0.498  0.00  0.00    -0.346 N 
HETATM   44  C   UNK N   1      25.564   3.057  -0.578  0.00  0.00     0.240 C 
HETATM   45  O   UNK N   1      26.236   2.536  -1.434  0.00  0.00    -0.271 OA
HETATM   46  C   UNK N   1      26.273   3.866   0.466  0.00  0.00     0.172 C 
HETATM   47  C   UNK N   1      25.342   4.884   1.116  0.00  0.00     0.042 C 
HETATM   48  N   UNK N   1      26.858   2.922   1.379  0.00  0.00    -0.347 N 
HETATM   49  C   UNK N   1      27.412   3.172   2.578  0.00  0.00     0.236 C 
HETATM   50  O   UNK N   1      27.804   2.231   3.247  0.00  0.00    -0.272 OA
HETATM   51  C   UNK N   1      27.550   4.543   3.127  0.00  0.00     0.225 C 
HETATM   52  N   UNK N   1      28.885   4.604   3.633  0.00  0.00    -0.351 N 
HETATM   53  C   UNK N   1      29.276   5.405   4.631  0.00  0.00     0.241 C 
HETATM   54  O   UNK N   1      30.420   5.299   5.042  0.00  0.00    -0.271 OA
HETATM   55  C   UNK N   1      28.344   6.430   5.232  0.00  0.00     0.180 C 
HETATM   56  N   UNK N   1      28.995   7.732   5.244  0.00  0.00    -0.346 N 
HETATM   57  C   UNK N   1      30.072   7.998   6.024  0.00  0.00     0.241 C 
HETATM   58  O   UNK N   1      30.442   7.181   6.851  0.00  0.00    -0.271 OA
HETATM   59  C   UNK N   1      30.833   9.287   5.883  0.00  0.00     0.176 C 
HETATM   60  N   UNK N   1      31.872   9.331   6.887  0.00  0.00    -0.346 N 
HETATM   61  C   UNK N   1      32.873   8.419   7.011  0.00  0.00     0.241 C 
HETATM   62  O   UNK N   1      33.105   7.612   6.121  0.00  0.00    -0.271 OA
HETATM   63  C   UNK N   1      33.587   8.292   8.320  0.00  0.00     0.186 C 
HETATM   64  N   UNK N   1      34.363   9.458   8.683  0.00  0.00    -0.346 N 
HETATM   65  C   UNK N   1      33.863  10.695   8.933  0.00  0.00     0.241 C 
HETATM   66  O   UNK N   1      32.665  10.913   8.898  0.00  0.00    -0.271 OA
HETATM   67  C   UNK N   1      34.800  11.833   9.177  0.00  0.00     0.177 C 
HETATM   68  N   UNK N   1      35.662  11.994   8.025  0.00  0.00    -0.346 N 
HETATM   69  C   UNK N   1      36.456  13.076   7.846  0.00  0.00     0.241 C 
HETATM   70  O   UNK N   1      36.598  13.896   8.742  0.00  0.00    -0.271 OA
HETATM   71  H   UNK N   1      38.804  14.071   7.337  0.00  0.00     0.163 HD
HETATM   72  H   UNK N   1      38.822  10.258   5.322  0.00  0.00     0.163 HD
HETATM   73  H   UNK N   1      37.640   8.042   3.406  0.00  0.00     0.163 HD
HETATM   74  H   UNK N   1      33.934   7.359   1.912  0.00  0.00     0.163 HD
HETATM   75  H   UNK N   1      29.684   4.122   0.492  0.00  0.00     0.163 HD
HETATM   76  H   UNK N   1      28.056   4.879  -2.496  0.00  0.00     0.163 HD
HETATM   77  H   UNK N   1      25.216   3.172  -5.804  0.00  0.00     0.163 HD
HETATM   78  H   UNK N   1      23.388  -0.490  -4.833  0.00  0.00     0.163 HD
HETATM   79  H   UNK N   1      23.336   1.151  -1.716  0.00  0.00     0.163 HD
HETATM   80  H   UNK N   1      23.775   2.668  -1.346  0.00  0.00     0.163 HD
HETATM   81  H   UNK N   1      26.854   1.979   1.092  0.00  0.00     0.163 HD
HETATM   82  H   UNK N   1      29.561   4.018   3.221  0.00  0.00     0.163 HD
HETATM   83  H   UNK N   1      28.641   8.444   4.665  0.00  0.00     0.163 HD
HETATM   84  H   UNK N   1      31.853  10.077   7.530  0.00  0.00     0.163 HD
HETATM   85  H   UNK N   1      35.339   9.346   8.753  0.00  0.00     0.163 HD
HETATM   86  H   UNK N   1      35.672  11.286   7.341  0.00  0.00     0.163 HD
ENDROOT
BRANCH  17  87
HETATM   87  N   UNK N   1      31.157   8.612  -0.464  0.00  0.00    -0.345 N 
HETATM   88  C   UNK N   1      30.020   9.361  -0.510  0.00  0.00     0.243 C 
HETATM   89  O   UNK N   1      29.468   9.487  -1.588  0.00  0.00    -0.271 OA
HETATM   90  H   UNK N   1      31.699   8.571  -1.284  0.00  0.00     0.163 HD
BRANCH  88  91
HETATM   91  C   UNK N   1      29.320   9.925   0.707  0.00  0.00     0.200 C 
BRANCH  91  92
HETATM   92  C   UNK N   1      29.984  11.109   1.404  0.00  0.00     0.199 C 
BRANCH  92  93
HETATM   93  O   UNK N   1      29.527  12.317   0.874  0.00  0.00    -0.398 OA
HETATM   94  H   UNK N   1      29.920  12.784   0.121  0.00  0.00     0.209 HD
ENDBRANCH  92  93
ENDBRANCH  91  92
BRANCH  91  95
HETATM   95  N   UNK N   1      27.982  10.345   0.389  0.00  0.00    -0.344 N 
HETATM   96  C   UNK N   1      27.059  10.473   1.358  0.00  0.00     0.243 C 
HETATM   97  O   UNK N   1      26.016  11.056   1.116  0.00  0.00    -0.271 OA
HETATM   98  H   UNK N   1      27.740  10.539  -0.544  0.00  0.00     0.163 HD
BRANCH  96  99
HETATM   99  C   UNK N   1      27.344   9.926   2.728  0.00  0.00     0.200 C 
BRANCH  99 100
HETATM  100  C   UNK N   1      27.604  10.838   3.917  0.00  0.00     0.199 C 
BRANCH 100 101
HETATM  101  O   UNK N   1      27.575  12.173   3.521  0.00  0.00    -0.398 OA
HETATM  102  H   UNK N   1      26.950  12.905   3.640  0.00  0.00     0.209 HD
ENDBRANCH 100 101
ENDBRANCH  99 100
BRANCH  99 103
HETATM  103  N   UNK N   1      26.833   8.601   3.025  0.00  0.00    -0.344 N 
HETATM  104  C   UNK N   1      25.550   8.271   3.340  0.00  0.00     0.241 C 
HETATM  105  O   UNK N   1      25.292   7.119   3.638  0.00  0.00    -0.271 OA
HETATM  106  H   UNK N   1      27.482   7.862   2.996  0.00  0.00     0.163 HD
BRANCH 104 107
HETATM  107  C   UNK N   1      24.447   9.283   3.396  0.00  0.00     0.176 C 
BRANCH 107 108
HETATM  108  C   UNK N   1      24.565  10.089   4.677  0.00  0.00     0.036 C 
BRANCH 108 109
HETATM  109  C   UNK N   1      23.512   9.630   5.651  0.00  0.00     0.023 C 
BRANCH 109 110
HETATM  110  C   UNK N   1      22.830  10.785   6.360  0.00  0.00     0.138 C 
BRANCH 110 111
HETATM  111  N   UNK N   1      23.678  11.409   7.344  0.00  0.00    -0.227 N 
HETATM  112  C   UNK N   1      24.151  12.738   7.230  0.00  0.00     0.665 C 
HETATM  113  N   UNK N   1      23.612  13.624   6.268  0.00  0.00    -0.235 N 
HETATM  114  N   UNK N   1      25.050  13.150   8.037  0.00  0.00    -0.235 N 
HETATM  115  H   UNK N   1      23.559  14.344   5.599  0.00  0.00     0.174 HD
HETATM  116  H   UNK N   1      22.675  13.323   6.267  0.00  0.00     0.174 HD
HETATM  117  H   UNK N   1      24.839  13.342   8.980  0.00  0.00     0.174 HD
ATOM    118  HN  UNK N   1      26.002  13.283   7.700  1.00  0.00     0.174 HD
HETATM  119  H   UNK N   1      23.940  10.885   8.136  0.00  0.00     0.177 HD
ENDBRANCH 110 111
ENDBRANCH 109 110
ENDBRANCH 108 109
ENDBRANCH 107 108
BRANCH 107 120
HETATM  120  N   UNK N   1      23.152   8.643   3.210  0.00  0.00    -0.346 N 
HETATM  121  C   UNK N   1      22.184   9.218   2.450  0.00  0.00     0.241 C 
HETATM  122  O   UNK N   1      21.146   8.616   2.222  0.00  0.00    -0.271 OA
HETATM  123  H   UNK N   1      22.975   7.777   3.644  0.00  0.00     0.163 HD
BRANCH 121 124
HETATM  124  C   UNK N   1      22.370  10.636   2.000  0.00  0.00     0.176 C 
BRANCH 124 125
HETATM  125  C   UNK N   1      22.374  10.897   0.507  0.00  0.00     0.036 C 
BRANCH 125 126
HETATM  126  C   UNK N   1      23.230   9.831  -0.156  0.00  0.00     0.023 C 
BRANCH 126 127
HETATM  127  C   UNK N   1      22.505   9.198  -1.326  0.00  0.00     0.138 C 
BRANCH 127 128
HETATM  128  N   UNK N   1      23.404   8.325  -2.036  0.00  0.00    -0.227 N 
HETATM  129  C   UNK N   1      23.022   7.696  -3.248  0.00  0.00     0.665 C 
HETATM  130  N   UNK N   1      23.933   6.853  -3.917  0.00  0.00    -0.235 N 
HETATM  131  N   UNK N   1      21.839   7.853  -3.720  0.00  0.00    -0.235 N 
HETATM  132  H   UNK N   1      24.176   6.848  -4.872  0.00  0.00     0.174 HD
HETATM  133  H   UNK N   1      24.386   6.182  -3.358  0.00  0.00     0.174 HD
HETATM  134  H   UNK N   1      21.010   8.299  -3.431  0.00  0.00     0.174 HD
ATOM    135  HN  UNK N   1      21.730   7.401  -4.629  1.00  0.00     0.174 HD
HETATM  136  H   UNK N   1      24.304   8.161  -1.671  0.00  0.00     0.177 HD
ENDBRANCH 127 128
ENDBRANCH 126 127
ENDBRANCH 125 126
ENDBRANCH 124 125
BRANCH 124 137
HETATM  137  N   UNK N   1      21.369  11.372   2.724  0.00  0.00    -0.346 N 
HETATM  138  C   UNK N   1      21.634  12.582   3.277  0.00  0.00     0.241 C 
HETATM  139  O   UNK N   1      22.780  12.910   3.553  0.00  0.00    -0.271 OA
HETATM  140  H   UNK N   1      20.467  10.988   2.820  0.00  0.00     0.163 HD
BRANCH 138 141
HETATM  141  C   UNK N   1      20.578  13.624   3.233  0.00  0.00     0.177 C 
BRANCH 141 142
HETATM  142  C   UNK N   1      19.370  12.925   2.615  0.00  0.00     0.038 C 
BRANCH 142 143
HETATM  143  C   UNK N   1      18.872  13.528   1.322  0.00  0.00    -0.020 C 
HETATM  144  C   UNK N   1      18.891  12.484   0.223  0.00  0.00     0.009 C 
HETATM  145  C   UNK N   1      19.785  14.676   0.937  0.00  0.00     0.009 C 
ENDBRANCH 142 143
ENDBRANCH 141 142
BRANCH 141 146
HETATM  146  N   UNK N   1      20.216  14.254   4.495  0.00  0.00    -0.346 N 
HETATM  147  C   UNK N   1      20.489  15.493   5.000  0.00  0.00     0.243 C 
HETATM  148  O   UNK N   1      20.050  15.763   6.107  0.00  0.00    -0.271 OA
HETATM  149  H   UNK N   1      19.680  13.684   5.093  0.00  0.00     0.163 HD
BRANCH 147 150
HETATM  150  C   UNK N   1      21.301  16.558   4.264  0.00  0.00     0.200 C 
BRANCH 150 151
HETATM  151  C   UNK N   1      20.407  17.508   3.468  0.00  0.00     0.199 C 
BRANCH 151 152
HETATM  152  O   UNK N   1      19.066  17.142   3.578  0.00  0.00    -0.398 OA
HETATM  153  H   UNK N   1      18.762  16.222   3.638  0.00  0.00     0.209 HD
ENDBRANCH 151 152
ENDBRANCH 150 151
BRANCH 150 154
HETATM  154  N   UNK N   1      22.391  16.094   3.415  0.00  0.00    -0.344 N 
HETATM  155  C   UNK N   1      23.728  16.232   3.601  0.00  0.00     0.241 C 
HETATM  156  O   UNK N   1      24.487  15.813   2.739  0.00  0.00    -0.271 OA
HETATM  157  H   UNK N   1      22.122  15.616   2.598  0.00  0.00     0.163 HD
BRANCH 155 158
HETATM  158  C   UNK N   1      24.303  16.849   4.838  0.00  0.00     0.176 C 
BRANCH 158 159
HETATM  159  C   UNK N   1      23.949  18.332   4.912  0.00  0.00     0.036 C 
BRANCH 159 160
HETATM  160  C   UNK N   1      24.752  19.091   3.867  0.00  0.00     0.023 C 
BRANCH 160 161
HETATM  161  C   UNK N   1      25.571  20.201   4.499  0.00  0.00     0.138 C 
BRANCH 161 162
HETATM  162  N   UNK N   1      25.504  20.123   5.937  0.00  0.00    -0.227 N 
HETATM  163  C   UNK N   1      26.268  20.992   6.760  0.00  0.00     0.665 C 
HETATM  164  N   UNK N   1      27.210  21.879   6.190  0.00  0.00    -0.235 N 
HETATM  165  N   UNK N   1      26.121  20.959   8.033  0.00  0.00    -0.235 N 
HETATM  166  H   UNK N   1      27.692  22.577   6.688  0.00  0.00     0.174 HD
HETATM  167  H   UNK N   1      27.396  21.791   5.228  0.00  0.00     0.174 HD
HETATM  168  H   UNK N   1      25.883  20.117   8.485  0.00  0.00     0.174 HD
ATOM    169  HN  UNK N   1      26.252  21.809   8.580  1.00  0.00     0.174 HD
HETATM  170  H   UNK N   1      24.918  19.453   6.357  0.00  0.00     0.177 HD
ENDBRANCH 161 162
ENDBRANCH 160 161
ENDBRANCH 159 160
ENDBRANCH 158 159
BRANCH 158 171
HETATM  171  N   UNK N   1      25.721  16.728   4.756  0.00  0.00    -0.346 N 
HETATM  172  C   UNK N   1      26.527  16.178   5.691  0.00  0.00     0.241 C 
HETATM  173  O   UNK N   1      26.073  15.714   6.729  0.00  0.00    -0.271 OA
HETATM  174  H   UNK N   1      26.154  17.077   3.943  0.00  0.00     0.163 HD
BRANCH 172 175
HETATM  175  C   UNK N   1      28.006  16.284   5.464  0.00  0.00     0.179 C 
HETATM  176  C   UNK N   1      28.282  16.178   3.974  0.00  0.00     0.037 C 
HETATM  177  C   UNK N   1      28.230  17.607   3.433  0.00  0.00     0.022 C 
HETATM  178  C   UNK N   1      28.402  18.526   4.637  0.00  0.00     0.127 C 
HETATM  179  N   UNK N   1      28.329  17.659   5.776  0.00  0.00    -0.337 N 
HETATM  180  C   UNK N   1      28.499  18.099   7.056  0.00  0.00     0.243 C 
HETATM  181  O   UNK N   1      28.599  19.302   7.283  0.00  0.00    -0.271 OA
BRANCH 180 182
HETATM  182  C   UNK N   1      28.773  17.093   8.149  0.00  0.00     0.172 C 
HETATM  183  C   UNK N   1      27.959  17.314   9.419  0.00  0.00     0.042 C 
BRANCH 182 184
HETATM  184  N   UNK N   1      30.200  17.236   8.386  0.00  0.00    -0.346 N 
HETATM  185  C   UNK N   1      31.101  16.316   7.934  0.00  0.00     0.243 C 
HETATM  186  O   UNK N   1      30.807  15.558   7.020  0.00  0.00    -0.271 OA
HETATM  187  H   UNK N   1      30.525  18.020   8.886  0.00  0.00     0.163 HD
BRANCH 185 188
HETATM  188  C   UNK N   1      32.345  16.035   8.735  0.00  0.00     0.196 C 
BRANCH 188 189
HETATM  189  N   UNK N   1      32.031  15.369   9.992  0.00  0.00    -0.417 N 
HETATM  190  H   UNK N   1      32.435  14.621  10.555  0.00  0.00     0.150 HD
HETATM  191  H   UNK N   1      31.188  15.751  10.421  0.00  0.00     0.150 HD
ENDBRANCH 188 189
BRANCH 188 192
HETATM  192  C   UNK N   1      33.271  17.222   8.959  0.00  0.00     0.145 C 
HETATM  193  C   UNK N   1      34.699  16.711   9.042  0.00  0.00     0.042 C 
BRANCH 192 194
HETATM  194  O   UNK N   1      33.187  18.113   7.890  0.00  0.00    -0.393 OA
HETATM  195  H   UNK N   1      33.369  18.080   6.937  0.00  0.00     0.210 HD
ENDBRANCH 192 194
ENDBRANCH 188 192
ENDBRANCH 185 188
ENDBRANCH 182 184
ENDBRANCH 180 182
ENDBRANCH 172 175
ENDBRANCH 158 171
ENDBRANCH 155 158
ENDBRANCH 150 154
ENDBRANCH 147 150
ENDBRANCH 141 146
ENDBRANCH 138 141
ENDBRANCH 124 137
ENDBRANCH 121 124
ENDBRANCH 107 120
ENDBRANCH 104 107
ENDBRANCH  99 103
ENDBRANCH  96  99
ENDBRANCH  91  95
ENDBRANCH  88  91
ENDBRANCH  17  87
BRANCH  13 196
HETATM  196  C   UNK N   1      34.759  10.225   1.009  0.00  0.00     0.073 C 
BRANCH 196 197
HETATM  197  C   UNK N   1      35.209  11.619   1.114  0.00  0.00    -0.056 A 
HETATM  198  C   UNK N   1      36.365  12.010   0.444  0.00  0.00     0.007 A 
HETATM  199  C   UNK N   1      36.657  13.363   0.310  0.00  0.00     0.001 A 
HETATM  200  C   UNK N   1      35.794  14.328   0.845  0.00  0.00     0.000 A 
HETATM  201  C   UNK N   1      34.633  13.935   1.513  0.00  0.00     0.001 A 
HETATM  202  C   UNK N   1      34.327  12.579   1.624  0.00  0.00     0.007 A 
ENDBRANCH 196 197
ENDBRANCH  13 196
BRANCH  22 203
HETATM  203  C   UNK N   1      30.674   5.703  -1.983  0.00  0.00     0.242 C 
HETATM  204  O   UNK N   1      31.773   5.418  -1.532  0.00  0.00    -0.271 OA
HETATM  205  N   UNK N   1      30.595   6.240  -3.232  0.00  0.00    -0.346 N 
HETATM  206  H   UNK N   1      31.434   6.438  -3.708  0.00  0.00     0.163 HD
BRANCH 205 207
HETATM  207  C   UNK N   1      29.341   6.538  -3.901  0.00  0.00     0.185 C 
BRANCH 207 208
HETATM  208  C   UNK N   1      28.777   7.954  -3.744  0.00  0.00     0.137 C 
BRANCH 208 209
HETATM  209  C   UNK N   1      27.295   8.167  -3.752  0.00  0.00     0.217 C 
HETATM  210  N   UNK N   1      26.731   8.724  -4.841  0.00  0.00    -0.370 N 
HETATM  211  H   UNK N   1      26.540   9.671  -5.035  0.00  0.00     0.159 HD
HETATM  212  H   UNK N   1      26.471   8.091  -5.548  0.00  0.00     0.159 HD
HETATM  213  O   UNK N   1      26.594   7.826  -2.813  0.00  0.00    -0.274 OA
ENDBRANCH 208 209
ENDBRANCH 207 208
BRANCH 207 214
HETATM  214  C   UNK N   1      29.329   6.160  -5.345  0.00  0.00     0.241 C 
HETATM  215  O   UNK N   1      28.365   6.481  -6.019  0.00  0.00    -0.271 OA
HETATM  216  N   UNK N   1      30.341   5.470  -5.930  0.00  0.00    -0.344 N 
HETATM  217  H   UNK N   1      30.246   5.271  -6.889  0.00  0.00     0.163 HD
BRANCH 216 218
HETATM  218  C   UNK N   1      31.550   4.999  -5.280  0.00  0.00     0.200 C 
BRANCH 218 219
HETATM  219  C   UNK N   1      31.907   3.659  -5.880  0.00  0.00     0.199 C 
BRANCH 219 220
HETATM  220  O   UNK N   1      33.281   3.436  -5.753  0.00  0.00    -0.398 OA
HETATM  221  H   UNK N   1      33.864   2.834  -5.266  0.00  0.00     0.209 HD
ENDBRANCH 219 220
ENDBRANCH 218 219
BRANCH 218 222
HETATM  222  C   UNK N   1      32.699   5.924  -5.524  0.00  0.00     0.243 C 
HETATM  223  O   UNK N   1      32.937   6.300  -6.663  0.00  0.00    -0.271 OA
HETATM  224  N   UNK N   1      33.495   6.317  -4.492  0.00  0.00    -0.346 N 
HETATM  225  H   UNK N   1      33.292   6.021  -3.575  0.00  0.00     0.163 HD
BRANCH 224 226
HETATM  226  C   UNK N   1      34.635   7.169  -4.739  0.00  0.00     0.180 C 
BRANCH 226 227
HETATM  227  C   UNK N   1      34.889   8.196  -3.623  0.00  0.00     0.073 C 
BRANCH 227 228
HETATM  228  C   UNK N   1      33.841   9.292  -3.527  0.00  0.00    -0.056 A 
HETATM  229  C   UNK N   1      32.796   9.327  -4.454  0.00  0.00     0.007 A 
HETATM  230  C   UNK N   1      31.816  10.325  -4.374  0.00  0.00     0.001 A 
HETATM  231  C   UNK N   1      31.871  11.291  -3.363  0.00  0.00     0.000 A 
HETATM  232  C   UNK N   1      32.906  11.262  -2.433  0.00  0.00     0.001 A 
HETATM  233  C   UNK N   1      33.881  10.272  -2.518  0.00  0.00     0.007 A 
ENDBRANCH 227 228
ENDBRANCH 226 227
BRANCH 226 234
HETATM  234  C   UNK N   1      35.857   6.373  -5.136  0.00  0.00     0.241 C 
HETATM  235  O   UNK N   1      36.246   6.452  -6.289  0.00  0.00    -0.271 OA
HETATM  236  N   UNK N   1      36.561   5.617  -4.265  0.00  0.00    -0.346 N 
HETATM  237  H   UNK N   1      37.412   5.236  -4.578  0.00  0.00     0.163 HD
BRANCH 236 238
HETATM  238  C   UNK N   1      36.161   5.326  -2.910  0.00  0.00     0.176 C 
BRANCH 238 239
HETATM  239  C   UNK N   1      37.385   5.253  -1.976  0.00  0.00     0.036 C 
BRANCH 239 240
HETATM  240  C   UNK N   1      38.753   5.484  -2.600  0.00  0.00     0.023 C 
BRANCH 240 241
HETATM  241  C   UNK N   1      39.419   6.761  -2.091  0.00  0.00     0.138 C 
BRANCH 241 242
HETATM  242  N   UNK N   1      38.784   7.935  -2.638  0.00  0.00    -0.227 N 
HETATM  243  C   UNK N   1      38.280   8.967  -1.810  0.00  0.00     0.665 C 
HETATM  244  N   UNK N   1      38.485   8.934  -0.411  0.00  0.00    -0.235 N 
HETATM  245  N   UNK N   1      37.667   9.959  -2.337  0.00  0.00    -0.235 N 
HETATM  246  H   UNK N   1      38.372   9.728   0.159  0.00  0.00     0.174 HD
HETATM  247  H   UNK N   1      38.752   8.084   0.008  0.00  0.00     0.174 HD
HETATM  248  H   UNK N   1      37.557  10.039  -3.313  0.00  0.00     0.174 HD
ATOM    249  HN  UNK N   1      37.283  10.686  -1.733  1.00  0.00     0.174 HD
HETATM  250  H   UNK N   1      38.698   8.022  -3.615  0.00  0.00     0.177 HD
ENDBRANCH 241 242
ENDBRANCH 240 241
ENDBRANCH 239 240
ENDBRANCH 238 239
BRANCH 238 251
HETATM  251  C   UNK N   1      35.554   3.959  -3.004  0.00  0.00     0.241 C 
HETATM  252  O   UNK N   1      36.268   3.003  -3.256  0.00  0.00    -0.271 OA
HETATM  253  N   UNK N   1      34.272   3.766  -2.623  0.00  0.00    -0.345 N 
HETATM  254  H   UNK N   1      33.647   4.527  -2.640  0.00  0.00     0.163 HD
BRANCH 253 255
HETATM  255  C   UNK N   1      33.797   2.481  -2.194  0.00  0.00     0.186 C 
BRANCH 255 256
HETATM  256  C   UNK N   1      32.410   2.206  -2.748  0.00  0.00     0.074 C 
BRANCH 256 257
HETATM  257  C   UNK N   1      32.265   0.757  -3.105  0.00  0.00    -0.056 A 
HETATM  258  C   UNK N   1      31.316  -0.028  -2.443  0.00  0.00     0.010 A 
HETATM  259  C   UNK N   1      31.140  -1.369  -2.801  0.00  0.00     0.037 A 
HETATM  260  C   UNK N   1      31.917  -1.931  -3.818  0.00  0.00     0.065 A 
HETATM  261  C   UNK N   1      32.873  -1.156  -4.477  0.00  0.00     0.037 A 
HETATM  262  C   UNK N   1      33.040   0.187  -4.128  0.00  0.00     0.010 A 
BRANCH 260 263
HETATM  263  O   UNK N   1      31.742  -3.216  -4.163  0.00  0.00    -0.361 OA
HETATM  264  H   UNK N   1      31.064  -3.548  -4.717  0.00  0.00     0.217 HD
ENDBRANCH 260 263
ENDBRANCH 256 257
ENDBRANCH 255 256
BRANCH 255 265
HETATM  265  C   UNK N   1      33.883   2.414  -0.696  0.00  0.00     0.163 C 
HETATM  266  O   UNK N   1      34.874   1.950  -0.160  0.00  0.00    -0.648 OA
BRANCH 265 267
HETATM  267  O   UNK N   1      32.885   2.912   0.067  0.00  0.00    -0.775 OA
HETATM  268  H   UNK N   1      33.057   3.277   0.912  0.00  0.00     0.167 HD
ENDBRANCH 265 267
ENDBRANCH 255 265
ENDBRANCH 253 255
ENDBRANCH 238 251
ENDBRANCH 236 238
ENDBRANCH 226 234
ENDBRANCH 224 226
ENDBRANCH 218 222
ENDBRANCH 216 218
ENDBRANCH 207 214
ENDBRANCH 205 207
ENDBRANCH  22 203
BRANCH  30 269
HETATM  269  C   UNK N   1      27.672   2.022  -5.125  0.00  0.00     0.038 C 
BRANCH 269 270
HETATM  270  C   UNK N   1      28.095   0.575  -5.009  0.00  0.00    -0.020 C 
HETATM  271  C   UNK N   1      27.066  -0.280  -5.719  0.00  0.00     0.009 C 
HETATM  272  C   UNK N   1      29.448   0.367  -5.650  0.00  0.00     0.009 C 
ENDBRANCH 269 270
ENDBRANCH  30 269
BRANCH   1 273
HETATM  273  C   UNK N   1      36.375  14.650   6.029  0.00  0.00     0.036 C 
BRANCH 273 274
HETATM  274  C   UNK N   1      35.069  14.428   5.303  0.00  0.00     0.023 C 
BRANCH 274 275
HETATM  275  C   UNK N   1      34.197  15.645   5.478  0.00  0.00     0.138 C 
BRANCH 275 276
HETATM  276  N   UNK N   1      33.606  15.956   4.211  0.00  0.00    -0.227 N 
HETATM  277  C   UNK N   1      32.548  16.881   4.063  0.00  0.00     0.665 C 
HETATM  278  N   UNK N   1      32.119  17.546   5.070  0.00  0.00    -0.235 N 
HETATM  279  N   UNK N   1      32.067  17.181   2.771  0.00  0.00    -0.235 N 
HETATM  280  H   UNK N   1      31.163  17.561   5.304  0.00  0.00     0.174 HD
ATOM    281  HN  UNK N   1      32.782  18.071   5.641  1.00  0.00     0.174 HD
HETATM  282  H   UNK N   1      32.344  17.320   1.836  0.00  0.00     0.174 HD
HETATM  283  H   UNK N   1      31.091  17.293   2.824  0.00  0.00     0.174 HD
HETATM  284  H   UNK N   1      33.951  15.504   3.408  0.00  0.00     0.177 HD
ENDBRANCH 275 276
ENDBRANCH 274 275
ENDBRANCH 273 274
ENDBRANCH   1 273
BRANCH  67 285
HETATM  285  C   UNK N   1      35.568  11.838  10.508  0.00  0.00     0.045 C 
BRANCH 285 286
HETATM  286  C   UNK N   1      34.830  11.296  11.724  0.00  0.00     0.076 C 
BRANCH 286 287
HETATM  287  S   UNK N   1      35.969  11.071  13.128  0.00  0.00    -0.173 SA
HETATM  288  C   UNK N   1      37.300  12.008  12.327  0.00  0.00     0.089 C 
ENDBRANCH 286 287
ENDBRANCH 285 286
ENDBRANCH  67 285
BRANCH  38 289
HETATM  289  C   UNK N   1      20.993  -0.967  -1.098  0.00  0.00     0.199 C 
BRANCH 289 290
HETATM  290  O   UNK N   1      20.139  -0.178  -1.872  0.00  0.00    -0.398 OA
HETATM  291  H   UNK N   1      20.058  -0.108  -2.836  0.00  0.00     0.209 HD
ENDBRANCH 289 290
ENDBRANCH  38 289
BRANCH  63 292
HETATM  292  C   UNK N   1      32.774   7.651   9.472  0.00  0.00     0.144 C 
BRANCH 292 293
HETATM  293  C   UNK N   1      32.425   6.174   9.492  0.00  0.00     0.141 C 
HETATM  294  O   UNK N   1      32.308   5.615  10.568  0.00  0.00    -0.650 OA
BRANCH 293 295
HETATM  295  O   UNK N   1      32.257   5.455   8.370  0.00  0.00    -0.776 OA
HETATM  296  H   UNK N   1      31.768   5.031   7.691  0.00  0.00     0.167 HD
ENDBRANCH 293 295
ENDBRANCH 292 293
ENDBRANCH  63 292
BRANCH  42 297
HETATM  297  C   UNK N   1      24.432   1.864   1.845  0.00  0.00     0.044 C 
BRANCH 297 298
HETATM  298  C   UNK N   1      23.682   1.814   3.164  0.00  0.00     0.105 C 
BRANCH 298 299
HETATM  299  C   UNK N   1      24.391   2.662   4.172  0.00  0.00     0.215 C 
HETATM  300  N   UNK N   1      25.228   2.092   5.060  0.00  0.00    -0.370 N 
HETATM  301  H   UNK N   1      25.532   2.484   5.911  0.00  0.00     0.159 HD
HETATM  302  H   UNK N   1      25.569   1.196   4.837  0.00  0.00     0.159 HD
HETATM  303  O   UNK N   1      24.202   3.866   4.205  0.00  0.00    -0.274 OA
ENDBRANCH 298 299
ENDBRANCH 297 298
ENDBRANCH  42 297
BRANCH  59 304
HETATM  304  C   UNK N   1      31.391   9.516   4.496  0.00  0.00     0.036 C 
BRANCH 304 305
HETATM  305  C   UNK N   1      32.618  10.403   4.635  0.00  0.00     0.023 C 
BRANCH 305 306
HETATM  306  C   UNK N   1      32.269  11.749   5.247  0.00  0.00     0.138 C 
BRANCH 306 307
HETATM  307  N   UNK N   1      32.094  12.712   4.207  0.00  0.00    -0.227 N 
HETATM  308  C   UNK N   1      30.890  13.431   4.087  0.00  0.00     0.665 C 
HETATM  309  N   UNK N   1      29.906  13.361   5.101  0.00  0.00    -0.235 N 
HETATM  310  N   UNK N   1      30.653  14.068   3.007  0.00  0.00    -0.235 N 
HETATM  311  H   UNK N   1      29.094  13.521   5.634  0.00  0.00     0.174 HD
HETATM  312  H   UNK N   1      30.326  12.675   5.669  0.00  0.00     0.174 HD
HETATM  313  H   UNK N   1      31.177  14.828   2.666  0.00  0.00     0.174 HD
ATOM    314  HN  UNK N   1      29.854  13.764   2.450  1.00  0.00     0.174 HD
HETATM  315  H   UNK N   1      32.824  12.875   3.567  0.00  0.00     0.177 HD
ENDBRANCH 306 307
ENDBRANCH 305 306
ENDBRANCH 304 305
ENDBRANCH  59 304
BRANCH  55 316
HETATM  316  C   UNK N   1      27.723   6.010   6.585  0.00  0.00     0.013 C 
HETATM  317  C   UNK N   1      26.243   6.343   6.582  0.00  0.00     0.012 C 
BRANCH 316 318
HETATM  318  C   UNK N   1      27.878   4.523   6.904  0.00  0.00     0.002 C 
HETATM  319  C   UNK N   1      28.693   4.317   8.162  0.00  0.00     0.005 C 
ENDBRANCH 316 318
ENDBRANCH  55 316
TORSDOF 92
ENDMDL
MODEL 5
REMARK VINA RESULT:      -4.6      3.379     13.953
REMARK WARNING: 32 MAX_TORS EXCEEDED!!!
REMARK  92 active torsions:
REMARK  status: ('A' for Active; 'I' for Inactive)
REMARK       I    between atoms: C_3  and  N_4 
REMARK       I    between atoms: C_3  and  N_5 
REMARK    1  A    between atoms: N_5  and  C_6 
REMARK    2  A    between atoms: C_6  and  C_7 
REMARK    3  A    between atoms: C_7  and  C_8 
REMARK    4  A    between atoms: C_9  and  C_8 
REMARK    5  A    between atoms: C_21  and  C_22 
REMARK    6  A    between atoms: C_22  and  C_23 
REMARK    7  A    between atoms: C_32  and  N_169 
REMARK    8  A    between atoms: C_37  and  C_117 
REMARK    9  A    between atoms: C_45  and  C_46 
REMARK   10  A    between atoms: C_46  and  C_47 
REMARK   11  A    between atoms: C_57  and  C_58 
REMARK   12  A    between atoms: C_58  and  O_59 
REMARK   13  A    between atoms: C_63  and  C_64 
REMARK   14  A    between atoms: C_64  and  C_65 
REMARK   15  A    between atoms: C_65  and  C_66 
REMARK       I    between atoms: C_66  and  N_67 
REMARK   16  A    between atoms: C_81  and  C_113 
REMARK   17  A    between atoms: C_85  and  C_86 
REMARK   18  A    between atoms: C_86  and  C_87 
REMARK   19  A    between atoms: C_87  and  C_88 
REMARK   20  A    between atoms: C_88  and  N_89 
REMARK       I    between atoms: N_89  and  C_90 
REMARK       I    between atoms: C_90  and  N_91 
REMARK   21  A    between atoms: C_97  and  C_98 
REMARK   22  A    between atoms: C_98  and  C_99 
REMARK   23  A    between atoms: C_99  and  O_100 
REMARK   24  A    between atoms: C_105  and  C_106 
REMARK   25  A    between atoms: C_106  and  C_107 
REMARK   26  A    between atoms: C_107  and  S_108 
REMARK   27  A    between atoms: C_113  and  C_115 
REMARK       I    between atoms: C_117  and  N_119 
REMARK   28  A    between atoms: C_120  and  N_119 
REMARK   29  A    between atoms: C_120  and  C_121 
REMARK   30  A    between atoms: C_120  and  C_125 
REMARK   31  A    between atoms: C_121  and  C_122 
REMARK       I    between atoms: C_122  and  N_123 
REMARK       I    between atoms: C_125  and  N_127 
REMARK   32  A    between atoms: C_128  and  N_127 
REMARK   33  A    between atoms: C_128  and  C_129 
REMARK   34  A    between atoms: C_128  and  C_131 
REMARK   35  A    between atoms: C_129  and  O_130 
REMARK       I    between atoms: C_131  and  N_133 
REMARK   36  A    between atoms: C_134  and  N_133 
REMARK   37  A    between atoms: C_134  and  C_135 
REMARK   38  A    between atoms: C_134  and  C_142 
REMARK   39  A    between atoms: C_135  and  C_136 
REMARK       I    between atoms: C_142  and  N_144 
REMARK   40  A    between atoms: C_145  and  N_144 
REMARK   41  A    between atoms: C_145  and  C_146 
REMARK   42  A    between atoms: C_145  and  C_154 
REMARK   43  A    between atoms: C_146  and  C_147 
REMARK   44  A    between atoms: C_147  and  C_148 
REMARK   45  A    between atoms: C_148  and  N_149 
REMARK       I    between atoms: N_149  and  C_150 
REMARK       I    between atoms: C_150  and  N_151 
REMARK       I    between atoms: C_154  and  N_156 
REMARK   46  A    between atoms: C_157  and  N_156 
REMARK   47  A    between atoms: C_157  and  C_158 
REMARK   48  A    between atoms: C_157  and  C_166 
REMARK   49  A    between atoms: C_158  and  C_159 
REMARK   50  A    between atoms: C_162  and  O_163 
REMARK   51  A    between atoms: C_166  and  O_167 
REMARK       I    between atoms: N_169  and  C_170 
REMARK   52  A    between atoms: C_170  and  C_172 
REMARK   53  A    between atoms: C_172  and  C_173 
REMARK   54  A    between atoms: C_172  and  N_175 
REMARK   55  A    between atoms: C_173  and  O_174 
REMARK       I    between atoms: N_175  and  C_176 
REMARK   56  A    between atoms: C_176  and  C_178 
REMARK   57  A    between atoms: C_178  and  C_179 
REMARK   58  A    between atoms: C_178  and  N_181 
REMARK   59  A    between atoms: C_179  and  O_180 
REMARK       I    between atoms: N_181  and  C_182 
REMARK   60  A    between atoms: C_182  and  C_184 
REMARK   61  A    between atoms: C_184  and  C_185 
REMARK   62  A    between atoms: C_184  and  N_193 
REMARK   63  A    between atoms: C_185  and  C_186 
REMARK   64  A    between atoms: C_186  and  C_187 
REMARK   65  A    between atoms: C_187  and  N_188 
REMARK       I    between atoms: N_188  and  C_189 
REMARK       I    between atoms: C_189  and  N_190 
REMARK       I    between atoms: N_193  and  C_194 
REMARK   66  A    between atoms: C_194  and  C_196 
REMARK   67  A    between atoms: C_196  and  C_197 
REMARK   68  A    between atoms: C_196  and  N_205 
REMARK   69  A    between atoms: C_197  and  C_198 
REMARK   70  A    between atoms: C_198  and  C_199 
REMARK   71  A    between atoms: C_199  and  N_200 
REMARK       I    between atoms: N_200  and  C_201 
REMARK       I    between atoms: C_201  and  N_202 
REMARK       I    between atoms: N_205  and  C_206 
REMARK   72  A    between atoms: C_206  and  C_208 
REMARK   73  A    between atoms: C_208  and  C_209 
REMARK   74  A    between atoms: C_208  and  N_213 
REMARK   75  A    between atoms: C_209  and  C_210 
REMARK       I    between atoms: N_213  and  C_214 
REMARK   76  A    between atoms: C_214  and  C_216 
REMARK   77  A    between atoms: C_216  and  C_217 
REMARK   78  A    between atoms: C_216  and  N_219 
REMARK   79  A    between atoms: C_217  and  O_218 
REMARK       I    between atoms: N_219  and  C_220 
REMARK   80  A    between atoms: C_220  and  C_222 
REMARK   81  A    between atoms: C_222  and  C_223 
REMARK   82  A    between atoms: C_222  and  N_231 
REMARK   83  A    between atoms: C_223  and  C_224 
REMARK   84  A    between atoms: C_224  and  C_225 
REMARK   85  A    between atoms: C_225  and  N_226 
REMARK       I    between atoms: N_226  and  C_227 
REMARK       I    between atoms: C_227  and  N_228 
REMARK       I    between atoms: N_231  and  C_232 
REMARK   86  A    between atoms: C_234  and  C_232 
REMARK       I    between atoms: N_238  and  C_239 
REMARK   87  A    between atoms: C_239  and  C_241 
REMARK   88  A    between atoms: C_241  and  N_243 
REMARK       I    between atoms: N_243  and  C_244 
REMARK   89  A    between atoms: C_244  and  C_246 
REMARK   90  A    between atoms: C_246  and  N_247 
REMARK   91  A    between atoms: C_246  and  C_248 
REMARK   92  A    between atoms: C_248  and  O_250 
ROOT
HETATM    1  C   UNK N   1      37.651  13.368   5.991  0.00  0.00     0.176 C 
HETATM    2  N   UNK N   1      38.566  13.808   4.963  0.00  0.00    -0.346 N 
HETATM    3  C   UNK N   1      38.440  13.518   3.642  0.00  0.00     0.236 C 
HETATM    4  O   UNK N   1      39.271  13.948   2.861  0.00  0.00    -0.272 OA
HETATM    5  C   UNK N   1      37.261  12.778   3.087  0.00  0.00     0.225 C 
HETATM    6  N   UNK N   1      37.198  11.402   3.506  0.00  0.00    -0.351 N 
HETATM    7  C   UNK N   1      36.142  10.945   4.218  0.00  0.00     0.235 C 
HETATM    8  O   UNK N   1      35.271  11.712   4.596  0.00  0.00    -0.272 OA
HETATM    9  C   UNK N   1      35.999   9.490   4.485  0.00  0.00     0.225 C 
HETATM   10  N   UNK N   1      35.290   8.891   3.383  0.00  0.00    -0.351 N 
HETATM   11  C   UNK N   1      33.940   8.796   3.340  0.00  0.00     0.241 C 
HETATM   12  O   UNK N   1      33.414   8.291   2.361  0.00  0.00    -0.271 OA
HETATM   13  C   UNK N   1      33.070   9.271   4.474  0.00  0.00     0.180 C 
HETATM   14  N   UNK N   1      32.263   8.148   4.880  0.00  0.00    -0.346 N 
HETATM   15  C   UNK N   1      31.231   8.306   5.741  0.00  0.00     0.242 C 
HETATM   16  O   UNK N   1      31.079   9.344   6.349  0.00  0.00    -0.271 OA
HETATM   17  C   UNK N   1      30.097   7.394   5.713  0.00  0.00     0.186 C 
HETATM   18  C   UNK N   1      30.232   6.055   5.056  0.00  0.00     0.120 C 
HETATM   19  S   UNK N   1      30.608   4.852   6.345  0.00  0.00    -0.095 SA
HETATM   20  S   UNK N   1      29.314   5.683   7.878  0.00  0.00    -0.095 SA
HETATM   21  C   UNK N   1      27.674   5.615   7.064  0.00  0.00     0.120 C 
HETATM   22  C   UNK N   1      27.451   4.694   5.867  0.00  0.00     0.186 C 
HETATM   23  N   UNK N   1      28.094   3.405   5.997  0.00  0.00    -0.346 N 
HETATM   24  C   UNK N   1      27.483   2.261   5.614  0.00  0.00     0.236 C 
HETATM   25  O   UNK N   1      28.049   1.192   5.780  0.00  0.00    -0.272 OA
HETATM   26  C   UNK N   1      26.117   2.288   4.992  0.00  0.00     0.225 C 
HETATM   27  N   UNK N   1      25.243   3.132   5.776  0.00  0.00    -0.351 N 
HETATM   28  C   UNK N   1      23.984   2.810   6.150  0.00  0.00     0.240 C 
HETATM   29  O   UNK N   1      23.360   3.596   6.850  0.00  0.00    -0.271 OA
HETATM   30  C   UNK N   1      23.366   1.491   5.766  0.00  0.00     0.177 C 
HETATM   31  N   UNK N   1      22.040   1.409   6.328  0.00  0.00    -0.346 N 
HETATM   32  C   UNK N   1      21.718   0.504   7.281  0.00  0.00     0.236 C 
HETATM   33  O   UNK N   1      20.618   0.560   7.804  0.00  0.00    -0.272 OA
HETATM   34  C   UNK N   1      22.694  -0.548   7.730  0.00  0.00     0.225 C 
HETATM   35  N   UNK N   1      21.984  -1.789   7.906  0.00  0.00    -0.350 N 
HETATM   36  C   UNK N   1      22.216  -2.721   8.870  0.00  0.00     0.242 C 
HETATM   37  O   UNK N   1      21.492  -3.703   8.893  0.00  0.00    -0.271 OA
HETATM   38  C   UNK N   1      23.355  -2.656   9.890  0.00  0.00     0.200 C 
HETATM   39  N   UNK N   1      23.982  -1.357  10.035  0.00  0.00    -0.344 N 
HETATM   40  C   UNK N   1      24.995  -1.079  10.915  0.00  0.00     0.241 C 
HETATM   41  O   UNK N   1      25.411  -1.940  11.675  0.00  0.00    -0.271 OA
HETATM   42  C   UNK N   1      25.636   0.290  10.926  0.00  0.00     0.177 C 
HETATM   43  N   UNK N   1      25.108   0.945   9.746  0.00  0.00    -0.346 N 
HETATM   44  C   UNK N   1      25.779   1.589   8.767  0.00  0.00     0.240 C 
HETATM   45  O   UNK N   1      25.510   1.278   7.633  0.00  0.00    -0.271 OA
HETATM   46  C   UNK N   1      26.994   2.440   8.985  0.00  0.00     0.172 C 
HETATM   47  C   UNK N   1      26.916   3.203  10.304  0.00  0.00     0.042 C 
HETATM   48  N   UNK N   1      28.126   1.563   8.867  0.00  0.00    -0.347 N 
HETATM   49  C   UNK N   1      29.406   1.825   9.185  0.00  0.00     0.236 C 
HETATM   50  O   UNK N   1      30.228   0.931   9.076  0.00  0.00    -0.272 OA
HETATM   51  C   UNK N   1      29.855   3.150   9.676  0.00  0.00     0.225 C 
HETATM   52  N   UNK N   1      31.044   3.434   8.936  0.00  0.00    -0.351 N 
HETATM   53  C   UNK N   1      32.036   4.218   9.376  0.00  0.00     0.241 C 
HETATM   54  O   UNK N   1      33.045   4.308   8.696  0.00  0.00    -0.271 OA
HETATM   55  C   UNK N   1      31.917   4.990  10.668  0.00  0.00     0.180 C 
HETATM   56  N   UNK N   1      32.237   6.390  10.428  0.00  0.00    -0.346 N 
HETATM   57  C   UNK N   1      33.485   6.803  10.093  0.00  0.00     0.241 C 
HETATM   58  O   UNK N   1      34.415   6.014  10.120  0.00  0.00    -0.271 OA
HETATM   59  C   UNK N   1      33.746   8.223   9.675  0.00  0.00     0.176 C 
HETATM   60  N   UNK N   1      35.165   8.394   9.455  0.00  0.00    -0.346 N 
HETATM   61  C   UNK N   1      35.903   7.690   8.556  0.00  0.00     0.241 C 
HETATM   62  O   UNK N   1      35.365   7.014   7.689  0.00  0.00    -0.271 OA
HETATM   63  C   UNK N   1      37.386   7.607   8.735  0.00  0.00     0.186 C 
HETATM   64  N   UNK N   1      38.070   8.872   8.575  0.00  0.00    -0.346 N 
HETATM   65  C   UNK N   1      37.911   9.963   9.366  0.00  0.00     0.241 C 
HETATM   66  O   UNK N   1      37.168   9.943  10.331  0.00  0.00    -0.271 OA
HETATM   67  C   UNK N   1      38.595  11.241   9.004  0.00  0.00     0.177 C 
HETATM   68  N   UNK N   1      38.162  11.656   7.686  0.00  0.00    -0.346 N 
HETATM   69  C   UNK N   1      38.424  12.883   7.179  0.00  0.00     0.241 C 
HETATM   70  O   UNK N   1      39.186  13.645   7.758  0.00  0.00    -0.271 OA
HETATM   71  H   UNK N   1      39.336  14.356   5.240  0.00  0.00     0.163 HD
HETATM   72  H   UNK N   1      37.930  10.787   3.271  0.00  0.00     0.163 HD
HETATM   73  H   UNK N   1      35.811   8.534   2.628  0.00  0.00     0.163 HD
HETATM   74  H   UNK N   1      32.466   7.251   4.526  0.00  0.00     0.163 HD
HETATM   75  H   UNK N   1      29.002   3.360   6.374  0.00  0.00     0.163 HD
HETATM   76  H   UNK N   1      25.592   4.007   6.060  0.00  0.00     0.163 HD
HETATM   77  H   UNK N   1      21.347   2.032   6.008  0.00  0.00     0.163 HD
HETATM   78  H   UNK N   1      21.260  -1.981   7.266  0.00  0.00     0.163 HD
HETATM   79  H   UNK N   1      23.656  -0.625   9.464  0.00  0.00     0.163 HD
HETATM   80  H   UNK N   1      24.129   0.916   9.644  0.00  0.00     0.163 HD
HETATM   81  H   UNK N   1      27.944   0.662   8.511  0.00  0.00     0.163 HD
HETATM   82  H   UNK N   1      31.140   3.026   8.045  0.00  0.00     0.163 HD
HETATM   83  H   UNK N   1      31.522   7.061  10.513  0.00  0.00     0.163 HD
HETATM   84  H   UNK N   1      35.632   9.070   9.998  0.00  0.00     0.163 HD
HETATM   85  H   UNK N   1      38.707   8.948   7.827  0.00  0.00     0.163 HD
HETATM   86  H   UNK N   1      37.655  11.018   7.135  0.00  0.00     0.163 HD
ENDROOT
BRANCH  17  87
HETATM   87  N   UNK N   1      28.848   8.111   5.573  0.00  0.00    -0.345 N 
HETATM   88  C   UNK N   1      28.478   8.871   4.504  0.00  0.00     0.243 C 
HETATM   89  O   UNK N   1      27.708   9.794   4.705  0.00  0.00    -0.271 OA
HETATM   90  H   UNK N   1      28.206   8.042   6.316  0.00  0.00     0.163 HD
BRANCH  88  91
HETATM   91  C   UNK N   1      29.069   8.740   3.118  0.00  0.00     0.200 C 
BRANCH  91  92
HETATM   92  C   UNK N   1      29.808   7.443   2.798  0.00  0.00     0.199 C 
BRANCH  92  93
HETATM   93  O   UNK N   1      29.202   6.776   1.733  0.00  0.00    -0.398 OA
HETATM   94  H   UNK N   1      29.245   5.821   1.571  0.00  0.00     0.209 HD
ENDBRANCH  92  93
ENDBRANCH  91  92
BRANCH  91  95
HETATM   95  N   UNK N   1      28.059   8.886   2.106  0.00  0.00    -0.344 N 
HETATM   96  C   UNK N   1      28.329   9.536   0.960  0.00  0.00     0.243 C 
HETATM   97  O   UNK N   1      27.555   9.442   0.023  0.00  0.00    -0.271 OA
HETATM   98  H   UNK N   1      27.163   8.507   2.252  0.00  0.00     0.163 HD
BRANCH  96  99
HETATM   99  C   UNK N   1      29.595  10.338   0.847  0.00  0.00     0.200 C 
BRANCH  99 100
HETATM  100  C   UNK N   1      29.750  11.691   1.524  0.00  0.00     0.199 C 
BRANCH 100 101
HETATM  101  O   UNK N   1      28.720  11.897   2.438  0.00  0.00    -0.398 OA
HETATM  102  H   UNK N   1      28.555  11.620   3.353  0.00  0.00     0.209 HD
ENDBRANCH 100 101
ENDBRANCH  99 100
BRANCH  99 103
HETATM  103  N   UNK N   1      30.817   9.602   0.578  0.00  0.00    -0.344 N 
HETATM  104  C   UNK N   1      31.508   9.565  -0.594  0.00  0.00     0.241 C 
HETATM  105  O   UNK N   1      32.480   8.836  -0.685  0.00  0.00    -0.271 OA
HETATM  106  H   UNK N   1      31.185   9.073   1.322  0.00  0.00     0.163 HD
BRANCH 104 107
HETATM  107  C   UNK N   1      31.086  10.340  -1.805  0.00  0.00     0.176 C 
BRANCH 107 108
HETATM  108  C   UNK N   1      31.277  11.824  -1.547  0.00  0.00     0.036 C 
BRANCH 108 109
HETATM  109  C   UNK N   1      32.739  12.104  -1.318  0.00  0.00     0.023 C 
BRANCH 109 110
HETATM  110  C   UNK N   1      33.442  12.595  -2.570  0.00  0.00     0.138 C 
BRANCH 110 111
HETATM  111  N   UNK N   1      34.113  13.855  -2.370  0.00  0.00    -0.227 N 
HETATM  112  C   UNK N   1      35.418  13.961  -1.830  0.00  0.00     0.665 C 
HETATM  113  N   UNK N   1      36.245  12.822  -1.693  0.00  0.00    -0.235 N 
HETATM  114  N   UNK N   1      35.864  15.111  -1.502  0.00  0.00    -0.235 N 
HETATM  115  H   UNK N   1      36.916  12.204  -1.324  0.00  0.00     0.174 HD
HETATM  116  H   UNK N   1      35.969  12.315  -2.491  0.00  0.00     0.174 HD
HETATM  117  H   UNK N   1      36.130  15.769  -2.186  0.00  0.00     0.174 HD
ATOM    118  HN  UNK N   1      35.947  15.353  -0.516  1.00  0.00     0.174 HD
HETATM  119  H   UNK N   1      33.642  14.682  -2.621  0.00  0.00     0.177 HD
ENDBRANCH 110 111
ENDBRANCH 109 110
ENDBRANCH 108 109
ENDBRANCH 107 108
BRANCH 107 120
HETATM  120  N   UNK N   1      29.735   9.973  -2.205  0.00  0.00    -0.346 N 
HETATM  121  C   UNK N   1      29.514   9.059  -3.187  0.00  0.00     0.241 C 
HETATM  122  O   UNK N   1      28.376   8.690  -3.434  0.00  0.00    -0.271 OA
HETATM  123  H   UNK N   1      28.967  10.395  -1.756  0.00  0.00     0.163 HD
BRANCH 121 124
HETATM  124  C   UNK N   1      30.673   8.610  -4.025  0.00  0.00     0.176 C 
BRANCH 124 125
HETATM  125  C   UNK N   1      31.714   9.650  -4.388  0.00  0.00     0.036 C 
BRANCH 125 126
HETATM  126  C   UNK N   1      32.834   8.952  -5.140  0.00  0.00     0.023 C 
BRANCH 126 127
HETATM  127  C   UNK N   1      34.192   9.380  -4.619  0.00  0.00     0.138 C 
BRANCH 127 128
HETATM  128  N   UNK N   1      34.266   9.130  -3.203  0.00  0.00    -0.227 N 
HETATM  129  C   UNK N   1      35.468   9.333  -2.478  0.00  0.00     0.665 C 
HETATM  130  N   UNK N   1      35.499   9.085  -1.090  0.00  0.00    -0.235 N 
HETATM  131  N   UNK N   1      36.539   9.701  -3.081  0.00  0.00    -0.235 N 
HETATM  132  H   UNK N   1      35.859   9.657  -0.373  0.00  0.00     0.174 HD
HETATM  133  H   UNK N   1      35.111   8.229  -0.800  0.00  0.00     0.174 HD
HETATM  134  H   UNK N   1      36.814   9.859  -4.014  0.00  0.00     0.174 HD
ATOM    135  HN  UNK N   1      37.303   9.875  -2.426  1.00  0.00     0.174 HD
HETATM  136  H   UNK N   1      33.465   8.813  -2.728  0.00  0.00     0.177 HD
ENDBRANCH 127 128
ENDBRANCH 126 127
ENDBRANCH 125 126
ENDBRANCH 124 125
BRANCH 124 137
HETATM  137  N   UNK N   1      31.199   7.472  -3.321  0.00  0.00    -0.346 N 
HETATM  138  C   UNK N   1      30.988   6.204  -3.756  0.00  0.00     0.241 C 
HETATM  139  O   UNK N   1      30.039   5.938  -4.481  0.00  0.00    -0.271 OA
HETATM  140  H   UNK N   1      31.726   7.615  -2.502  0.00  0.00     0.163 HD
BRANCH 138 141
HETATM  141  C   UNK N   1      32.092   5.220  -3.625  0.00  0.00     0.177 C 
BRANCH 141 142
HETATM  142  C   UNK N   1      32.070   4.438  -4.937  0.00  0.00     0.038 C 
BRANCH 142 143
HETATM  143  C   UNK N   1      32.087   2.935  -4.787  0.00  0.00    -0.020 C 
HETATM  144  C   UNK N   1      31.438   2.537  -3.477  0.00  0.00     0.009 C 
HETATM  145  C   UNK N   1      33.528   2.462  -4.796  0.00  0.00     0.009 C 
ENDBRANCH 142 143
ENDBRANCH 141 142
BRANCH 141 146
HETATM  146  N   UNK N   1      33.423   5.750  -3.366  0.00  0.00    -0.346 N 
HETATM  147  C   UNK N   1      34.265   5.602  -2.301  0.00  0.00     0.243 C 
HETATM  148  O   UNK N   1      35.345   6.169  -2.350  0.00  0.00    -0.271 OA
HETATM  149  H   UNK N   1      33.780   6.318  -4.086  0.00  0.00     0.163 HD
BRANCH 147 150
HETATM  150  C   UNK N   1      33.939   4.771  -1.061  0.00  0.00     0.200 C 
BRANCH 150 151
HETATM  151  C   UNK N   1      34.632   5.315   0.188  0.00  0.00     0.199 C 
BRANCH 151 152
HETATM  152  O   UNK N   1      34.387   6.680   0.340  0.00  0.00    -0.398 OA
HETATM  153  H   UNK N   1      33.687   7.157  -0.134  0.00  0.00     0.209 HD
ENDBRANCH 151 152
ENDBRANCH 150 151
BRANCH 150 154
HETATM  154  N   UNK N   1      34.161   3.333  -1.148  0.00  0.00    -0.344 N 
HETATM  155  C   UNK N   1      33.635   2.346  -0.378  0.00  0.00     0.241 C 
HETATM  156  O   UNK N   1      33.988   1.194  -0.580  0.00  0.00    -0.271 OA
HETATM  157  H   UNK N   1      34.774   3.037  -1.859  0.00  0.00     0.163 HD
BRANCH 155 158
HETATM  158  C   UNK N   1      32.615   2.619   0.683  0.00  0.00     0.176 C 
BRANCH 158 159
HETATM  159  C   UNK N   1      32.830   1.701   1.883  0.00  0.00     0.036 C 
BRANCH 159 160
HETATM  160  C   UNK N   1      33.736   2.394   2.888  0.00  0.00     0.023 C 
BRANCH 160 161
HETATM  161  C   UNK N   1      32.932   3.057   3.992  0.00  0.00     0.138 C 
BRANCH 161 162
HETATM  162  N   UNK N   1      33.216   2.441   5.264  0.00  0.00    -0.227 N 
HETATM  163  C   UNK N   1      32.303   1.536   5.867  0.00  0.00     0.665 C 
HETATM  164  N   UNK N   1      31.032   1.308   5.293  0.00  0.00    -0.235 N 
HETATM  165  N   UNK N   1      32.623   0.938   6.954  0.00  0.00    -0.235 N 
HETATM  166  H   UNK N   1      30.397   0.621   5.597  0.00  0.00     0.174 HD
HETATM  167  H   UNK N   1      30.764   1.877   4.536  0.00  0.00     0.174 HD
HETATM  168  H   UNK N   1      33.214   1.375   7.609  0.00  0.00     0.174 HD
ATOM    169  HN  UNK N   1      32.261   0.003   7.143  1.00  0.00     0.174 HD
HETATM  170  H   UNK N   1      34.060   2.653   5.724  0.00  0.00     0.177 HD
ENDBRANCH 161 162
ENDBRANCH 160 161
ENDBRANCH 159 160
ENDBRANCH 158 159
BRANCH 158 171
HETATM  171  N   UNK N   1      31.333   2.339   0.125  0.00  0.00    -0.346 N 
HETATM  172  C   UNK N   1      30.192   3.017   0.376  0.00  0.00     0.241 C 
HETATM  173  O   UNK N   1      30.176   3.976   1.135  0.00  0.00    -0.271 OA
HETATM  174  H   UNK N   1      31.274   1.581  -0.501  0.00  0.00     0.163 HD
BRANCH 172 175
HETATM  175  C   UNK N   1      28.927   2.462  -0.209  0.00  0.00     0.179 C 
HETATM  176  C   UNK N   1      28.794   1.006   0.199  0.00  0.00     0.037 C 
HETATM  177  C   UNK N   1      28.027   1.007   1.522  0.00  0.00     0.022 C 
HETATM  178  C   UNK N   1      27.331   2.360   1.610  0.00  0.00     0.127 C 
HETATM  179  N   UNK N   1      27.864   3.121   0.519  0.00  0.00    -0.337 N 
HETATM  180  C   UNK N   1      27.444   4.384   0.219  0.00  0.00     0.243 C 
HETATM  181  O   UNK N   1      26.665   4.966   0.970  0.00  0.00    -0.271 OA
BRANCH 180 182
HETATM  182  C   UNK N   1      27.775   4.966  -1.135  0.00  0.00     0.172 C 
HETATM  183  C   UNK N   1      28.688   6.186  -1.083  0.00  0.00     0.042 C 
BRANCH 182 184
HETATM  184  N   UNK N   1      26.470   5.287  -1.689  0.00  0.00    -0.346 N 
HETATM  185  C   UNK N   1      26.229   5.245  -3.032  0.00  0.00     0.243 C 
HETATM  186  O   UNK N   1      26.956   4.596  -3.773  0.00  0.00    -0.271 OA
HETATM  187  H   UNK N   1      25.740   5.540  -1.080  0.00  0.00     0.163 HD
BRANCH 185 188
HETATM  188  C   UNK N   1      25.253   6.214  -3.644  0.00  0.00     0.196 C 
BRANCH 188 189
HETATM  189  N   UNK N   1      25.926   7.182  -4.499  0.00  0.00    -0.417 N 
HETATM  190  H   UNK N   1      25.672   7.777  -5.287  0.00  0.00     0.150 HD
HETATM  191  H   UNK N   1      26.907   7.295  -4.241  0.00  0.00     0.150 HD
ENDBRANCH 188 189
BRANCH 188 192
HETATM  192  C   UNK N   1      24.307   6.905  -2.672  0.00  0.00     0.145 C 
HETATM  193  C   UNK N   1      24.508   8.406  -2.786  0.00  0.00     0.042 C 
BRANCH 192 194
HETATM  194  O   UNK N   1      22.981   6.616  -2.994  0.00  0.00    -0.393 OA
HETATM  195  H   UNK N   1      22.423   5.822  -3.009  0.00  0.00     0.210 HD
ENDBRANCH 192 194
ENDBRANCH 188 192
ENDBRANCH 185 188
ENDBRANCH 182 184
ENDBRANCH 180 182
ENDBRANCH 172 175
ENDBRANCH 158 171
ENDBRANCH 155 158
ENDBRANCH 150 154
ENDBRANCH 147 150
ENDBRANCH 141 146
ENDBRANCH 138 141
ENDBRANCH 124 137
ENDBRANCH 121 124
ENDBRANCH 107 120
ENDBRANCH 104 107
ENDBRANCH  99 103
ENDBRANCH  96  99
ENDBRANCH  91  95
ENDBRANCH  88  91
ENDBRANCH  17  87
BRANCH  13 196
HETATM  196  C   UNK N   1      32.063  10.283   3.933  0.00  0.00     0.073 C 
BRANCH 196 197
HETATM  197  C   UNK N   1      32.409  11.696   3.730  0.00  0.00    -0.056 A 
HETATM  198  C   UNK N   1      32.964  12.090   2.516  0.00  0.00     0.007 A 
HETATM  199  C   UNK N   1      33.048  13.443   2.206  0.00  0.00     0.001 A 
HETATM  200  C   UNK N   1      32.578  14.405   3.108  0.00  0.00     0.000 A 
HETATM  201  C   UNK N   1      32.017  14.009   4.324  0.00  0.00     0.001 A 
HETATM  202  C   UNK N   1      31.908  12.652   4.623  0.00  0.00     0.007 A 
ENDBRANCH 196 197
ENDBRANCH  13 196
BRANCH  22 203
HETATM  203  C   UNK N   1      27.498   5.288   4.471  0.00  0.00     0.242 C 
HETATM  204  O   UNK N   1      28.440   5.026   3.740  0.00  0.00    -0.271 OA
HETATM  205  N   UNK N   1      26.494   6.076   3.993  0.00  0.00    -0.346 N 
HETATM  206  H   UNK N   1      26.592   6.459   3.091  0.00  0.00     0.163 HD
BRANCH 205 207
HETATM  207  C   UNK N   1      25.288   6.383   4.740  0.00  0.00     0.185 C 
BRANCH 207 208
HETATM  208  C   UNK N   1      25.265   7.691   5.538  0.00  0.00     0.137 C 
BRANCH 208 209
HETATM  209  C   UNK N   1      24.276   7.866   6.648  0.00  0.00     0.217 C 
HETATM  210  N   UNK N   1      23.731   6.767   7.203  0.00  0.00    -0.370 N 
HETATM  211  H   UNK N   1      22.898   6.294   6.974  0.00  0.00     0.159 HD
HETATM  212  H   UNK N   1      24.241   6.378   7.949  0.00  0.00     0.159 HD
HETATM  213  O   UNK N   1      23.978   8.971   7.071  0.00  0.00    -0.274 OA
ENDBRANCH 208 209
ENDBRANCH 207 208
BRANCH 207 214
HETATM  214  C   UNK N   1      24.039   6.278   3.928  0.00  0.00     0.241 C 
HETATM  215  O   UNK N   1      23.259   5.376   4.181  0.00  0.00    -0.271 OA
HETATM  216  N   UNK N   1      23.745   7.140   2.922  0.00  0.00    -0.344 N 
HETATM  217  H   UNK N   1      22.896   6.994   2.447  0.00  0.00     0.163 HD
BRANCH 216 218
HETATM  218  C   UNK N   1      24.560   8.255   2.479  0.00  0.00     0.200 C 
BRANCH 218 219
HETATM  219  C   UNK N   1      24.589   8.237   0.969  0.00  0.00     0.199 C 
BRANCH 219 220
HETATM  220  O   UNK N   1      25.641   7.429   0.526  0.00  0.00    -0.398 OA
HETATM  221  H   UNK N   1      26.452   7.535   0.006  0.00  0.00     0.209 HD
ENDBRANCH 219 220
ENDBRANCH 218 219
BRANCH 218 222
HETATM  222  C   UNK N   1      23.974   9.564   2.904  0.00  0.00     0.243 C 
HETATM  223  O   UNK N   1      24.687  10.555   2.950  0.00  0.00    -0.271 OA
HETATM  224  N   UNK N   1      22.666   9.642   3.269  0.00  0.00    -0.346 N 
HETATM  225  H   UNK N   1      22.092   8.844   3.219  0.00  0.00     0.163 HD
BRANCH 224 226
HETATM  226  C   UNK N   1      22.115  10.897   3.729  0.00  0.00     0.180 C 
BRANCH 226 227
HETATM  227  C   UNK N   1      20.955  11.415   2.862  0.00  0.00     0.073 C 
BRANCH 227 228
HETATM  228  C   UNK N   1      21.101  12.859   2.414  0.00  0.00    -0.056 A 
HETATM  229  C   UNK N   1      22.372  13.364   2.124  0.00  0.00     0.007 A 
HETATM  230  C   UNK N   1      22.523  14.691   1.701  0.00  0.00     0.001 A 
HETATM  231  C   UNK N   1      21.405  15.520   1.559  0.00  0.00     0.000 A 
HETATM  232  C   UNK N   1      20.135  15.026   1.842  0.00  0.00     0.001 A 
HETATM  233  C   UNK N   1      19.988  13.708   2.267  0.00  0.00     0.007 A 
ENDBRANCH 227 228
ENDBRANCH 226 227
BRANCH 226 234
HETATM  234  C   UNK N   1      21.816  10.872   5.210  0.00  0.00     0.241 C 
HETATM  235  O   UNK N   1      21.014  10.050   5.622  0.00  0.00    -0.271 OA
HETATM  236  N   UNK N   1      22.427  11.683   6.100  0.00  0.00    -0.346 N 
HETATM  237  H   UNK N   1      22.266  11.513   7.056  0.00  0.00     0.163 HD
BRANCH 236 238
HETATM  238  C   UNK N   1      23.299  12.780   5.757  0.00  0.00     0.176 C 
BRANCH 238 239
HETATM  239  C   UNK N   1      24.609  12.720   6.569  0.00  0.00     0.036 C 
BRANCH 239 240
HETATM  240  C   UNK N   1      25.782  13.547   6.064  0.00  0.00     0.023 C 
BRANCH 240 241
HETATM  241  C   UNK N   1      26.473  12.906   4.862  0.00  0.00     0.138 C 
BRANCH 241 242
HETATM  242  N   UNK N   1      25.983  13.456   3.622  0.00  0.00    -0.227 N 
HETATM  243  C   UNK N   1      26.704  14.438   2.902  0.00  0.00     0.665 C 
HETATM  244  N   UNK N   1      27.997  14.833   3.320  0.00  0.00    -0.235 N 
HETATM  245  N   UNK N   1      26.199  14.943   1.840  0.00  0.00    -0.235 N 
HETATM  246  H   UNK N   1      28.618  15.316   2.729  0.00  0.00     0.174 HD
HETATM  247  H   UNK N   1      28.285  14.616   4.235  0.00  0.00     0.174 HD
HETATM  248  H   UNK N   1      25.326  14.648   1.492  0.00  0.00     0.174 HD
ATOM    249  HN  UNK N   1      26.713  15.670   1.341  1.00  0.00     0.174 HD
HETATM  250  H   UNK N   1      25.121  13.140   3.267  0.00  0.00     0.177 HD
ENDBRANCH 241 242
ENDBRANCH 240 241
ENDBRANCH 239 240
ENDBRANCH 238 239
BRANCH 238 251
HETATM  251  C   UNK N   1      22.530  13.994   6.187  0.00  0.00     0.241 C 
HETATM  252  O   UNK N   1      22.843  14.565   7.218  0.00  0.00    -0.271 OA
HETATM  253  N   UNK N   1      21.635  14.554   5.345  0.00  0.00    -0.345 N 
HETATM  254  H   UNK N   1      21.224  13.999   4.643  0.00  0.00     0.163 HD
BRANCH 253 255
HETATM  255  C   UNK N   1      21.267  15.938   5.446  0.00  0.00     0.186 C 
BRANCH 255 256
HETATM  256  C   UNK N   1      22.479  16.833   5.261  0.00  0.00     0.074 C 
BRANCH 256 257
HETATM  257  C   UNK N   1      22.140  18.001   4.383  0.00  0.00    -0.056 A 
HETATM  258  C   UNK N   1      20.807  18.245   4.040  0.00  0.00     0.010 A 
HETATM  259  C   UNK N   1      20.476  19.359   3.260  0.00  0.00     0.037 A 
HETATM  260  C   UNK N   1      21.477  20.226   2.814  0.00  0.00     0.065 A 
HETATM  261  C   UNK N   1      22.811  19.983   3.144  0.00  0.00     0.037 A 
HETATM  262  C   UNK N   1      23.141  18.878   3.934  0.00  0.00     0.010 A 
BRANCH 260 263
HETATM  263  O   UNK N   1      21.155  21.296   2.071  0.00  0.00    -0.361 OA
HETATM  264  H   UNK N   1      20.370  21.402   1.571  0.00  0.00     0.217 HD
ENDBRANCH 260 263
ENDBRANCH 256 257
ENDBRANCH 255 256
BRANCH 255 265
HETATM  265  C   UNK N   1      20.543  16.146   6.746  0.00  0.00     0.163 C 
HETATM  266  O   UNK N   1      19.499  15.559   6.965  0.00  0.00    -0.648 OA
BRANCH 265 267
HETATM  267  O   UNK N   1      21.069  16.947   7.698  0.00  0.00    -0.775 OA
HETATM  268  H   UNK N   1      21.296  17.837   7.512  0.00  0.00     0.167 HD
ENDBRANCH 265 267
ENDBRANCH 255 265
ENDBRANCH 253 255
ENDBRANCH 238 251
ENDBRANCH 236 238
ENDBRANCH 226 234
ENDBRANCH 224 226
ENDBRANCH 218 222
ENDBRANCH 216 218
ENDBRANCH 207 214
ENDBRANCH 205 207
ENDBRANCH  22 203
BRANCH  30 269
HETATM  269  C   UNK N   1      23.400   1.339   4.243  0.00  0.00     0.038 C 
BRANCH 269 270
HETATM  270  C   UNK N   1      22.131   0.885   3.557  0.00  0.00    -0.020 C 
HETATM  271  C   UNK N   1      21.996   1.644   2.254  0.00  0.00     0.009 C 
HETATM  272  C   UNK N   1      22.186  -0.598   3.271  0.00  0.00     0.009 C 
ENDBRANCH 269 270
ENDBRANCH  30 269
BRANCH   1 273
HETATM  273  C   UNK N   1      36.822  14.545   6.500  0.00  0.00     0.036 C 
BRANCH 273 274
HETATM  274  C   UNK N   1      35.408  14.543   5.971  0.00  0.00     0.023 C 
BRANCH 274 275
HETATM  275  C   UNK N   1      34.449  14.613   7.133  0.00  0.00     0.138 C 
BRANCH 275 276
HETATM  276  N   UNK N   1      34.865  15.682   7.991  0.00  0.00    -0.227 N 
HETATM  277  C   UNK N   1      34.089  16.140   9.079  0.00  0.00     0.665 C 
HETATM  278  N   UNK N   1      32.993  15.554   9.389  0.00  0.00    -0.235 N 
HETATM  279  N   UNK N   1      34.601  17.153   9.915  0.00  0.00    -0.235 N 
HETATM  280  H   UNK N   1      32.153  16.058   9.487  0.00  0.00     0.174 HD
ATOM    281  HN  UNK N   1      32.991  14.545   9.537  1.00  0.00     0.174 HD
HETATM  282  H   UNK N   1      35.424  17.489  10.339  0.00  0.00     0.174 HD
HETATM  283  H   UNK N   1      33.858  17.746  10.174  0.00  0.00     0.174 HD
HETATM  284  H   UNK N   1      35.730  16.117   7.814  0.00  0.00     0.177 HD
ENDBRANCH 275 276
ENDBRANCH 274 275
ENDBRANCH 273 274
ENDBRANCH   1 273
BRANCH  67 285
HETATM  285  C   UNK N   1      40.121  11.296   9.180  0.00  0.00     0.045 C 
BRANCH 285 286
HETATM  286  C   UNK N   1      40.957  10.645   8.087  0.00  0.00     0.076 C 
BRANCH 286 287
HETATM  287  S   UNK N   1      42.542  11.518   7.876  0.00  0.00    -0.173 SA
HETATM  288  C   UNK N   1      43.521  10.041   8.270  0.00  0.00     0.089 C 
ENDBRANCH 286 287
ENDBRANCH 285 286
ENDBRANCH  67 285
BRANCH  38 289
HETATM  289  C   UNK N   1      22.897  -3.203  11.234  0.00  0.00     0.199 C 
BRANCH 289 290
HETATM  290  O   UNK N   1      21.736  -2.531  11.619  0.00  0.00    -0.398 OA
HETATM  291  H   UNK N   1      20.907  -2.876  11.987  0.00  0.00     0.209 HD
ENDBRANCH 289 290
ENDBRANCH  38 289
BRANCH  63 292
HETATM  292  C   UNK N   1      37.874   6.732   9.916  0.00  0.00     0.144 C 
BRANCH 292 293
HETATM  293  C   UNK N   1      39.342   6.615  10.284  0.00  0.00     0.141 C 
HETATM  294  O   UNK N   1      39.878   5.523  10.210  0.00  0.00    -0.650 OA
BRANCH 293 295
HETATM  295  O   UNK N   1      40.069   7.663  10.703  0.00  0.00    -0.776 OA
HETATM  296  H   UNK N   1      40.644   8.130  11.277  0.00  0.00     0.167 HD
ENDBRANCH 293 295
ENDBRANCH 292 293
ENDBRANCH  63 292
BRANCH  42 297
HETATM  297  C   UNK N   1      27.136   0.016  10.830  0.00  0.00     0.044 C 
BRANCH 297 298
HETATM  298  C   UNK N   1      27.852   0.208  12.155  0.00  0.00     0.105 C 
BRANCH 298 299
HETATM  299  C   UNK N   1      28.892  -0.854  12.317  0.00  0.00     0.215 C 
HETATM  300  N   UNK N   1      30.075  -0.741  11.681  0.00  0.00    -0.370 N 
HETATM  301  H   UNK N   1      30.710  -1.470  11.495  0.00  0.00     0.159 HD
HETATM  302  H   UNK N   1      30.328   0.159  11.373  0.00  0.00     0.159 HD
HETATM  303  O   UNK N   1      28.670  -1.833  13.010  0.00  0.00    -0.274 OA
ENDBRANCH 298 299
ENDBRANCH 297 298
ENDBRANCH  42 297
BRANCH  59 304
HETATM  304  C   UNK N   1      32.941   8.663   8.472  0.00  0.00     0.036 C 
BRANCH 304 305
HETATM  305  C   UNK N   1      33.231  10.136   8.239  0.00  0.00     0.023 C 
BRANCH 305 306
HETATM  306  C   UNK N   1      32.857  10.979   9.447  0.00  0.00     0.138 C 
BRANCH 306 307
HETATM  307  N   UNK N   1      33.802  12.037   9.599  0.00  0.00    -0.227 N 
HETATM  308  C   UNK N   1      34.555  12.165  10.782  0.00  0.00     0.665 C 
HETATM  309  N   UNK N   1      34.538  11.143  11.760  0.00  0.00    -0.235 N 
HETATM  310  N   UNK N   1      35.175  13.257  11.007  0.00  0.00    -0.235 N 
HETATM  311  H   UNK N   1      34.733  10.608  12.562  0.00  0.00     0.174 HD
HETATM  312  H   UNK N   1      33.851  10.563  11.357  0.00  0.00     0.174 HD
HETATM  313  H   UNK N   1      35.912  13.618  10.463  0.00  0.00     0.174 HD
ATOM    314  HN  UNK N   1      34.885  13.801  11.819  1.00  0.00     0.174 HD
HETATM  315  H   UNK N   1      33.928  12.686   8.870  0.00  0.00     0.177 HD
ENDBRANCH 306 307
ENDBRANCH 305 306
ENDBRANCH 304 305
ENDBRANCH  59 304
BRANCH  55 316
HETATM  316  C   UNK N   1      32.668   4.355  11.861  0.00  0.00     0.013 C 
HETATM  317  C   UNK N   1      31.696   4.133  13.004  0.00  0.00     0.012 C 
BRANCH 316 318
HETATM  318  C   UNK N   1      33.335   3.018  11.534  0.00  0.00     0.002 C 
HETATM  319  C   UNK N   1      32.580   1.865  12.159  0.00  0.00     0.005 C 
ENDBRANCH 316 318
ENDBRANCH  55 316
TORSDOF 92
ENDMDL
MODEL 6
REMARK VINA RESULT:      -4.6      3.453     12.577
REMARK WARNING: 32 MAX_TORS EXCEEDED!!!
REMARK  92 active torsions:
REMARK  status: ('A' for Active; 'I' for Inactive)
REMARK       I    between atoms: C_3  and  N_4 
REMARK       I    between atoms: C_3  and  N_5 
REMARK    1  A    between atoms: N_5  and  C_6 
REMARK    2  A    between atoms: C_6  and  C_7 
REMARK    3  A    between atoms: C_7  and  C_8 
REMARK    4  A    between atoms: C_9  and  C_8 
REMARK    5  A    between atoms: C_21  and  C_22 
REMARK    6  A    between atoms: C_22  and  C_23 
REMARK    7  A    between atoms: C_32  and  N_169 
REMARK    8  A    between atoms: C_37  and  C_117 
REMARK    9  A    between atoms: C_45  and  C_46 
REMARK   10  A    between atoms: C_46  and  C_47 
REMARK   11  A    between atoms: C_57  and  C_58 
REMARK   12  A    between atoms: C_58  and  O_59 
REMARK   13  A    between atoms: C_63  and  C_64 
REMARK   14  A    between atoms: C_64  and  C_65 
REMARK   15  A    between atoms: C_65  and  C_66 
REMARK       I    between atoms: C_66  and  N_67 
REMARK   16  A    between atoms: C_81  and  C_113 
REMARK   17  A    between atoms: C_85  and  C_86 
REMARK   18  A    between atoms: C_86  and  C_87 
REMARK   19  A    between atoms: C_87  and  C_88 
REMARK   20  A    between atoms: C_88  and  N_89 
REMARK       I    between atoms: N_89  and  C_90 
REMARK       I    between atoms: C_90  and  N_91 
REMARK   21  A    between atoms: C_97  and  C_98 
REMARK   22  A    between atoms: C_98  and  C_99 
REMARK   23  A    between atoms: C_99  and  O_100 
REMARK   24  A    between atoms: C_105  and  C_106 
REMARK   25  A    between atoms: C_106  and  C_107 
REMARK   26  A    between atoms: C_107  and  S_108 
REMARK   27  A    between atoms: C_113  and  C_115 
REMARK       I    between atoms: C_117  and  N_119 
REMARK   28  A    between atoms: C_120  and  N_119 
REMARK   29  A    between atoms: C_120  and  C_121 
REMARK   30  A    between atoms: C_120  and  C_125 
REMARK   31  A    between atoms: C_121  and  C_122 
REMARK       I    between atoms: C_122  and  N_123 
REMARK       I    between atoms: C_125  and  N_127 
REMARK   32  A    between atoms: C_128  and  N_127 
REMARK   33  A    between atoms: C_128  and  C_129 
REMARK   34  A    between atoms: C_128  and  C_131 
REMARK   35  A    between atoms: C_129  and  O_130 
REMARK       I    between atoms: C_131  and  N_133 
REMARK   36  A    between atoms: C_134  and  N_133 
REMARK   37  A    between atoms: C_134  and  C_135 
REMARK   38  A    between atoms: C_134  and  C_142 
REMARK   39  A    between atoms: C_135  and  C_136 
REMARK       I    between atoms: C_142  and  N_144 
REMARK   40  A    between atoms: C_145  and  N_144 
REMARK   41  A    between atoms: C_145  and  C_146 
REMARK   42  A    between atoms: C_145  and  C_154 
REMARK   43  A    between atoms: C_146  and  C_147 
REMARK   44  A    between atoms: C_147  and  C_148 
REMARK   45  A    between atoms: C_148  and  N_149 
REMARK       I    between atoms: N_149  and  C_150 
REMARK       I    between atoms: C_150  and  N_151 
REMARK       I    between atoms: C_154  and  N_156 
REMARK   46  A    between atoms: C_157  and  N_156 
REMARK   47  A    between atoms: C_157  and  C_158 
REMARK   48  A    between atoms: C_157  and  C_166 
REMARK   49  A    between atoms: C_158  and  C_159 
REMARK   50  A    between atoms: C_162  and  O_163 
REMARK   51  A    between atoms: C_166  and  O_167 
REMARK       I    between atoms: N_169  and  C_170 
REMARK   52  A    between atoms: C_170  and  C_172 
REMARK   53  A    between atoms: C_172  and  C_173 
REMARK   54  A    between atoms: C_172  and  N_175 
REMARK   55  A    between atoms: C_173  and  O_174 
REMARK       I    between atoms: N_175  and  C_176 
REMARK   56  A    between atoms: C_176  and  C_178 
REMARK   57  A    between atoms: C_178  and  C_179 
REMARK   58  A    between atoms: C_178  and  N_181 
REMARK   59  A    between atoms: C_179  and  O_180 
REMARK       I    between atoms: N_181  and  C_182 
REMARK   60  A    between atoms: C_182  and  C_184 
REMARK   61  A    between atoms: C_184  and  C_185 
REMARK   62  A    between atoms: C_184  and  N_193 
REMARK   63  A    between atoms: C_185  and  C_186 
REMARK   64  A    between atoms: C_186  and  C_187 
REMARK   65  A    between atoms: C_187  and  N_188 
REMARK       I    between atoms: N_188  and  C_189 
REMARK       I    between atoms: C_189  and  N_190 
REMARK       I    between atoms: N_193  and  C_194 
REMARK   66  A    between atoms: C_194  and  C_196 
REMARK   67  A    between atoms: C_196  and  C_197 
REMARK   68  A    between atoms: C_196  and  N_205 
REMARK   69  A    between atoms: C_197  and  C_198 
REMARK   70  A    between atoms: C_198  and  C_199 
REMARK   71  A    between atoms: C_199  and  N_200 
REMARK       I    between atoms: N_200  and  C_201 
REMARK       I    between atoms: C_201  and  N_202 
REMARK       I    between atoms: N_205  and  C_206 
REMARK   72  A    between atoms: C_206  and  C_208 
REMARK   73  A    between atoms: C_208  and  C_209 
REMARK   74  A    between atoms: C_208  and  N_213 
REMARK   75  A    between atoms: C_209  and  C_210 
REMARK       I    between atoms: N_213  and  C_214 
REMARK   76  A    between atoms: C_214  and  C_216 
REMARK   77  A    between atoms: C_216  and  C_217 
REMARK   78  A    between atoms: C_216  and  N_219 
REMARK   79  A    between atoms: C_217  and  O_218 
REMARK       I    between atoms: N_219  and  C_220 
REMARK   80  A    between atoms: C_220  and  C_222 
REMARK   81  A    between atoms: C_222  and  C_223 
REMARK   82  A    between atoms: C_222  and  N_231 
REMARK   83  A    between atoms: C_223  and  C_224 
REMARK   84  A    between atoms: C_224  and  C_225 
REMARK   85  A    between atoms: C_225  and  N_226 
REMARK       I    between atoms: N_226  and  C_227 
REMARK       I    between atoms: C_227  and  N_228 
REMARK       I    between atoms: N_231  and  C_232 
REMARK   86  A    between atoms: C_234  and  C_232 
REMARK       I    between atoms: N_238  and  C_239 
REMARK   87  A    between atoms: C_239  and  C_241 
REMARK   88  A    between atoms: C_241  and  N_243 
REMARK       I    between atoms: N_243  and  C_244 
REMARK   89  A    between atoms: C_244  and  C_246 
REMARK   90  A    between atoms: C_246  and  N_247 
REMARK   91  A    between atoms: C_246  and  C_248 
REMARK   92  A    between atoms: C_248  and  O_250 
ROOT
HETATM    1  C   UNK N   1      36.060  13.495   6.706  0.00  0.00     0.176 C 
HETATM    2  N   UNK N   1      37.471  13.800   6.785  0.00  0.00    -0.346 N 
HETATM    3  C   UNK N   1      38.394  13.419   5.864  0.00  0.00     0.236 C 
HETATM    4  O   UNK N   1      39.559  13.737   6.030  0.00  0.00    -0.272 OA
HETATM    5  C   UNK N   1      38.026  12.712   4.596  0.00  0.00     0.225 C 
HETATM    6  N   UNK N   1      37.528  11.378   4.806  0.00  0.00    -0.351 N 
HETATM    7  C   UNK N   1      36.275  11.041   4.420  0.00  0.00     0.235 C 
HETATM    8  O   UNK N   1      35.516  11.885   3.973  0.00  0.00    -0.272 OA
HETATM    9  C   UNK N   1      35.837   9.621   4.474  0.00  0.00     0.225 C 
HETATM   10  N   UNK N   1      36.200   8.985   3.233  0.00  0.00    -0.351 N 
HETATM   11  C   UNK N   1      35.389   8.969   2.149  0.00  0.00     0.241 C 
HETATM   12  O   UNK N   1      35.779   8.424   1.127  0.00  0.00    -0.271 OA
HETATM   13  C   UNK N   1      34.013   9.580   2.173  0.00  0.00     0.180 C 
HETATM   14  N   UNK N   1      33.088   8.541   1.792  0.00  0.00    -0.346 N 
HETATM   15  C   UNK N   1      31.794   8.826   1.518  0.00  0.00     0.242 C 
HETATM   16  O   UNK N   1      31.327   9.914   1.778  0.00  0.00    -0.271 OA
HETATM   17  C   UNK N   1      31.027   7.985   0.612  0.00  0.00     0.186 C 
HETATM   18  C   UNK N   1      31.492   6.595   0.309  0.00  0.00     0.120 C 
HETATM   19  S   UNK N   1      30.604   5.472   1.404  0.00  0.00    -0.095 SA
HETATM   20  S   UNK N   1      28.689   6.493   1.343  0.00  0.00    -0.095 SA
HETATM   21  C   UNK N   1      28.302   6.464  -0.447  0.00  0.00     0.120 C 
HETATM   22  C   UNK N   1      29.008   5.470  -1.367  0.00  0.00     0.186 C 
HETATM   23  N   UNK N   1      29.181   4.158  -0.783  0.00  0.00    -0.346 N 
HETATM   24  C   UNK N   1      28.991   3.027  -1.500  0.00  0.00     0.236 C 
HETATM   25  O   UNK N   1      29.108   1.942  -0.954  0.00  0.00    -0.272 OA
HETATM   26  C   UNK N   1      28.633   3.090  -2.957  0.00  0.00     0.225 C 
HETATM   27  N   UNK N   1      27.563   4.041  -3.154  0.00  0.00    -0.351 N 
HETATM   28  C   UNK N   1      26.461   3.826  -3.908  0.00  0.00     0.240 C 
HETATM   29  O   UNK N   1      25.605   4.698  -3.962  0.00  0.00    -0.271 OA
HETATM   30  C   UNK N   1      26.251   2.522  -4.631  0.00  0.00     0.177 C 
HETATM   31  N   UNK N   1      24.984   2.562  -5.321  0.00  0.00    -0.346 N 
HETATM   32  C   UNK N   1      23.955   1.753  -4.981  0.00  0.00     0.236 C 
HETATM   33  O   UNK N   1      22.872   1.915  -5.518  0.00  0.00    -0.272 OA
HETATM   34  C   UNK N   1      24.106   0.681  -3.938  0.00  0.00     0.225 C 
HETATM   35  N   UNK N   1      23.410  -0.498  -4.386  0.00  0.00    -0.350 N 
HETATM   36  C   UNK N   1      22.711  -1.367  -3.605  0.00  0.00     0.242 C 
HETATM   37  O   UNK N   1      22.151  -2.299  -4.159  0.00  0.00    -0.271 OA
HETATM   38  C   UNK N   1      22.627  -1.294  -2.079  0.00  0.00     0.200 C 
HETATM   39  N   UNK N   1      23.027  -0.028  -1.497  0.00  0.00    -0.344 N 
HETATM   40  C   UNK N   1      22.995   0.254  -0.157  0.00  0.00     0.241 C 
HETATM   41  O   UNK N   1      22.577  -0.572   0.641  0.00  0.00    -0.271 OA
HETATM   42  C   UNK N   1      23.515   1.578   0.353  0.00  0.00     0.177 C 
HETATM   43  N   UNK N   1      24.172   2.173  -0.794  0.00  0.00    -0.346 N 
HETATM   44  C   UNK N   1      25.412   2.699  -0.876  0.00  0.00     0.240 C 
HETATM   45  O   UNK N   1      26.101   2.320  -1.791  0.00  0.00    -0.271 OA
HETATM   46  C   UNK N   1      26.076   3.489   0.212  0.00  0.00     0.172 C 
HETATM   47  C   UNK N   1      25.074   4.352   0.971  0.00  0.00     0.042 C 
HETATM   48  N   UNK N   1      26.784   2.538   1.025  0.00  0.00    -0.347 N 
HETATM   49  C   UNK N   1      27.353   2.746   2.225  0.00  0.00     0.236 C 
HETATM   50  O   UNK N   1      27.860   1.798   2.801  0.00  0.00    -0.272 OA
HETATM   51  C   UNK N   1      27.376   4.075   2.883  0.00  0.00     0.225 C 
HETATM   52  N   UNK N   1      28.716   4.230   3.355  0.00  0.00    -0.351 N 
HETATM   53  C   UNK N   1      29.063   4.983   4.405  0.00  0.00     0.241 C 
HETATM   54  O   UNK N   1      30.226   4.960   4.774  0.00  0.00    -0.271 OA
HETATM   55  C   UNK N   1      28.056   5.856   5.116  0.00  0.00     0.180 C 
HETATM   56  N   UNK N   1      28.576   7.212   5.219  0.00  0.00    -0.346 N 
HETATM   57  C   UNK N   1      29.650   7.522   5.988  0.00  0.00     0.241 C 
HETATM   58  O   UNK N   1      30.128   6.682   6.733  0.00  0.00    -0.271 OA
HETATM   59  C   UNK N   1      30.274   8.888   5.934  0.00  0.00     0.176 C 
HETATM   60  N   UNK N   1      31.340   8.956   6.909  0.00  0.00    -0.346 N 
HETATM   61  C   UNK N   1      32.430   8.142   6.927  0.00  0.00     0.241 C 
HETATM   62  O   UNK N   1      32.708   7.437   5.966  0.00  0.00    -0.271 OA
HETATM   63  C   UNK N   1      33.200   7.984   8.201  0.00  0.00     0.186 C 
HETATM   64  N   UNK N   1      33.870   9.189   8.638  0.00  0.00    -0.346 N 
HETATM   65  C   UNK N   1      33.261  10.345   9.005  0.00  0.00     0.241 C 
HETATM   66  O   UNK N   1      32.046  10.443   9.023  0.00  0.00    -0.271 OA
HETATM   67  C   UNK N   1      34.089  11.548   9.317  0.00  0.00     0.177 C 
HETATM   68  N   UNK N   1      34.889  11.888   8.159  0.00  0.00    -0.346 N 
HETATM   69  C   UNK N   1      35.565  13.055   8.049  0.00  0.00     0.241 C 
HETATM   70  O   UNK N   1      35.658  13.810   9.007  0.00  0.00    -0.271 OA
HETATM   71  H   UNK N   1      37.784  14.320   7.560  0.00  0.00     0.163 HD
HETATM   72  H   UNK N   1      38.104  10.704   5.233  0.00  0.00     0.163 HD
HETATM   73  H   UNK N   1      37.077   8.541   3.172  0.00  0.00     0.163 HD
HETATM   74  H   UNK N   1      33.403   7.610   1.730  0.00  0.00     0.163 HD
HETATM   75  H   UNK N   1      29.444   4.086   0.163  0.00  0.00     0.163 HD
HETATM   76  H   UNK N   1      27.642   4.913  -2.703  0.00  0.00     0.163 HD
HETATM   77  H   UNK N   1      24.865   3.200  -6.062  0.00  0.00     0.163 HD
HETATM   78  H   UNK N   1      23.442  -0.694  -5.351  0.00  0.00     0.163 HD
HETATM   79  H   UNK N   1      23.342   0.676  -2.107  0.00  0.00     0.163 HD
HETATM   80  H   UNK N   1      23.643   2.195  -1.623  0.00  0.00     0.163 HD
HETATM   81  H   UNK N   1      26.862   1.627   0.661  0.00  0.00     0.163 HD
HETATM   82  H   UNK N   1      29.431   3.750   2.876  0.00  0.00     0.163 HD
HETATM   83  H   UNK N   1      28.133   7.930   4.712  0.00  0.00     0.163 HD
HETATM   84  H   UNK N   1      31.271   9.642   7.612  0.00  0.00     0.163 HD
HETATM   85  H   UNK N   1      34.854   9.170   8.672  0.00  0.00     0.163 HD
HETATM   86  H   UNK N   1      34.944  11.241   7.419  0.00  0.00     0.163 HD
ENDROOT
BRANCH  17  87
HETATM   87  N   UNK N   1      30.433   8.764  -0.453  0.00  0.00    -0.345 N 
HETATM   88  C   UNK N   1      29.227   9.396  -0.404  0.00  0.00     0.243 C 
HETATM   89  O   UNK N   1      28.626   9.552  -1.452  0.00  0.00    -0.271 OA
HETATM   90  H   UNK N   1      30.946   8.844  -1.290  0.00  0.00     0.163 HD
BRANCH  88  91
HETATM   91  C   UNK N   1      28.520   9.787   0.875  0.00  0.00     0.200 C 
BRANCH  91  92
HETATM   92  C   UNK N   1      29.085  10.978   1.645  0.00  0.00     0.199 C 
BRANCH  92  93
HETATM   93  O   UNK N   1      29.336  12.049   0.787  0.00  0.00    -0.398 OA
HETATM   94  H   UNK N   1      29.088  12.972   0.953  0.00  0.00     0.209 HD
ENDBRANCH  92  93
ENDBRANCH  91  92
BRANCH  91  95
HETATM   95  N   UNK N   1      27.135  10.087   0.633  0.00  0.00    -0.344 N 
HETATM   96  C   UNK N   1      26.230   9.974   1.621  0.00  0.00     0.243 C 
HETATM   97  O   UNK N   1      25.120  10.458   1.473  0.00  0.00    -0.271 OA
HETATM   98  H   UNK N   1      26.847  10.377  -0.262  0.00  0.00     0.163 HD
BRANCH  96  99
HETATM   99  C   UNK N   1      26.613   9.283   2.899  0.00  0.00     0.200 C 
BRANCH  99 100
HETATM  100  C   UNK N   1      26.932  10.061   4.166  0.00  0.00     0.199 C 
BRANCH 100 101
HETATM  101  O   UNK N   1      26.715  11.423   3.968  0.00  0.00    -0.398 OA
HETATM  102  H   UNK N   1      26.295  12.127   4.485  0.00  0.00     0.209 HD
ENDBRANCH 100 101
ENDBRANCH  99 100
BRANCH  99 103
HETATM  103  N   UNK N   1      26.147   7.919   3.073  0.00  0.00    -0.344 N 
HETATM  104  C   UNK N   1      25.000   7.520   3.689  0.00  0.00     0.241 C 
HETATM  105  O   UNK N   1      24.785   6.328   3.822  0.00  0.00    -0.271 OA
HETATM  106  H   UNK N   1      26.720   7.208   2.707  0.00  0.00     0.163 HD
BRANCH 104 107
HETATM  107  C   UNK N   1      24.016   8.488   4.269  0.00  0.00     0.176 C 
BRANCH 107 108
HETATM  108  C   UNK N   1      24.562   9.046   5.571  0.00  0.00     0.036 C 
BRANCH 108 109
HETATM  109  C   UNK N   1      23.417   9.511   6.431  0.00  0.00     0.023 C 
BRANCH 109 110
HETATM  110  C   UNK N   1      23.551  10.966   6.843  0.00  0.00     0.138 C 
BRANCH 110 111
HETATM  111  N   UNK N   1      24.423  11.710   5.970  0.00  0.00    -0.227 N 
HETATM  112  C   UNK N   1      24.510  13.123   5.983  0.00  0.00     0.665 C 
HETATM  113  N   UNK N   1      23.937  13.881   7.031  0.00  0.00    -0.235 N 
HETATM  114  N   UNK N   1      25.154  13.715   5.053  0.00  0.00    -0.235 N 
HETATM  115  H   UNK N   1      23.485  14.618   7.500  0.00  0.00     0.174 HD
HETATM  116  H   UNK N   1      24.088  13.267   7.785  0.00  0.00     0.174 HD
HETATM  117  H   UNK N   1      26.139  13.688   5.017  0.00  0.00     0.174 HD
ATOM    118  HN  UNK N   1      24.641  14.225   4.335  1.00  0.00     0.174 HD
HETATM  119  H   UNK N   1      24.986  11.212   5.334  0.00  0.00     0.177 HD
ENDBRANCH 110 111
ENDBRANCH 109 110
ENDBRANCH 108 109
ENDBRANCH 107 108
BRANCH 107 120
HETATM  120  N   UNK N   1      22.700   7.875   4.388  0.00  0.00    -0.346 N 
HETATM  121  C   UNK N   1      21.668   8.262   3.592  0.00  0.00     0.241 C 
HETATM  122  O   UNK N   1      20.604   7.663   3.637  0.00  0.00    -0.271 OA
HETATM  123  H   UNK N   1      22.556   7.167   5.056  0.00  0.00     0.163 HD
BRANCH 121 124
HETATM  124  C   UNK N   1      21.827   9.495   2.756  0.00  0.00     0.176 C 
BRANCH 124 125
HETATM  125  C   UNK N   1      21.222   9.477   1.366  0.00  0.00     0.036 C 
BRANCH 125 126
HETATM  126  C   UNK N   1      22.348   9.287   0.365  0.00  0.00     0.023 C 
BRANCH 126 127
HETATM  127  C   UNK N   1      23.018   7.939   0.544  0.00  0.00     0.138 C 
BRANCH 127 128
HETATM  128  N   UNK N   1      23.521   7.477  -0.723  0.00  0.00    -0.227 N 
HETATM  129  C   UNK N   1      22.923   6.386  -1.404  0.00  0.00     0.665 C 
HETATM  130  N   UNK N   1      23.442   5.968  -2.648  0.00  0.00    -0.235 N 
HETATM  131  N   UNK N   1      21.941   5.749  -0.880  0.00  0.00    -0.235 N 
HETATM  132  H   UNK N   1      22.954   5.777  -3.482  0.00  0.00     0.174 HD
HETATM  133  H   UNK N   1      24.418   5.852  -2.687  0.00  0.00     0.174 HD
HETATM  134  H   UNK N   1      21.453   5.771  -0.025  0.00  0.00     0.174 HD
ATOM    135  HN  UNK N   1      21.570   5.038  -1.511  1.00  0.00     0.174 HD
HETATM  136  H   UNK N   1      24.298   7.929  -1.126  0.00  0.00     0.177 HD
ENDBRANCH 127 128
ENDBRANCH 126 127
ENDBRANCH 125 126
ENDBRANCH 124 125
BRANCH 124 137
HETATM  137  N   UNK N   1      21.342  10.558   3.595  0.00  0.00    -0.346 N 
HETATM  138  C   UNK N   1      21.905  11.792   3.580  0.00  0.00     0.241 C 
HETATM  139  O   UNK N   1      23.056  11.954   3.198  0.00  0.00    -0.271 OA
HETATM  140  H   UNK N   1      20.582  10.385   4.196  0.00  0.00     0.163 HD
BRANCH 138 141
HETATM  141  C   UNK N   1      21.016  12.974   3.706  0.00  0.00     0.177 C 
BRANCH 141 142
HETATM  142  C   UNK N   1      19.804  12.639   2.841  0.00  0.00     0.038 C 
BRANCH 142 143
HETATM  143  C   UNK N   1      19.675  13.453   1.574  0.00  0.00    -0.020 C 
HETATM  144  C   UNK N   1      19.201  12.569   0.437  0.00  0.00     0.009 C 
HETATM  145  C   UNK N   1      21.033  14.030   1.226  0.00  0.00     0.009 C 
ENDBRANCH 142 143
ENDBRANCH 141 142
BRANCH 141 146
HETATM  146  N   UNK N   1      20.600  13.350   5.050  0.00  0.00    -0.346 N 
HETATM  147  C   UNK N   1      20.686  14.533   5.726  0.00  0.00     0.243 C 
HETATM  148  O   UNK N   1      20.246  14.566   6.865  0.00  0.00    -0.271 OA
HETATM  149  H   UNK N   1      20.183  12.621   5.563  0.00  0.00     0.163 HD
BRANCH 147 150
HETATM  150  C   UNK N   1      21.290  15.810   5.146  0.00  0.00     0.200 C 
BRANCH 150 151
HETATM  151  C   UNK N   1      20.216  16.759   4.617  0.00  0.00     0.199 C 
BRANCH 151 152
HETATM  152  O   UNK N   1      20.205  16.774   3.222  0.00  0.00    -0.398 OA
HETATM  153  H   UNK N   1      19.424  17.001   2.693  0.00  0.00     0.209 HD
ENDBRANCH 151 152
ENDBRANCH 150 151
BRANCH 150 154
HETATM  154  N   UNK N   1      22.335  15.654   4.142  0.00  0.00    -0.344 N 
HETATM  155  C   UNK N   1      23.498  16.342   4.015  0.00  0.00     0.241 C 
HETATM  156  O   UNK N   1      24.226  16.094   3.065  0.00  0.00    -0.271 OA
HETATM  157  H   UNK N   1      22.177  14.957   3.465  0.00  0.00     0.163 HD
BRANCH 155 158
HETATM  158  C   UNK N   1      23.932  17.368   5.016  0.00  0.00     0.176 C 
BRANCH 158 159
HETATM  159  C   UNK N   1      23.205  18.689   4.780  0.00  0.00     0.036 C 
BRANCH 159 160
HETATM  160  C   UNK N   1      23.837  19.404   3.595  0.00  0.00     0.023 C 
BRANCH 160 161
HETATM  161  C   UNK N   1      22.818  20.250   2.854  0.00  0.00     0.138 C 
BRANCH 161 162
HETATM  162  N   UNK N   1      21.485  19.750   3.079  0.00  0.00    -0.227 N 
HETATM  163  C   UNK N   1      20.452  19.945   2.125  0.00  0.00     0.665 C 
HETATM  164  N   UNK N   1      20.673  20.743   0.980  0.00  0.00    -0.235 N 
HETATM  165  N   UNK N   1      19.302  19.413   2.312  0.00  0.00    -0.235 N 
HETATM  166  H   UNK N   1      20.040  20.834   0.231  0.00  0.00     0.174 HD
HETATM  167  H   UNK N   1      21.519  21.244   0.928  0.00  0.00     0.174 HD
HETATM  168  H   UNK N   1      18.957  19.279   3.225  0.00  0.00     0.174 HD
ATOM    169  HN  UNK N   1      18.739  19.127   1.511  1.00  0.00     0.174 HD
HETATM  170  H   UNK N   1      21.287  19.263   3.911  0.00  0.00     0.177 HD
ENDBRANCH 161 162
ENDBRANCH 160 161
ENDBRANCH 159 160
ENDBRANCH 158 159
BRANCH 158 171
HETATM  171  N   UNK N   1      25.330  17.583   4.828  0.00  0.00    -0.346 N 
HETATM  172  C   UNK N   1      26.324  17.008   5.539  0.00  0.00     0.241 C 
HETATM  173  O   UNK N   1      26.086  16.214   6.439  0.00  0.00    -0.271 OA
HETATM  174  H   UNK N   1      25.594  18.208   4.114  0.00  0.00     0.163 HD
BRANCH 172 175
HETATM  175  C   UNK N   1      27.720  17.486   5.267  0.00  0.00     0.179 C 
HETATM  176  C   UNK N   1      27.813  17.933   3.819  0.00  0.00     0.037 C 
HETATM  177  C   UNK N   1      27.445  19.417   3.812  0.00  0.00     0.022 C 
HETATM  178  C   UNK N   1      27.612  19.906   5.246  0.00  0.00     0.127 C 
HETATM  179  N   UNK N   1      27.840  18.719   6.016  0.00  0.00    -0.337 N 
HETATM  180  C   UNK N   1      28.097  18.740   7.356  0.00  0.00     0.243 C 
HETATM  181  O   UNK N   1      28.017  19.795   7.979  0.00  0.00    -0.271 OA
BRANCH 180 182
HETATM  182  C   UNK N   1      28.682  17.511   8.011  0.00  0.00     0.172 C 
HETATM  183  C   UNK N   1      28.142  17.234   9.410  0.00  0.00     0.042 C 
BRANCH 182 184
HETATM  184  N   UNK N   1      30.109  17.785   8.024  0.00  0.00    -0.346 N 
HETATM  185  C   UNK N   1      31.006  16.960   7.410  0.00  0.00     0.243 C 
HETATM  186  O   UNK N   1      30.640  16.189   6.534  0.00  0.00    -0.271 OA
HETATM  187  H   UNK N   1      30.437  18.590   8.487  0.00  0.00     0.163 HD
BRANCH 185 188
HETATM  188  C   UNK N   1      32.382  16.787   7.997  0.00  0.00     0.196 C 
BRANCH 188 189
HETATM  189  N   UNK N   1      32.320  16.427   9.407  0.00  0.00    -0.417 N 
HETATM  190  H   UNK N   1      32.956  16.035  10.101  0.00  0.00     0.150 HD
HETATM  191  H   UNK N   1      31.399  16.619   9.805  0.00  0.00     0.150 HD
ENDBRANCH 188 189
BRANCH 188 192
HETATM  192  C   UNK N   1      33.350  17.938   7.766  0.00  0.00     0.145 C 
HETATM  193  C   UNK N   1      34.549  17.752   8.680  0.00  0.00     0.042 C 
BRANCH 192 194
HETATM  194  O   UNK N   1      33.802  17.938   6.447  0.00  0.00    -0.393 OA
HETATM  195  H   UNK N   1      33.415  17.753   5.577  0.00  0.00     0.210 HD
ENDBRANCH 192 194
ENDBRANCH 188 192
ENDBRANCH 185 188
ENDBRANCH 182 184
ENDBRANCH 180 182
ENDBRANCH 172 175
ENDBRANCH 158 171
ENDBRANCH 155 158
ENDBRANCH 150 154
ENDBRANCH 147 150
ENDBRANCH 141 146
ENDBRANCH 138 141
ENDBRANCH 124 137
ENDBRANCH 121 124
ENDBRANCH 107 120
ENDBRANCH 104 107
ENDBRANCH  99 103
ENDBRANCH  96  99
ENDBRANCH  91  95
ENDBRANCH  88  91
ENDBRANCH  17  87
BRANCH  13 196
HETATM  196  C   UNK N   1      33.910  10.608   1.047  0.00  0.00     0.073 C 
BRANCH 196 197
HETATM  197  C   UNK N   1      34.865  11.715   0.913  0.00  0.00    -0.056 A 
HETATM  198  C   UNK N   1      34.455  13.006   1.233  0.00  0.00     0.007 A 
HETATM  199  C   UNK N   1      35.404  14.014   1.370  0.00  0.00     0.001 A 
HETATM  200  C   UNK N   1      36.763  13.733   1.188  0.00  0.00     0.000 A 
HETATM  201  C   UNK N   1      37.175  12.437   0.872  0.00  0.00     0.001 A 
HETATM  202  C   UNK N   1      36.226  11.421   0.761  0.00  0.00     0.007 A 
ENDBRANCH 196 197
ENDBRANCH  13 196
BRANCH  22 203
HETATM  203  C   UNK N   1      30.183   5.953  -2.197  0.00  0.00     0.242 C 
HETATM  204  O   UNK N   1      31.317   5.828  -1.760  0.00  0.00    -0.271 OA
HETATM  205  N   UNK N   1      30.012   6.487  -3.439  0.00  0.00    -0.346 N 
HETATM  206  H   UNK N   1      30.808   6.812  -3.919  0.00  0.00     0.163 HD
BRANCH 205 207
HETATM  207  C   UNK N   1      28.722   6.605  -4.093  0.00  0.00     0.185 C 
BRANCH 207 208
HETATM  208  C   UNK N   1      27.943   7.909  -3.887  0.00  0.00     0.137 C 
BRANCH 208 209
HETATM  209  C   UNK N   1      26.469   7.859  -3.628  0.00  0.00     0.217 C 
HETATM  210  N   UNK N   1      25.631   7.839  -4.682  0.00  0.00    -0.370 N 
HETATM  211  H   UNK N   1      25.193   8.586  -5.152  0.00  0.00     0.159 HD
HETATM  212  H   UNK N   1      25.425   6.944  -5.037  0.00  0.00     0.159 HD
HETATM  213  O   UNK N   1      26.019   7.810  -2.495  0.00  0.00    -0.274 OA
ENDBRANCH 208 209
ENDBRANCH 207 208
BRANCH 207 214
HETATM  214  C   UNK N   1      28.756   6.275  -5.548  0.00  0.00     0.241 C 
HETATM  215  O   UNK N   1      27.873   6.718  -6.263  0.00  0.00    -0.271 OA
HETATM  216  N   UNK N   1      29.724   5.502  -6.101  0.00  0.00    -0.344 N 
HETATM  217  H   UNK N   1      29.667   5.344  -7.071  0.00  0.00     0.163 HD
BRANCH 216 218
HETATM  218  C   UNK N   1      30.837   4.885  -5.403  0.00  0.00     0.200 C 
BRANCH 218 219
HETATM  219  C   UNK N   1      30.932   3.448  -5.860  0.00  0.00     0.199 C 
BRANCH 219 220
HETATM  220  O   UNK N   1      32.268   3.035  -5.844  0.00  0.00    -0.398 OA
HETATM  221  H   UNK N   1      32.967   2.909  -5.184  0.00  0.00     0.209 HD
ENDBRANCH 219 220
ENDBRANCH 218 219
BRANCH 218 222
HETATM  222  C   UNK N   1      32.132   5.553  -5.738  0.00  0.00     0.243 C 
HETATM  223  O   UNK N   1      32.799   6.055  -4.846  0.00  0.00    -0.271 OA
HETATM  224  N   UNK N   1      32.547   5.632  -7.032  0.00  0.00    -0.346 N 
HETATM  225  H   UNK N   1      32.012   5.217  -7.747  0.00  0.00     0.163 HD
BRANCH 224 226
HETATM  226  C   UNK N   1      33.773   6.324  -7.360  0.00  0.00     0.180 C 
BRANCH 226 227
HETATM  227  C   UNK N   1      34.803   5.441  -8.084  0.00  0.00     0.073 C 
BRANCH 227 228
HETATM  228  C   UNK N   1      35.445   4.378  -7.210  0.00  0.00    -0.056 A 
HETATM  229  C   UNK N   1      35.786   4.687  -5.889  0.00  0.00     0.007 A 
HETATM  230  C   UNK N   1      36.371   3.715  -5.067  0.00  0.00     0.001 A 
HETATM  231  C   UNK N   1      36.612   2.426  -5.555  0.00  0.00     0.000 A 
HETATM  232  C   UNK N   1      36.272   2.107  -6.867  0.00  0.00     0.001 A 
HETATM  233  C   UNK N   1      35.696   3.077  -7.684  0.00  0.00     0.007 A 
ENDBRANCH 227 228
ENDBRANCH 226 227
BRANCH 226 234
HETATM  234  C   UNK N   1      33.508   7.648  -8.038  0.00  0.00     0.241 C 
HETATM  235  O   UNK N   1      32.957   7.638  -9.126  0.00  0.00    -0.271 OA
HETATM  236  N   UNK N   1      33.812   8.838  -7.477  0.00  0.00    -0.346 N 
HETATM  237  H   UNK N   1      33.492   9.651  -7.931  0.00  0.00     0.163 HD
BRANCH 236 238
HETATM  238  C   UNK N   1      34.571   9.011  -6.262  0.00  0.00     0.176 C 
BRANCH 238 239
HETATM  239  C   UNK N   1      34.388  10.433  -5.694  0.00  0.00     0.036 C 
BRANCH 239 240
HETATM  240  C   UNK N   1      34.466  10.595  -4.183  0.00  0.00     0.023 C 
BRANCH 240 241
HETATM  241  C   UNK N   1      33.237  10.035  -3.471  0.00  0.00     0.138 C 
BRANCH 241 242
HETATM  242  N   UNK N   1      32.820  10.894  -2.391  0.00  0.00    -0.227 N 
HETATM  243  C   UNK N   1      31.541  11.502  -2.369  0.00  0.00     0.665 C 
HETATM  244  N   UNK N   1      30.578  11.191  -3.357  0.00  0.00    -0.235 N 
HETATM  245  N   UNK N   1      31.240  12.308  -1.421  0.00  0.00    -0.235 N 
HETATM  246  H   UNK N   1      29.622  11.392  -3.245  0.00  0.00     0.174 HD
HETATM  247  H   UNK N   1      30.877  10.756  -4.188  0.00  0.00     0.174 HD
HETATM  248  H   UNK N   1      31.868  12.502  -0.688  0.00  0.00     0.174 HD
ATOM    249  HN  UNK N   1      30.326  12.763  -1.426  1.00  0.00     0.174 HD
HETATM  250  H   UNK N   1      33.443  11.065  -1.648  0.00  0.00     0.177 HD
ENDBRANCH 241 242
ENDBRANCH 240 241
ENDBRANCH 239 240
ENDBRANCH 238 239
BRANCH 238 251
HETATM  251  C   UNK N   1      35.995   8.858  -6.707  0.00  0.00     0.241 C 
HETATM  252  O   UNK N   1      36.418   9.558  -7.612  0.00  0.00    -0.271 OA
HETATM  253  N   UNK N   1      36.845   8.096  -5.984  0.00  0.00    -0.345 N 
HETATM  254  H   UNK N   1      36.481   7.377  -5.418  0.00  0.00     0.163 HD
BRANCH 253 255
HETATM  255  C   UNK N   1      38.264   8.305  -6.022  0.00  0.00     0.186 C 
BRANCH 255 256
HETATM  256  C   UNK N   1      39.007   7.038  -5.637  0.00  0.00     0.074 C 
BRANCH 256 257
HETATM  257  C   UNK N   1      39.023   6.070  -6.781  0.00  0.00    -0.056 A 
HETATM  258  C   UNK N   1      39.481   4.765  -6.578  0.00  0.00     0.010 A 
HETATM  259  C   UNK N   1      39.455   3.840  -7.628  0.00  0.00     0.037 A 
HETATM  260  C   UNK N   1      38.980   4.220  -8.886  0.00  0.00     0.065 A 
HETATM  261  C   UNK N   1      38.531   5.524  -9.099  0.00  0.00     0.037 A 
HETATM  262  C   UNK N   1      38.543   6.444  -8.048  0.00  0.00     0.010 A 
BRANCH 260 263
HETATM  263  O   UNK N   1      38.952   3.329  -9.889  0.00  0.00    -0.361 OA
HETATM  264  H   UNK N   1      38.483   3.423 -10.695  0.00  0.00     0.217 HD
ENDBRANCH 260 263
ENDBRANCH 256 257
ENDBRANCH 255 256
BRANCH 255 265
HETATM  265  C   UNK N   1      38.595   9.494  -5.166  0.00  0.00     0.163 C 
HETATM  266  O   UNK N   1      38.850   9.346  -3.984  0.00  0.00    -0.648 OA
BRANCH 265 267
HETATM  267  O   UNK N   1      38.660  10.729  -5.710  0.00  0.00    -0.775 OA
HETATM  268  H   UNK N   1      38.471  11.493  -5.202  0.00  0.00     0.167 HD
ENDBRANCH 265 267
ENDBRANCH 255 265
ENDBRANCH 253 255
ENDBRANCH 238 251
ENDBRANCH 236 238
ENDBRANCH 226 234
ENDBRANCH 224 226
ENDBRANCH 218 222
ENDBRANCH 216 218
ENDBRANCH 207 214
ENDBRANCH 205 207
ENDBRANCH  22 203
BRANCH  30 269
HETATM  269  C   UNK N   1      27.445   2.254  -5.552  0.00  0.00     0.038 C 
BRANCH 269 270
HETATM  270  C   UNK N   1      27.154   1.958  -7.006  0.00  0.00    -0.020 C 
HETATM  271  C   UNK N   1      27.674   3.110  -7.839  0.00  0.00     0.009 C 
HETATM  272  C   UNK N   1      27.839   0.680  -7.433  0.00  0.00     0.009 C 
ENDBRANCH 269 270
ENDBRANCH  30 269
BRANCH   1 273
HETATM  273  C   UNK N   1      35.264  14.755   6.374  0.00  0.00     0.036 C 
BRANCH 273 274
HETATM  274  C   UNK N   1      35.046  14.941   4.891  0.00  0.00     0.023 C 
BRANCH 274 275
HETATM  275  C   UNK N   1      33.615  14.604   4.559  0.00  0.00     0.138 C 
BRANCH 275 276
HETATM  276  N   UNK N   1      32.826  15.788   4.729  0.00  0.00    -0.227 N 
HETATM  277  C   UNK N   1      32.524  16.668   3.665  0.00  0.00     0.665 C 
HETATM  278  N   UNK N   1      32.890  16.393   2.469  0.00  0.00    -0.235 N 
HETATM  279  N   UNK N   1      31.686  17.777   3.902  0.00  0.00    -0.235 N 
HETATM  280  H   UNK N   1      33.399  17.039   1.928  0.00  0.00     0.174 HD
ATOM    281  HN  UNK N   1      32.649  15.486   2.069  1.00  0.00     0.174 HD
HETATM  282  H   UNK N   1      30.890  18.075   4.399  0.00  0.00     0.174 HD
HETATM  283  H   UNK N   1      32.022  18.537   3.373  0.00  0.00     0.174 HD
HETATM  284  H   UNK N   1      32.481  15.999   5.626  0.00  0.00     0.177 HD
ENDBRANCH 275 276
ENDBRANCH 274 275
ENDBRANCH 273 274
ENDBRANCH   1 273
BRANCH  67 285
HETATM  285  C   UNK N   1      34.901  11.523  10.622  0.00  0.00     0.045 C 
BRANCH 285 286
HETATM  286  C   UNK N   1      34.261  10.819  11.810  0.00  0.00     0.076 C 
BRANCH 286 287
HETATM  287  S   UNK N   1      35.473  10.571  13.148  0.00  0.00    -0.173 SA
HETATM  288  C   UNK N   1      36.891  10.822  12.044  0.00  0.00     0.089 C 
ENDBRANCH 286 287
ENDBRANCH 285 286
ENDBRANCH  67 285
BRANCH  38 289
HETATM  289  C   UNK N   1      21.243  -1.710  -1.603  0.00  0.00     0.199 C 
BRANCH 289 290
HETATM  290  O   UNK N   1      20.289  -0.952  -2.284  0.00  0.00    -0.398 OA
HETATM  291  H   UNK N   1      19.347  -0.818  -2.095  0.00  0.00     0.209 HD
ENDBRANCH 289 290
ENDBRANCH  38 289
BRANCH  63 292
HETATM  292  C   UNK N   1      32.496   7.172   9.317  0.00  0.00     0.144 C 
BRANCH 292 293
HETATM  293  C   UNK N   1      33.228   6.702  10.560  0.00  0.00     0.141 C 
HETATM  294  O   UNK N   1      32.886   5.654  11.080  0.00  0.00    -0.650 OA
BRANCH 293 295
HETATM  295  O   UNK N   1      34.228   7.403  11.120  0.00  0.00    -0.776 OA
HETATM  296  H   UNK N   1      34.933   7.558  11.717  0.00  0.00     0.167 HD
ENDBRANCH 293 295
ENDBRANCH 292 293
ENDBRANCH  63 292
BRANCH  42 297
HETATM  297  C   UNK N   1      24.492   1.207   1.469  0.00  0.00     0.044 C 
BRANCH 297 298
HETATM  298  C   UNK N   1      23.929   1.478   2.853  0.00  0.00     0.105 C 
BRANCH 298 299
HETATM  299  C   UNK N   1      24.195   0.302   3.737  0.00  0.00     0.215 C 
HETATM  300  N   UNK N   1      24.161  -0.945   3.228  0.00  0.00    -0.370 N 
HETATM  301  H   UNK N   1      24.053  -1.781   3.736  0.00  0.00     0.159 HD
HETATM  302  H   UNK N   1      24.251  -1.027   2.251  0.00  0.00     0.159 HD
HETATM  303  O   UNK N   1      24.428   0.464   4.923  0.00  0.00    -0.274 OA
ENDBRANCH 298 299
ENDBRANCH 297 298
ENDBRANCH  42 297
BRANCH  59 304
HETATM  304  C   UNK N   1      30.757   9.284   4.556  0.00  0.00     0.036 C 
BRANCH 304 305
HETATM  305  C   UNK N   1      31.430  10.641   4.677  0.00  0.00     0.023 C 
BRANCH 305 306
HETATM  306  C   UNK N   1      30.414  11.753   4.880  0.00  0.00     0.138 C 
BRANCH 306 307
HETATM  307  N   UNK N   1      30.571  12.733   3.854  0.00  0.00    -0.227 N 
HETATM  308  C   UNK N   1      29.767  13.888   3.833  0.00  0.00     0.665 C 
HETATM  309  N   UNK N   1      28.928  14.201   4.928  0.00  0.00    -0.235 N 
HETATM  310  N   UNK N   1      29.729  14.598   2.773  0.00  0.00    -0.235 N 
HETATM  311  H   UNK N   1      28.302  14.665   5.528  0.00  0.00     0.174 HD
HETATM  312  H   UNK N   1      29.070  13.386   5.462  0.00  0.00     0.174 HD
HETATM  313  H   UNK N   1      30.491  15.084   2.384  0.00  0.00     0.174 HD
ATOM    314  HN  UNK N   1      28.834  14.669   2.290  1.00  0.00     0.174 HD
HETATM  315  H   UNK N   1      31.248  12.598   3.152  0.00  0.00     0.177 HD
ENDBRANCH 306 307
ENDBRANCH 305 306
ENDBRANCH 304 305
ENDBRANCH  59 304
BRANCH  55 316
HETATM  316  C   UNK N   1      27.529   5.268   6.446  0.00  0.00     0.013 C 
HETATM  317  C   UNK N   1      26.312   6.055   6.894  0.00  0.00     0.012 C 
BRANCH 316 318
HETATM  318  C   UNK N   1      27.140   3.792   6.361  0.00  0.00     0.002 C 
HETATM  319  C   UNK N   1      27.931   2.962   7.348  0.00  0.00     0.005 C 
ENDBRANCH 316 318
ENDBRANCH  55 316
TORSDOF 92
ENDMDL
MODEL 7
REMARK VINA RESULT:      -4.6      3.440     12.432
REMARK WARNING: 32 MAX_TORS EXCEEDED!!!
REMARK  92 active torsions:
REMARK  status: ('A' for Active; 'I' for Inactive)
REMARK       I    between atoms: C_3  and  N_4 
REMARK       I    between atoms: C_3  and  N_5 
REMARK    1  A    between atoms: N_5  and  C_6 
REMARK    2  A    between atoms: C_6  and  C_7 
REMARK    3  A    between atoms: C_7  and  C_8 
REMARK    4  A    between atoms: C_9  and  C_8 
REMARK    5  A    between atoms: C_21  and  C_22 
REMARK    6  A    between atoms: C_22  and  C_23 
REMARK    7  A    between atoms: C_32  and  N_169 
REMARK    8  A    between atoms: C_37  and  C_117 
REMARK    9  A    between atoms: C_45  and  C_46 
REMARK   10  A    between atoms: C_46  and  C_47 
REMARK   11  A    between atoms: C_57  and  C_58 
REMARK   12  A    between atoms: C_58  and  O_59 
REMARK   13  A    between atoms: C_63  and  C_64 
REMARK   14  A    between atoms: C_64  and  C_65 
REMARK   15  A    between atoms: C_65  and  C_66 
REMARK       I    between atoms: C_66  and  N_67 
REMARK   16  A    between atoms: C_81  and  C_113 
REMARK   17  A    between atoms: C_85  and  C_86 
REMARK   18  A    between atoms: C_86  and  C_87 
REMARK   19  A    between atoms: C_87  and  C_88 
REMARK   20  A    between atoms: C_88  and  N_89 
REMARK       I    between atoms: N_89  and  C_90 
REMARK       I    between atoms: C_90  and  N_91 
REMARK   21  A    between atoms: C_97  and  C_98 
REMARK   22  A    between atoms: C_98  and  C_99 
REMARK   23  A    between atoms: C_99  and  O_100 
REMARK   24  A    between atoms: C_105  and  C_106 
REMARK   25  A    between atoms: C_106  and  C_107 
REMARK   26  A    between atoms: C_107  and  S_108 
REMARK   27  A    between atoms: C_113  and  C_115 
REMARK       I    between atoms: C_117  and  N_119 
REMARK   28  A    between atoms: C_120  and  N_119 
REMARK   29  A    between atoms: C_120  and  C_121 
REMARK   30  A    between atoms: C_120  and  C_125 
REMARK   31  A    between atoms: C_121  and  C_122 
REMARK       I    between atoms: C_122  and  N_123 
REMARK       I    between atoms: C_125  and  N_127 
REMARK   32  A    between atoms: C_128  and  N_127 
REMARK   33  A    between atoms: C_128  and  C_129 
REMARK   34  A    between atoms: C_128  and  C_131 
REMARK   35  A    between atoms: C_129  and  O_130 
REMARK       I    between atoms: C_131  and  N_133 
REMARK   36  A    between atoms: C_134  and  N_133 
REMARK   37  A    between atoms: C_134  and  C_135 
REMARK   38  A    between atoms: C_134  and  C_142 
REMARK   39  A    between atoms: C_135  and  C_136 
REMARK       I    between atoms: C_142  and  N_144 
REMARK   40  A    between atoms: C_145  and  N_144 
REMARK   41  A    between atoms: C_145  and  C_146 
REMARK   42  A    between atoms: C_145  and  C_154 
REMARK   43  A    between atoms: C_146  and  C_147 
REMARK   44  A    between atoms: C_147  and  C_148 
REMARK   45  A    between atoms: C_148  and  N_149 
REMARK       I    between atoms: N_149  and  C_150 
REMARK       I    between atoms: C_150  and  N_151 
REMARK       I    between atoms: C_154  and  N_156 
REMARK   46  A    between atoms: C_157  and  N_156 
REMARK   47  A    between atoms: C_157  and  C_158 
REMARK   48  A    between atoms: C_157  and  C_166 
REMARK   49  A    between atoms: C_158  and  C_159 
REMARK   50  A    between atoms: C_162  and  O_163 
REMARK   51  A    between atoms: C_166  and  O_167 
REMARK       I    between atoms: N_169  and  C_170 
REMARK   52  A    between atoms: C_170  and  C_172 
REMARK   53  A    between atoms: C_172  and  C_173 
REMARK   54  A    between atoms: C_172  and  N_175 
REMARK   55  A    between atoms: C_173  and  O_174 
REMARK       I    between atoms: N_175  and  C_176 
REMARK   56  A    between atoms: C_176  and  C_178 
REMARK   57  A    between atoms: C_178  and  C_179 
REMARK   58  A    between atoms: C_178  and  N_181 
REMARK   59  A    between atoms: C_179  and  O_180 
REMARK       I    between atoms: N_181  and  C_182 
REMARK   60  A    between atoms: C_182  and  C_184 
REMARK   61  A    between atoms: C_184  and  C_185 
REMARK   62  A    between atoms: C_184  and  N_193 
REMARK   63  A    between atoms: C_185  and  C_186 
REMARK   64  A    between atoms: C_186  and  C_187 
REMARK   65  A    between atoms: C_187  and  N_188 
REMARK       I    between atoms: N_188  and  C_189 
REMARK       I    between atoms: C_189  and  N_190 
REMARK       I    between atoms: N_193  and  C_194 
REMARK   66  A    between atoms: C_194  and  C_196 
REMARK   67  A    between atoms: C_196  and  C_197 
REMARK   68  A    between atoms: C_196  and  N_205 
REMARK   69  A    between atoms: C_197  and  C_198 
REMARK   70  A    between atoms: C_198  and  C_199 
REMARK   71  A    between atoms: C_199  and  N_200 
REMARK       I    between atoms: N_200  and  C_201 
REMARK       I    between atoms: C_201  and  N_202 
REMARK       I    between atoms: N_205  and  C_206 
REMARK   72  A    between atoms: C_206  and  C_208 
REMARK   73  A    between atoms: C_208  and  C_209 
REMARK   74  A    between atoms: C_208  and  N_213 
REMARK   75  A    between atoms: C_209  and  C_210 
REMARK       I    between atoms: N_213  and  C_214 
REMARK   76  A    between atoms: C_214  and  C_216 
REMARK   77  A    between atoms: C_216  and  C_217 
REMARK   78  A    between atoms: C_216  and  N_219 
REMARK   79  A    between atoms: C_217  and  O_218 
REMARK       I    between atoms: N_219  and  C_220 
REMARK   80  A    between atoms: C_220  and  C_222 
REMARK   81  A    between atoms: C_222  and  C_223 
REMARK   82  A    between atoms: C_222  and  N_231 
REMARK   83  A    between atoms: C_223  and  C_224 
REMARK   84  A    between atoms: C_224  and  C_225 
REMARK   85  A    between atoms: C_225  and  N_226 
REMARK       I    between atoms: N_226  and  C_227 
REMARK       I    between atoms: C_227  and  N_228 
REMARK       I    between atoms: N_231  and  C_232 
REMARK   86  A    between atoms: C_234  and  C_232 
REMARK       I    between atoms: N_238  and  C_239 
REMARK   87  A    between atoms: C_239  and  C_241 
REMARK   88  A    between atoms: C_241  and  N_243 
REMARK       I    between atoms: N_243  and  C_244 
REMARK   89  A    between atoms: C_244  and  C_246 
REMARK   90  A    between atoms: C_246  and  N_247 
REMARK   91  A    between atoms: C_246  and  C_248 
REMARK   92  A    between atoms: C_248  and  O_250 
ROOT
HETATM    1  C   UNK N   1      36.885  12.567   8.380  0.00  0.00     0.176 C 
HETATM    2  N   UNK N   1      38.287  12.691   8.710  0.00  0.00    -0.346 N 
HETATM    3  C   UNK N   1      39.304  12.217   7.945  0.00  0.00     0.236 C 
HETATM    4  O   UNK N   1      40.452  12.384   8.319  0.00  0.00    -0.272 OA
HETATM    5  C   UNK N   1      39.080  11.588   6.604  0.00  0.00     0.225 C 
HETATM    6  N   UNK N   1      38.397  10.322   6.670  0.00  0.00    -0.351 N 
HETATM    7  C   UNK N   1      37.199  10.153   6.064  0.00  0.00     0.235 C 
HETATM    8  O   UNK N   1      36.635  11.095   5.530  0.00  0.00    -0.272 OA
HETATM    9  C   UNK N   1      36.592   8.798   5.983  0.00  0.00     0.225 C 
HETATM   10  N   UNK N   1      37.085   8.147   4.796  0.00  0.00    -0.351 N 
HETATM   11  C   UNK N   1      36.480   8.255   3.590  0.00  0.00     0.241 C 
HETATM   12  O   UNK N   1      36.973   7.687   2.628  0.00  0.00    -0.271 OA
HETATM   13  C   UNK N   1      35.204   9.033   3.406  0.00  0.00     0.180 C 
HETATM   14  N   UNK N   1      34.241   8.126   2.830  0.00  0.00    -0.346 N 
HETATM   15  C   UNK N   1      33.058   8.576   2.353  0.00  0.00     0.242 C 
HETATM   16  O   UNK N   1      32.686   9.708   2.575  0.00  0.00    -0.271 OA
HETATM   17  C   UNK N   1      32.365   7.856   1.295  0.00  0.00     0.186 C 
HETATM   18  C   UNK N   1      32.706   6.425   1.018  0.00  0.00     0.120 C 
HETATM   19  S   UNK N   1      31.513   5.399   1.898  0.00  0.00    -0.095 SA
HETATM   20  S   UNK N   1      29.773   6.653   1.556  0.00  0.00    -0.095 SA
HETATM   21  C   UNK N   1      29.703   6.709  -0.274  0.00  0.00     0.120 C 
HETATM   22  C   UNK N   1      30.434   5.654  -1.101  0.00  0.00     0.186 C 
HETATM   23  N   UNK N   1      30.344   4.319  -0.551  0.00  0.00    -0.346 N 
HETATM   24  C   UNK N   1      30.148   3.236  -1.337  0.00  0.00     0.236 C 
HETATM   25  O   UNK N   1      30.037   2.134  -0.825  0.00  0.00    -0.272 OA
HETATM   26  C   UNK N   1      30.058   3.373  -2.829  0.00  0.00     0.225 C 
HETATM   27  N   UNK N   1      29.160   4.454  -3.165  0.00  0.00    -0.351 N 
HETATM   28  C   UNK N   1      28.189   4.394  -4.104  0.00  0.00     0.240 C 
HETATM   29  O   UNK N   1      27.466   5.368  -4.266  0.00  0.00    -0.271 OA
HETATM   30  C   UNK N   1      27.953   3.141  -4.906  0.00  0.00     0.177 C 
HETATM   31  N   UNK N   1      26.839   3.354  -5.799  0.00  0.00    -0.346 N 
HETATM   32  C   UNK N   1      25.678   2.673  -5.673  0.00  0.00     0.236 C 
HETATM   33  O   UNK N   1      24.731   2.980  -6.378  0.00  0.00    -0.272 OA
HETATM   34  C   UNK N   1      25.516   1.569  -4.665  0.00  0.00     0.225 C 
HETATM   35  N   UNK N   1      24.772   0.496  -5.274  0.00  0.00    -0.350 N 
HETATM   36  C   UNK N   1      23.850  -0.294  -4.660  0.00  0.00     0.242 C 
HETATM   37  O   UNK N   1      23.286  -1.137  -5.339  0.00  0.00    -0.271 OA
HETATM   38  C   UNK N   1      23.511  -0.243  -3.168  0.00  0.00     0.200 C 
HETATM   39  N   UNK N   1      23.952   0.951  -2.475  0.00  0.00    -0.344 N 
HETATM   40  C   UNK N   1      23.722   1.207  -1.148  0.00  0.00     0.241 C 
HETATM   41  O   UNK N   1      23.076   0.424  -0.468  0.00  0.00    -0.271 OA
HETATM   42  C   UNK N   1      24.300   2.445  -0.503  0.00  0.00     0.177 C 
HETATM   43  N   UNK N   1      25.212   2.976  -1.496  0.00  0.00    -0.346 N 
HETATM   44  C   UNK N   1      26.502   3.346  -1.344  0.00  0.00     0.240 C 
HETATM   45  O   UNK N   1      27.288   2.902  -2.144  0.00  0.00    -0.271 OA
HETATM   46  C   UNK N   1      27.057   4.023  -0.127  0.00  0.00     0.172 C 
HETATM   47  C   UNK N   1      26.048   4.990   0.486  0.00  0.00     0.042 C 
HETATM   48  N   UNK N   1      27.494   2.975   0.754  0.00  0.00    -0.347 N 
HETATM   49  C   UNK N   1      27.866   3.085   2.041  0.00  0.00     0.236 C 
HETATM   50  O   UNK N   1      28.148   2.070   2.655  0.00  0.00    -0.272 OA
HETATM   51  C   UNK N   1      27.933   4.387   2.748  0.00  0.00     0.225 C 
HETATM   52  N   UNK N   1      29.180   4.364   3.447  0.00  0.00    -0.351 N 
HETATM   53  C   UNK N   1      29.426   5.046   4.571  0.00  0.00     0.241 C 
HETATM   54  O   UNK N   1      30.497   4.870   5.131  0.00  0.00    -0.271 OA
HETATM   55  C   UNK N   1      28.424   6.023   5.137  0.00  0.00     0.180 C 
HETATM   56  N   UNK N   1      29.076   7.301   5.383  0.00  0.00    -0.346 N 
HETATM   57  C   UNK N   1      30.029   7.459   6.335  0.00  0.00     0.241 C 
HETATM   58  O   UNK N   1      30.266   6.551   7.115  0.00  0.00    -0.271 OA
HETATM   59  C   UNK N   1      30.813   8.737   6.445  0.00  0.00     0.176 C 
HETATM   60  N   UNK N   1      31.693   8.651   7.589  0.00  0.00    -0.346 N 
HETATM   61  C   UNK N   1      32.658   7.707   7.758  0.00  0.00     0.241 C 
HETATM   62  O   UNK N   1      33.012   6.993   6.830  0.00  0.00    -0.271 OA
HETATM   63  C   UNK N   1      33.170   7.427   9.136  0.00  0.00     0.186 C 
HETATM   64  N   UNK N   1      33.894   8.530   9.731  0.00  0.00    -0.346 N 
HETATM   65  C   UNK N   1      33.373   9.745  10.037  0.00  0.00     0.241 C 
HETATM   66  O   UNK N   1      32.194   9.994   9.852  0.00  0.00    -0.271 OA
HETATM   67  C   UNK N   1      34.272  10.829  10.535  0.00  0.00     0.177 C 
HETATM   68  N   UNK N   1      35.296  11.090   9.545  0.00  0.00    -0.346 N 
HETATM   69  C   UNK N   1      36.115  12.165   9.600  0.00  0.00     0.241 C 
HETATM   70  O   UNK N   1      36.131  12.883  10.591  0.00  0.00    -0.271 OA
HETATM   71  H   UNK N   1      38.521  13.152   9.548  0.00  0.00     0.163 HD
HETATM   72  H   UNK N   1      38.805   9.573   7.160  0.00  0.00     0.163 HD
HETATM   73  H   UNK N   1      37.900   7.599   4.866  0.00  0.00     0.163 HD
HETATM   74  H   UNK N   1      34.448   7.164   2.784  0.00  0.00     0.163 HD
HETATM   75  H   UNK N   1      30.429   4.195   0.421  0.00  0.00     0.163 HD
HETATM   76  H   UNK N   1      29.264   5.300  -2.672  0.00  0.00     0.163 HD
HETATM   77  H   UNK N   1      26.928   4.017  -6.522  0.00  0.00     0.163 HD
HETATM   78  H   UNK N   1      24.948   0.318  -6.226  0.00  0.00     0.163 HD
HETATM   79  H   UNK N   1      24.451   1.623  -2.992  0.00  0.00     0.163 HD
HETATM   80  H   UNK N   1      24.842   3.082  -2.401  0.00  0.00     0.163 HD
HETATM   81  H   UNK N   1      27.524   2.069   0.371  0.00  0.00     0.163 HD
HETATM   82  H   UNK N   1      29.904   3.808   3.077  0.00  0.00     0.163 HD
HETATM   83  H   UNK N   1      28.817   8.079   4.838  0.00  0.00     0.163 HD
HETATM   84  H   UNK N   1      31.586   9.325   8.298  0.00  0.00     0.163 HD
HETATM   85  H   UNK N   1      34.847   8.387   9.930  0.00  0.00     0.163 HD
HETATM   86  H   UNK N   1      35.400  10.457   8.798  0.00  0.00     0.163 HD
ENDROOT
BRANCH  17  87
HETATM   87  N   UNK N   1      32.062   8.724   0.178  0.00  0.00    -0.345 N 
HETATM   88  C   UNK N   1      30.926   9.461   0.023  0.00  0.00     0.243 C 
HETATM   89  O   UNK N   1      30.562   9.709  -1.113  0.00  0.00    -0.271 OA
HETATM   90  H   UNK N   1      32.737   8.789  -0.535  0.00  0.00     0.163 HD
BRANCH  88  91
HETATM   91  C   UNK N   1      30.010   9.865   1.157  0.00  0.00     0.200 C 
BRANCH  91  92
HETATM   92  C   UNK N   1      30.498  10.978   2.081  0.00  0.00     0.199 C 
BRANCH  92  93
HETATM   93  O   UNK N   1      31.409  11.806   1.422  0.00  0.00    -0.398 OA
HETATM   94  H   UNK N   1      31.651  12.704   1.696  0.00  0.00     0.209 HD
ENDBRANCH  92  93
ENDBRANCH  91  92
BRANCH  91  95
HETATM   95  N   UNK N   1      28.727  10.287   0.664  0.00  0.00    -0.344 N 
HETATM   96  C   UNK N   1      27.648  10.267   1.465  0.00  0.00     0.243 C 
HETATM   97  O   UNK N   1      26.634  10.848   1.117  0.00  0.00    -0.271 OA
HETATM   98  H   UNK N   1      28.638  10.593  -0.267  0.00  0.00     0.163 HD
BRANCH  96  99
HETATM   99  C   UNK N   1      27.722   9.557   2.788  0.00  0.00     0.200 C 
BRANCH  99 100
HETATM  100  C   UNK N   1      27.851  10.317   4.099  0.00  0.00     0.199 C 
BRANCH 100 101
HETATM  101  O   UNK N   1      27.489  11.650   3.926  0.00  0.00    -0.398 OA
HETATM  102  H   UNK N   1      27.705  12.335   3.274  0.00  0.00     0.209 HD
ENDBRANCH 100 101
ENDBRANCH  99 100
BRANCH  99 103
HETATM  103  N   UNK N   1      27.126   8.236   2.858  0.00  0.00    -0.344 N 
HETATM  104  C   UNK N   1      25.835   7.937   3.169  0.00  0.00     0.241 C 
HETATM  105  O   UNK N   1      25.503   6.769   3.261  0.00  0.00    -0.271 OA
HETATM  106  H   UNK N   1      27.717   7.475   2.659  0.00  0.00     0.163 HD
BRANCH 104 107
HETATM  107  C   UNK N   1      24.812   8.990   3.467  0.00  0.00     0.176 C 
BRANCH 107 108
HETATM  108  C   UNK N   1      24.966   9.451   4.905  0.00  0.00     0.036 C 
BRANCH 108 109
HETATM  109  C   UNK N   1      23.920  10.491   5.208  0.00  0.00     0.023 C 
BRANCH 109 110
HETATM  110  C   UNK N   1      24.516  11.864   5.460  0.00  0.00     0.138 C 
BRANCH 110 111
HETATM  111  N   UNK N   1      23.521  12.843   5.817  0.00  0.00    -0.227 N 
HETATM  112  C   UNK N   1      23.665  13.732   6.909  0.00  0.00     0.665 C 
HETATM  113  N   UNK N   1      24.909  13.889   7.563  0.00  0.00    -0.235 N 
HETATM  114  N   UNK N   1      22.663  14.431   7.278  0.00  0.00    -0.235 N 
HETATM  115  H   UNK N   1      25.566  14.035   8.281  0.00  0.00     0.174 HD
HETATM  116  H   UNK N   1      25.518  13.783   6.796  0.00  0.00     0.174 HD
HETATM  117  H   UNK N   1      22.347  15.195   6.742  0.00  0.00     0.174 HD
ATOM    118  HN  UNK N   1      22.180  14.195   8.145  1.00  0.00     0.174 HD
HETATM  119  H   UNK N   1      22.701  12.897   5.275  0.00  0.00     0.177 HD
ENDBRANCH 110 111
ENDBRANCH 109 110
ENDBRANCH 108 109
ENDBRANCH 107 108
BRANCH 107 120
HETATM  120  N   UNK N   1      23.476   8.519   3.132  0.00  0.00    -0.346 N 
HETATM  121  C   UNK N   1      22.778   9.056   2.096  0.00  0.00     0.241 C 
HETATM  122  O   UNK N   1      21.704   8.575   1.767  0.00  0.00    -0.271 OA
HETATM  123  H   UNK N   1      23.070   7.797   3.664  0.00  0.00     0.163 HD
BRANCH 121 124
HETATM  124  C   UNK N   1      23.296  10.307   1.452  0.00  0.00     0.176 C 
BRANCH 124 125
HETATM  125  C   UNK N   1      23.298  10.359  -0.063  0.00  0.00     0.036 C 
BRANCH 125 126
HETATM  126  C   UNK N   1      24.168   9.223  -0.572  0.00  0.00     0.023 C 
BRANCH 126 127
HETATM  127  C   UNK N   1      23.411   8.355  -1.558  0.00  0.00     0.138 C 
BRANCH 127 128
HETATM  128  N   UNK N   1      23.988   8.497  -2.869  0.00  0.00    -0.227 N 
HETATM  129  C   UNK N   1      24.767   7.464  -3.451  0.00  0.00     0.665 C 
HETATM  130  N   UNK N   1      25.309   7.638  -4.741  0.00  0.00    -0.235 N 
HETATM  131  N   UNK N   1      25.018   6.389  -2.797  0.00  0.00    -0.235 N 
HETATM  132  H   UNK N   1      25.286   7.016  -5.505  0.00  0.00     0.174 HD
HETATM  133  H   UNK N   1      25.772   8.492  -4.899  0.00  0.00     0.174 HD
HETATM  134  H   UNK N   1      24.844   6.051  -1.889  0.00  0.00     0.174 HD
ATOM    135  HN  UNK N   1      25.527   5.710  -3.364  1.00  0.00     0.174 HD
HETATM  136  H   UNK N   1      23.838   9.329  -3.373  0.00  0.00     0.177 HD
ENDBRANCH 127 128
ENDBRANCH 126 127
ENDBRANCH 125 126
ENDBRANCH 124 125
BRANCH 124 137
HETATM  137  N   UNK N   1      22.547  11.363   2.077  0.00  0.00    -0.346 N 
HETATM  138  C   UNK N   1      23.015  12.636   2.127  0.00  0.00     0.241 C 
HETATM  139  O   UNK N   1      24.212  12.870   2.035  0.00  0.00    -0.271 OA
HETATM  140  H   UNK N   1      21.672  11.159   2.478  0.00  0.00     0.163 HD
BRANCH 138 141
HETATM  141  C   UNK N   1      22.049  13.750   1.953  0.00  0.00     0.177 C 
BRANCH 141 142
HETATM  142  C   UNK N   1      21.140  13.299   0.813  0.00  0.00     0.038 C 
BRANCH 142 143
HETATM  143  C   UNK N   1      19.679  13.163   1.172  0.00  0.00    -0.020 C 
HETATM  144  C   UNK N   1      19.168  11.798   0.757  0.00  0.00     0.009 C 
HETATM  145  C   UNK N   1      18.896  14.235   0.438  0.00  0.00     0.009 C 
ENDBRANCH 142 143
ENDBRANCH 141 142
BRANCH 141 146
HETATM  146  N   UNK N   1      21.262  14.130   3.118  0.00  0.00    -0.346 N 
HETATM  147  C   UNK N   1      21.436  15.117   4.045  0.00  0.00     0.243 C 
HETATM  148  O   UNK N   1      20.603  15.212   4.933  0.00  0.00    -0.271 OA
HETATM  149  H   UNK N   1      20.461  13.577   3.263  0.00  0.00     0.163 HD
BRANCH 147 150
HETATM  150  C   UNK N   1      22.600  16.106   4.036  0.00  0.00     0.200 C 
BRANCH 150 151
HETATM  151  C   UNK N   1      22.117  17.555   3.990  0.00  0.00     0.199 C 
BRANCH 151 152
HETATM  152  O   UNK N   1      21.727  17.993   5.255  0.00  0.00    -0.398 OA
HETATM  153  H   UNK N   1      21.295  17.424   5.911  0.00  0.00     0.209 HD
ENDBRANCH 151 152
ENDBRANCH 150 151
BRANCH 150 154
HETATM  154  N   UNK N   1      23.632  15.908   3.026  0.00  0.00    -0.344 N 
HETATM  155  C   UNK N   1      24.980  15.985   3.165  0.00  0.00     0.241 C 
HETATM  156  O   UNK N   1      25.682  15.835   2.176  0.00  0.00    -0.271 OA
HETATM  157  H   UNK N   1      23.310  15.688   2.122  0.00  0.00     0.163 HD
BRANCH 155 158
HETATM  158  C   UNK N   1      25.634  16.216   4.492  0.00  0.00     0.176 C 
BRANCH 158 159
HETATM  159  C   UNK N   1      25.451  17.665   4.936  0.00  0.00     0.036 C 
BRANCH 159 160
HETATM  160  C   UNK N   1      26.200  18.580   3.980  0.00  0.00     0.023 C 
BRANCH 160 161
HETATM  161  C   UNK N   1      26.224  20.010   4.489  0.00  0.00     0.138 C 
BRANCH 161 162
HETATM  162  N   UNK N   1      25.788  20.065   5.862  0.00  0.00    -0.227 N 
HETATM  163  C   UNK N   1      26.404  20.937   6.798  0.00  0.00     0.665 C 
HETATM  164  N   UNK N   1      27.546  21.687   6.438  0.00  0.00    -0.235 N 
HETATM  165  N   UNK N   1      25.938  21.029   7.988  0.00  0.00    -0.235 N 
HETATM  166  H   UNK N   1      27.957  22.384   6.998  0.00  0.00     0.174 HD
HETATM  167  H   UNK N   1      27.960  21.500   5.564  0.00  0.00     0.174 HD
HETATM  168  H   UNK N   1      25.507  20.253   8.415  0.00  0.00     0.174 HD
ATOM    169  HN  UNK N   1      26.013  21.910   8.495  1.00  0.00     0.174 HD
HETATM  170  H   UNK N   1      25.048  19.487   6.156  0.00  0.00     0.177 HD
ENDBRANCH 161 162
ENDBRANCH 160 161
ENDBRANCH 159 160
ENDBRANCH 158 159
BRANCH 158 171
HETATM  171  N   UNK N   1      27.029  15.968   4.329  0.00  0.00    -0.346 N 
HETATM  172  C   UNK N   1      27.736  14.984   4.927  0.00  0.00     0.241 C 
HETATM  173  O   UNK N   1      27.201  14.189   5.688  0.00  0.00    -0.271 OA
HETATM  174  H   UNK N   1      27.523  16.570   3.725  0.00  0.00     0.163 HD
BRANCH 172 175
HETATM  175  C   UNK N   1      29.222  14.994   4.725  0.00  0.00     0.179 C 
HETATM  176  C   UNK N   1      29.563  14.104   3.543  0.00  0.00     0.037 C 
HETATM  177  C   UNK N   1      29.523  15.007   2.310  0.00  0.00     0.022 C 
HETATM  178  C   UNK N   1      29.635  16.437   2.824  0.00  0.00     0.127 C 
HETATM  179  N   UNK N   1      29.521  16.328   4.248  0.00  0.00    -0.337 N 
HETATM  180  C   UNK N   1      29.631  17.398   5.087  0.00  0.00     0.243 C 
HETATM  181  O   UNK N   1      29.712  18.533   4.625  0.00  0.00    -0.271 OA
BRANCH 180 182
HETATM  182  C   UNK N   1      29.867  17.156   6.559  0.00  0.00     0.172 C 
HETATM  183  C   UNK N   1      29.407  18.297   7.460  0.00  0.00     0.042 C 
BRANCH 182 184
HETATM  184  N   UNK N   1      31.303  16.947   6.639  0.00  0.00    -0.346 N 
HETATM  185  C   UNK N   1      31.893  16.420   7.751  0.00  0.00     0.243 C 
HETATM  186  O   UNK N   1      31.236  15.772   8.553  0.00  0.00    -0.271 OA
HETATM  187  H   UNK N   1      31.866  17.191   5.868  0.00  0.00     0.163 HD
BRANCH 185 188
HETATM  188  C   UNK N   1      33.277  16.868   8.144  0.00  0.00     0.196 C 
BRANCH 188 189
HETATM  189  N   UNK N   1      33.437  16.899   9.590  0.00  0.00    -0.417 N 
HETATM  190  H   UNK N   1      34.215  16.888  10.250  0.00  0.00     0.150 HD
HETATM  191  H   UNK N   1      32.537  16.945  10.069  0.00  0.00     0.150 HD
ENDBRANCH 188 189
BRANCH 188 192
HETATM  192  C   UNK N   1      33.758  18.165   7.509  0.00  0.00     0.145 C 
HETATM  193  C   UNK N   1      34.936  18.687   8.313  0.00  0.00     0.042 C 
BRANCH 192 194
HETATM  194  O   UNK N   1      34.188  17.937   6.201  0.00  0.00    -0.393 OA
HETATM  195  H   UNK N   1      34.627  17.214   5.727  0.00  0.00     0.210 HD
ENDBRANCH 192 194
ENDBRANCH 188 192
ENDBRANCH 185 188
ENDBRANCH 182 184
ENDBRANCH 180 182
ENDBRANCH 172 175
ENDBRANCH 158 171
ENDBRANCH 155 158
ENDBRANCH 150 154
ENDBRANCH 147 150
ENDBRANCH 141 146
ENDBRANCH 138 141
ENDBRANCH 124 137
ENDBRANCH 121 124
ENDBRANCH 107 120
ENDBRANCH 104 107
ENDBRANCH  99 103
ENDBRANCH  96  99
ENDBRANCH  91  95
ENDBRANCH  88  91
ENDBRANCH  17  87
BRANCH  13 196
HETATM  196  C   UNK N   1      35.420  10.088   2.323  0.00  0.00     0.073 C 
BRANCH 196 197
HETATM  197  C   UNK N   1      36.757  10.596   1.986  0.00  0.00    -0.056 A 
HETATM  198  C   UNK N   1      37.403  11.446   2.878  0.00  0.00     0.007 A 
HETATM  199  C   UNK N   1      38.757  11.719   2.710  0.00  0.00     0.001 A 
HETATM  200  C   UNK N   1      39.467  11.142   1.650  0.00  0.00     0.000 A 
HETATM  201  C   UNK N   1      38.819  10.285   0.758  0.00  0.00     0.001 A 
HETATM  202  C   UNK N   1      37.468   9.991   0.943  0.00  0.00     0.007 A 
ENDBRANCH 196 197
ENDBRANCH  13 196
BRANCH  22 203
HETATM  203  C   UNK N   1      31.785   6.004  -1.699  0.00  0.00     0.242 C 
HETATM  204  O   UNK N   1      32.802   5.714  -1.089  0.00  0.00    -0.271 OA
HETATM  205  N   UNK N   1      31.896   6.596  -2.921  0.00  0.00    -0.346 N 
HETATM  206  H   UNK N   1      32.797   6.827  -3.245  0.00  0.00     0.163 HD
BRANCH 205 207
HETATM  207  C   UNK N   1      30.761   6.906  -3.771  0.00  0.00     0.185 C 
BRANCH 207 208
HETATM  208  C   UNK N   1      30.187   8.325  -3.692  0.00  0.00     0.137 C 
BRANCH 208 209
HETATM  209  C   UNK N   1      28.703   8.524  -3.670  0.00  0.00     0.217 C 
HETATM  210  N   UNK N   1      28.077   8.562  -2.479  0.00  0.00    -0.370 N 
HETATM  211  H   UNK N   1      27.659   7.834  -1.964  0.00  0.00     0.159 HD
HETATM  212  H   UNK N   1      28.030   9.451  -2.059  0.00  0.00     0.159 HD
HETATM  213  O   UNK N   1      28.063   8.676  -4.697  0.00  0.00    -0.274 OA
ENDBRANCH 208 209
ENDBRANCH 207 208
BRANCH 207 214
HETATM  214  C   UNK N   1      30.967   6.535  -5.202  0.00  0.00     0.241 C 
HETATM  215  O   UNK N   1      29.984   6.313  -5.889  0.00  0.00    -0.271 OA
HETATM  216  N   UNK N   1      32.199   6.430  -5.761  0.00  0.00    -0.344 N 
HETATM  217  H   UNK N   1      32.234   6.185  -6.714  0.00  0.00     0.163 HD
BRANCH 216 218
HETATM  218  C   UNK N   1      33.468   6.644  -5.093  0.00  0.00     0.200 C 
BRANCH 218 219
HETATM  219  C   UNK N   1      34.431   5.586  -5.577  0.00  0.00     0.199 C 
BRANCH 219 220
HETATM  220  O   UNK N   1      35.441   6.179  -6.341  0.00  0.00    -0.398 OA
HETATM  221  H   UNK N   1      36.351   6.485  -6.206  0.00  0.00     0.209 HD
ENDBRANCH 219 220
ENDBRANCH 218 219
BRANCH 218 222
HETATM  222  C   UNK N   1      34.051   7.977  -5.438  0.00  0.00     0.243 C 
HETATM  223  O   UNK N   1      33.580   8.617  -6.367  0.00  0.00    -0.271 OA
HETATM  224  N   UNK N   1      35.120   8.458  -4.747  0.00  0.00    -0.346 N 
HETATM  225  H   UNK N   1      35.489   7.945  -3.993  0.00  0.00     0.163 HD
BRANCH 224 226
HETATM  226  C   UNK N   1      35.714   9.723  -5.116  0.00  0.00     0.180 C 
BRANCH 226 227
HETATM  227  C   UNK N   1      36.236  10.532  -3.918  0.00  0.00     0.073 C 
BRANCH 227 228
HETATM  228  C   UNK N   1      35.150  11.160  -3.061  0.00  0.00    -0.056 A 
HETATM  229  C   UNK N   1      34.078  11.810  -3.679  0.00  0.00     0.007 A 
HETATM  230  C   UNK N   1      33.062  12.387  -2.904  0.00  0.00     0.001 A 
HETATM  231  C   UNK N   1      33.109  12.312  -1.508  0.00  0.00     0.000 A 
HETATM  232  C   UNK N   1      34.171  11.663  -0.884  0.00  0.00     0.001 A 
HETATM  233  C   UNK N   1      35.180  11.095  -1.656  0.00  0.00     0.007 A 
ENDBRANCH 227 228
ENDBRANCH 226 227
BRANCH 226 234
HETATM  234  C   UNK N   1      36.712   9.569  -6.241  0.00  0.00     0.241 C 
HETATM  235  O   UNK N   1      37.618   8.765  -6.100  0.00  0.00    -0.271 OA
HETATM  236  N   UNK N   1      36.621  10.246  -7.406  0.00  0.00    -0.346 N 
HETATM  237  H   UNK N   1      37.239   9.992  -8.129  0.00  0.00     0.163 HD
BRANCH 236 238
HETATM  238  C   UNK N   1      35.687  11.312  -7.674  0.00  0.00     0.176 C 
BRANCH 238 239
HETATM  239  C   UNK N   1      35.507  11.520  -9.191  0.00  0.00     0.036 C 
BRANCH 239 240
HETATM  240  C   UNK N   1      36.605  10.994 -10.103  0.00  0.00     0.023 C 
BRANCH 240 241
HETATM  241  C   UNK N   1      37.269  12.103 -10.916  0.00  0.00     0.138 C 
BRANCH 241 242
HETATM  242  N   UNK N   1      36.799  13.404 -10.508  0.00  0.00    -0.227 N 
HETATM  243  C   UNK N   1      36.254  14.328 -11.433  0.00  0.00     0.665 C 
HETATM  244  N   UNK N   1      36.045  13.958 -12.782  0.00  0.00    -0.235 N 
HETATM  245  N   UNK N   1      35.910  15.495 -11.035  0.00  0.00    -0.235 N 
HETATM  246  H   UNK N   1      35.458  14.467 -13.385  0.00  0.00     0.174 HD
HETATM  247  H   UNK N   1      36.503  13.159 -13.131  0.00  0.00     0.174 HD
HETATM  248  H   UNK N   1      35.991  15.763 -10.091  0.00  0.00     0.174 HD
ATOM    249  HN  UNK N   1      35.543  16.164 -11.712  1.00  0.00     0.174 HD
HETATM  250  H   UNK N   1      36.860  13.659  -9.559  0.00  0.00     0.177 HD
ENDBRANCH 241 242
ENDBRANCH 240 241
ENDBRANCH 239 240
ENDBRANCH 238 239
BRANCH 238 251
HETATM  251  C   UNK N   1      36.359  12.525  -7.105  0.00  0.00     0.241 C 
HETATM  252  O   UNK N   1      37.505  12.784  -7.434  0.00  0.00    -0.271 OA
HETATM  253  N   UNK N   1      35.639  13.420  -6.394  0.00  0.00    -0.345 N 
HETATM  254  H   UNK N   1      34.814  13.123  -5.945  0.00  0.00     0.163 HD
BRANCH 253 255
HETATM  255  C   UNK N   1      36.045  14.792  -6.274  0.00  0.00     0.186 C 
BRANCH 255 256
HETATM  256  C   UNK N   1      35.405  15.439  -5.058  0.00  0.00     0.074 C 
BRANCH 256 257
HETATM  257  C   UNK N   1      36.070  14.967  -3.800  0.00  0.00    -0.056 A 
HETATM  258  C   UNK N   1      35.474  15.226  -2.562  0.00  0.00     0.010 A 
HETATM  259  C   UNK N   1      36.063  14.749  -1.386  0.00  0.00     0.037 A 
HETATM  260  C   UNK N   1      37.253  14.019  -1.443  0.00  0.00     0.065 A 
HETATM  261  C   UNK N   1      37.860  13.766  -2.674  0.00  0.00     0.037 A 
HETATM  262  C   UNK N   1      37.265  14.230  -3.850  0.00  0.00     0.010 A 
BRANCH 260 263
HETATM  263  O   UNK N   1      37.812  13.558  -0.313  0.00  0.00    -0.361 OA
HETATM  264  H   UNK N   1      37.361  13.375   0.487  0.00  0.00     0.217 HD
ENDBRANCH 260 263
ENDBRANCH 256 257
ENDBRANCH 255 256
BRANCH 255 265
HETATM  265  C   UNK N   1      35.750  15.493  -7.569  0.00  0.00     0.163 C 
HETATM  266  O   UNK N   1      36.598  16.194  -8.092  0.00  0.00    -0.648 OA
BRANCH 265 267
HETATM  267  O   UNK N   1      34.563  15.312  -8.187  0.00  0.00    -0.775 OA
HETATM  268  H   UNK N   1      34.492  15.345  -9.120  0.00  0.00     0.167 HD
ENDBRANCH 265 267
ENDBRANCH 255 265
ENDBRANCH 253 255
ENDBRANCH 238 251
ENDBRANCH 236 238
ENDBRANCH 226 234
ENDBRANCH 224 226
ENDBRANCH 218 222
ENDBRANCH 216 218
ENDBRANCH 207 214
ENDBRANCH 205 207
ENDBRANCH  22 203
BRANCH  30 269
HETATM  269  C   UNK N   1      29.248   2.745  -5.621  0.00  0.00     0.038 C 
BRANCH 269 270
HETATM  270  C   UNK N   1      29.162   2.428  -7.097  0.00  0.00    -0.020 C 
HETATM  271  C   UNK N   1      29.986   3.452  -7.851  0.00  0.00     0.009 C 
HETATM  272  C   UNK N   1      29.705   1.045  -7.374  0.00  0.00     0.009 C 
ENDBRANCH 269 270
ENDBRANCH  30 269
BRANCH   1 273
HETATM  273  C   UNK N   1      36.315  13.923   7.971  0.00  0.00     0.036 C 
BRANCH 273 274
HETATM  274  C   UNK N   1      36.602  14.273   6.529  0.00  0.00     0.023 C 
BRANCH 274 275
HETATM  275  C   UNK N   1      35.352  14.838   5.904  0.00  0.00     0.138 C 
BRANCH 275 276
HETATM  276  N   UNK N   1      35.007  14.021   4.779  0.00  0.00    -0.227 N 
HETATM  277  C   UNK N   1      34.020  14.389   3.836  0.00  0.00     0.665 C 
HETATM  278  N   UNK N   1      33.438  15.527   3.914  0.00  0.00    -0.235 N 
HETATM  279  N   UNK N   1      33.788  13.559   2.720  0.00  0.00    -0.235 N 
HETATM  280  H   UNK N   1      32.456  15.600   3.919  0.00  0.00     0.174 HD
ATOM    281  HN  UNK N   1      34.003  16.374   3.972  1.00  0.00     0.174 HD
HETATM  282  H   UNK N   1      34.231  12.981   2.057  0.00  0.00     0.174 HD
HETATM  283  H   UNK N   1      32.821  13.558   2.533  0.00  0.00     0.174 HD
HETATM  284  H   UNK N   1      35.477  13.165   4.658  0.00  0.00     0.177 HD
ENDBRANCH 275 276
ENDBRANCH 274 275
ENDBRANCH 273 274
ENDBRANCH   1 273
BRANCH  67 285
HETATM  285  C   UNK N   1      34.836  10.676  11.957  0.00  0.00     0.045 C 
BRANCH 285 286
HETATM  286  C   UNK N   1      33.825  10.437  13.069  0.00  0.00     0.076 C 
BRANCH 286 287
HETATM  287  S   UNK N   1      34.192  11.485  14.514  0.00  0.00    -0.173 SA
HETATM  288  C   UNK N   1      35.898  11.795  13.981  0.00  0.00     0.089 C 
ENDBRANCH 286 287
ENDBRANCH 285 286
ENDBRANCH  67 285
BRANCH  38 289
HETATM  289  C   UNK N   1      22.025  -0.492  -2.952  0.00  0.00     0.199 C 
BRANCH 289 290
HETATM  290  O   UNK N   1      21.854  -1.787  -2.459  0.00  0.00    -0.398 OA
HETATM  291  H   UNK N   1      21.501  -2.578  -2.894  0.00  0.00     0.209 HD
ENDBRANCH 289 290
ENDBRANCH  38 289
BRANCH  63 292
HETATM  292  C   UNK N   1      32.191   6.688  10.082  0.00  0.00     0.144 C 
BRANCH 292 293
HETATM  293  C   UNK N   1      31.951   5.192   9.990  0.00  0.00     0.141 C 
HETATM  294  O   UNK N   1      32.329   4.482  10.905  0.00  0.00    -0.650 OA
BRANCH 293 295
HETATM  295  O   UNK N   1      31.355   4.619   8.932  0.00  0.00    -0.776 OA
HETATM  296  H   UNK N   1      31.140   3.918   8.347  0.00  0.00     0.167 HD
ENDBRANCH 293 295
ENDBRANCH 292 293
ENDBRANCH  63 292
BRANCH  42 297
HETATM  297  C   UNK N   1      25.016   1.932   0.746  0.00  0.00     0.044 C 
BRANCH 297 298
HETATM  298  C   UNK N   1      24.247   2.222   2.023  0.00  0.00     0.105 C 
BRANCH 298 299
HETATM  299  C   UNK N   1      24.625   1.223   3.069  0.00  0.00     0.215 C 
HETATM  300  N   UNK N   1      25.605   0.332   2.826  0.00  0.00    -0.370 N 
HETATM  301  H   UNK N   1      25.757  -0.515   3.304  0.00  0.00     0.159 HD
HETATM  302  H   UNK N   1      26.231   0.549   2.098  0.00  0.00     0.159 HD
HETATM  303  O   UNK N   1      24.037   1.199   4.137  0.00  0.00    -0.274 OA
ENDBRANCH 298 299
ENDBRANCH 297 298
ENDBRANCH  42 297
BRANCH  59 304
HETATM  304  C   UNK N   1      31.571   9.097   5.187  0.00  0.00     0.036 C 
BRANCH 304 305
HETATM  305  C   UNK N   1      31.732  10.608   5.164  0.00  0.00     0.023 C 
BRANCH 305 306
HETATM  306  C   UNK N   1      33.118  11.031   5.621  0.00  0.00     0.138 C 
BRANCH 306 307
HETATM  307  N   UNK N   1      33.068  11.417   6.994  0.00  0.00    -0.227 N 
HETATM  308  C   UNK N   1      32.574  12.681   7.369  0.00  0.00     0.665 C 
HETATM  309  N   UNK N   1      31.938  13.515   6.420  0.00  0.00    -0.235 N 
HETATM  310  N   UNK N   1      32.795  13.108   8.551  0.00  0.00    -0.235 N 
HETATM  311  H   UNK N   1      31.447  14.260   6.004  0.00  0.00     0.174 HD
HETATM  312  H   UNK N   1      32.094  12.970   5.614  0.00  0.00     0.174 HD
HETATM  313  H   UNK N   1      32.457  12.697   9.379  0.00  0.00     0.174 HD
ATOM    314  HN  UNK N   1      33.369  13.946   8.646  1.00  0.00     0.174 HD
HETATM  315  H   UNK N   1      33.383  10.793   7.687  0.00  0.00     0.177 HD
ENDBRANCH 306 307
ENDBRANCH 305 306
ENDBRANCH 304 305
ENDBRANCH  59 304
BRANCH  55 316
HETATM  316  C   UNK N   1      27.607   5.479   6.332  0.00  0.00     0.013 C 
HETATM  317  C   UNK N   1      26.378   6.344   6.535  0.00  0.00     0.012 C 
BRANCH 316 318
HETATM  318  C   UNK N   1      27.149   4.030   6.162  0.00  0.00     0.002 C 
HETATM  319  C   UNK N   1      25.730   3.965   5.640  0.00  0.00     0.005 C 
ENDBRANCH 316 318
ENDBRANCH  55 316
TORSDOF 92
ENDMDL
MODEL 8
REMARK VINA RESULT:      -4.6      3.668     12.723
REMARK WARNING: 32 MAX_TORS EXCEEDED!!!
REMARK  92 active torsions:
REMARK  status: ('A' for Active; 'I' for Inactive)
REMARK       I    between atoms: C_3  and  N_4 
REMARK       I    between atoms: C_3  and  N_5 
REMARK    1  A    between atoms: N_5  and  C_6 
REMARK    2  A    between atoms: C_6  and  C_7 
REMARK    3  A    between atoms: C_7  and  C_8 
REMARK    4  A    between atoms: C_9  and  C_8 
REMARK    5  A    between atoms: C_21  and  C_22 
REMARK    6  A    between atoms: C_22  and  C_23 
REMARK    7  A    between atoms: C_32  and  N_169 
REMARK    8  A    between atoms: C_37  and  C_117 
REMARK    9  A    between atoms: C_45  and  C_46 
REMARK   10  A    between atoms: C_46  and  C_47 
REMARK   11  A    between atoms: C_57  and  C_58 
REMARK   12  A    between atoms: C_58  and  O_59 
REMARK   13  A    between atoms: C_63  and  C_64 
REMARK   14  A    between atoms: C_64  and  C_65 
REMARK   15  A    between atoms: C_65  and  C_66 
REMARK       I    between atoms: C_66  and  N_67 
REMARK   16  A    between atoms: C_81  and  C_113 
REMARK   17  A    between atoms: C_85  and  C_86 
REMARK   18  A    between atoms: C_86  and  C_87 
REMARK   19  A    between atoms: C_87  and  C_88 
REMARK   20  A    between atoms: C_88  and  N_89 
REMARK       I    between atoms: N_89  and  C_90 
REMARK       I    between atoms: C_90  and  N_91 
REMARK   21  A    between atoms: C_97  and  C_98 
REMARK   22  A    between atoms: C_98  and  C_99 
REMARK   23  A    between atoms: C_99  and  O_100 
REMARK   24  A    between atoms: C_105  and  C_106 
REMARK   25  A    between atoms: C_106  and  C_107 
REMARK   26  A    between atoms: C_107  and  S_108 
REMARK   27  A    between atoms: C_113  and  C_115 
REMARK       I    between atoms: C_117  and  N_119 
REMARK   28  A    between atoms: C_120  and  N_119 
REMARK   29  A    between atoms: C_120  and  C_121 
REMARK   30  A    between atoms: C_120  and  C_125 
REMARK   31  A    between atoms: C_121  and  C_122 
REMARK       I    between atoms: C_122  and  N_123 
REMARK       I    between atoms: C_125  and  N_127 
REMARK   32  A    between atoms: C_128  and  N_127 
REMARK   33  A    between atoms: C_128  and  C_129 
REMARK   34  A    between atoms: C_128  and  C_131 
REMARK   35  A    between atoms: C_129  and  O_130 
REMARK       I    between atoms: C_131  and  N_133 
REMARK   36  A    between atoms: C_134  and  N_133 
REMARK   37  A    between atoms: C_134  and  C_135 
REMARK   38  A    between atoms: C_134  and  C_142 
REMARK   39  A    between atoms: C_135  and  C_136 
REMARK       I    between atoms: C_142  and  N_144 
REMARK   40  A    between atoms: C_145  and  N_144 
REMARK   41  A    between atoms: C_145  and  C_146 
REMARK   42  A    between atoms: C_145  and  C_154 
REMARK   43  A    between atoms: C_146  and  C_147 
REMARK   44  A    between atoms: C_147  and  C_148 
REMARK   45  A    between atoms: C_148  and  N_149 
REMARK       I    between atoms: N_149  and  C_150 
REMARK       I    between atoms: C_150  and  N_151 
REMARK       I    between atoms: C_154  and  N_156 
REMARK   46  A    between atoms: C_157  and  N_156 
REMARK   47  A    between atoms: C_157  and  C_158 
REMARK   48  A    between atoms: C_157  and  C_166 
REMARK   49  A    between atoms: C_158  and  C_159 
REMARK   50  A    between atoms: C_162  and  O_163 
REMARK   51  A    between atoms: C_166  and  O_167 
REMARK       I    between atoms: N_169  and  C_170 
REMARK   52  A    between atoms: C_170  and  C_172 
REMARK   53  A    between atoms: C_172  and  C_173 
REMARK   54  A    between atoms: C_172  and  N_175 
REMARK   55  A    between atoms: C_173  and  O_174 
REMARK       I    between atoms: N_175  and  C_176 
REMARK   56  A    between atoms: C_176  and  C_178 
REMARK   57  A    between atoms: C_178  and  C_179 
REMARK   58  A    between atoms: C_178  and  N_181 
REMARK   59  A    between atoms: C_179  and  O_180 
REMARK       I    between atoms: N_181  and  C_182 
REMARK   60  A    between atoms: C_182  and  C_184 
REMARK   61  A    between atoms: C_184  and  C_185 
REMARK   62  A    between atoms: C_184  and  N_193 
REMARK   63  A    between atoms: C_185  and  C_186 
REMARK   64  A    between atoms: C_186  and  C_187 
REMARK   65  A    between atoms: C_187  and  N_188 
REMARK       I    between atoms: N_188  and  C_189 
REMARK       I    between atoms: C_189  and  N_190 
REMARK       I    between atoms: N_193  and  C_194 
REMARK   66  A    between atoms: C_194  and  C_196 
REMARK   67  A    between atoms: C_196  and  C_197 
REMARK   68  A    between atoms: C_196  and  N_205 
REMARK   69  A    between atoms: C_197  and  C_198 
REMARK   70  A    between atoms: C_198  and  C_199 
REMARK   71  A    between atoms: C_199  and  N_200 
REMARK       I    between atoms: N_200  and  C_201 
REMARK       I    between atoms: C_201  and  N_202 
REMARK       I    between atoms: N_205  and  C_206 
REMARK   72  A    between atoms: C_206  and  C_208 
REMARK   73  A    between atoms: C_208  and  C_209 
REMARK   74  A    between atoms: C_208  and  N_213 
REMARK   75  A    between atoms: C_209  and  C_210 
REMARK       I    between atoms: N_213  and  C_214 
REMARK   76  A    between atoms: C_214  and  C_216 
REMARK   77  A    between atoms: C_216  and  C_217 
REMARK   78  A    between atoms: C_216  and  N_219 
REMARK   79  A    between atoms: C_217  and  O_218 
REMARK       I    between atoms: N_219  and  C_220 
REMARK   80  A    between atoms: C_220  and  C_222 
REMARK   81  A    between atoms: C_222  and  C_223 
REMARK   82  A    between atoms: C_222  and  N_231 
REMARK   83  A    between atoms: C_223  and  C_224 
REMARK   84  A    between atoms: C_224  and  C_225 
REMARK   85  A    between atoms: C_225  and  N_226 
REMARK       I    between atoms: N_226  and  C_227 
REMARK       I    between atoms: C_227  and  N_228 
REMARK       I    between atoms: N_231  and  C_232 
REMARK   86  A    between atoms: C_234  and  C_232 
REMARK       I    between atoms: N_238  and  C_239 
REMARK   87  A    between atoms: C_239  and  C_241 
REMARK   88  A    between atoms: C_241  and  N_243 
REMARK       I    between atoms: N_243  and  C_244 
REMARK   89  A    between atoms: C_244  and  C_246 
REMARK   90  A    between atoms: C_246  and  N_247 
REMARK   91  A    between atoms: C_246  and  C_248 
REMARK   92  A    between atoms: C_248  and  O_250 
ROOT
HETATM    1  C   UNK N   1      36.817  13.462   7.420  0.00  0.00     0.176 C 
HETATM    2  N   UNK N   1      38.218  13.712   7.675  0.00  0.00    -0.346 N 
HETATM    3  C   UNK N   1      39.234  13.281   6.884  0.00  0.00     0.236 C 
HETATM    4  O   UNK N   1      40.381  13.556   7.194  0.00  0.00    -0.272 OA
HETATM    5  C   UNK N   1      39.001  12.568   5.587  0.00  0.00     0.225 C 
HETATM    6  N   UNK N   1      38.426  11.258   5.747  0.00  0.00    -0.351 N 
HETATM    7  C   UNK N   1      37.220  10.964   5.209  0.00  0.00     0.235 C 
HETATM    8  O   UNK N   1      36.559  11.831   4.659  0.00  0.00    -0.272 OA
HETATM    9  C   UNK N   1      36.721   9.564   5.222  0.00  0.00     0.225 C 
HETATM   10  N   UNK N   1      37.212   8.893   4.045  0.00  0.00    -0.351 N 
HETATM   11  C   UNK N   1      36.546   8.892   2.866  0.00  0.00     0.241 C 
HETATM   12  O   UNK N   1      37.039   8.316   1.909  0.00  0.00    -0.271 OA
HETATM   13  C   UNK N   1      35.204   9.557   2.708  0.00  0.00     0.180 C 
HETATM   14  N   UNK N   1      34.293   8.549   2.224  0.00  0.00    -0.346 N 
HETATM   15  C   UNK N   1      33.057   8.880   1.784  0.00  0.00     0.242 C 
HETATM   16  O   UNK N   1      32.605   9.989   1.971  0.00  0.00    -0.271 OA
HETATM   17  C   UNK N   1      32.377   8.055   0.797  0.00  0.00     0.186 C 
HETATM   18  C   UNK N   1      32.819   6.642   0.571  0.00  0.00     0.120 C 
HETATM   19  S   UNK N   1      31.754   5.573   1.557  0.00  0.00    -0.095 SA
HETATM   20  S   UNK N   1      29.905   6.667   1.241  0.00  0.00    -0.095 SA
HETATM   21  C   UNK N   1      29.748   6.624  -0.583  0.00  0.00     0.120 C 
HETATM   22  C   UNK N   1      30.524   5.589  -1.394  0.00  0.00     0.186 C 
HETATM   23  N   UNK N   1      30.567   4.281  -0.778  0.00  0.00    -0.346 N 
HETATM   24  C   UNK N   1      30.423   3.147  -1.502  0.00  0.00     0.236 C 
HETATM   25  O   UNK N   1      30.426   2.067  -0.933  0.00  0.00    -0.272 OA
HETATM   26  C   UNK N   1      30.256   3.200  -2.992  0.00  0.00     0.225 C 
HETATM   27  N   UNK N   1      29.259   4.189  -3.335  0.00  0.00    -0.351 N 
HETATM   28  C   UNK N   1      28.255   4.005  -4.221  0.00  0.00     0.240 C 
HETATM   29  O   UNK N   1      27.449   4.909  -4.393  0.00  0.00    -0.271 OA
HETATM   30  C   UNK N   1      28.085   2.698  -4.950  0.00  0.00     0.177 C 
HETATM   31  N   UNK N   1      26.918   2.777  -5.796  0.00  0.00    -0.346 N 
HETATM   32  C   UNK N   1      25.822   2.014  -5.581  0.00  0.00     0.236 C 
HETATM   33  O   UNK N   1      24.824   2.210  -6.253  0.00  0.00    -0.272 OA
HETATM   34  C   UNK N   1      25.796   0.954  -4.515  0.00  0.00     0.225 C 
HETATM   35  N   UNK N   1      25.115  -0.204  -5.035  0.00  0.00    -0.350 N 
HETATM   36  C   UNK N   1      24.288  -1.032  -4.340  0.00  0.00     0.242 C 
HETATM   37  O   UNK N   1      23.764  -1.950  -4.950  0.00  0.00    -0.271 OA
HETATM   38  C   UNK N   1      24.013  -0.931  -2.838  0.00  0.00     0.200 C 
HETATM   39  N   UNK N   1      24.388   0.327  -2.224  0.00  0.00    -0.344 N 
HETATM   40  C   UNK N   1      24.197   0.632  -0.902  0.00  0.00     0.241 C 
HETATM   41  O   UNK N   1      23.648  -0.163  -0.155  0.00  0.00    -0.271 OA
HETATM   42  C   UNK N   1      24.702   1.944  -0.345  0.00  0.00     0.177 C 
HETATM   43  N   UNK N   1      25.523   2.493  -1.405  0.00  0.00    -0.346 N 
HETATM   44  C   UNK N   1      26.784   2.970  -1.335  0.00  0.00     0.240 C 
HETATM   45  O   UNK N   1      27.567   2.549  -2.151  0.00  0.00    -0.271 OA
HETATM   46  C   UNK N   1      27.337   3.750  -0.180  0.00  0.00     0.172 C 
HETATM   47  C   UNK N   1      26.282   4.664   0.435  0.00  0.00     0.042 C 
HETATM   48  N   UNK N   1      27.896   2.786   0.727  0.00  0.00    -0.347 N 
HETATM   49  C   UNK N   1      28.317   2.990   1.988  0.00  0.00     0.236 C 
HETATM   50  O   UNK N   1      28.707   2.033   2.634  0.00  0.00    -0.272 OA
HETATM   51  C   UNK N   1      28.310   4.328   2.628  0.00  0.00     0.225 C 
HETATM   52  N   UNK N   1      29.585   4.438   3.265  0.00  0.00    -0.351 N 
HETATM   53  C   UNK N   1      29.826   5.194   4.343  0.00  0.00     0.241 C 
HETATM   54  O   UNK N   1      30.931   5.131   4.857  0.00  0.00    -0.271 OA
HETATM   55  C   UNK N   1      28.774   6.117   4.910  0.00  0.00     0.180 C 
HETATM   56  N   UNK N   1      29.332   7.453   5.063  0.00  0.00    -0.346 N 
HETATM   57  C   UNK N   1      30.311   7.734   5.959  0.00  0.00     0.241 C 
HETATM   58  O   UNK N   1      30.656   6.888   6.768  0.00  0.00    -0.271 OA
HETATM   59  C   UNK N   1      30.993   9.073   5.970  0.00  0.00     0.176 C 
HETATM   60  N   UNK N   1      31.928   9.115   7.072  0.00  0.00    -0.346 N 
HETATM   61  C   UNK N   1      32.972   8.260   7.238  0.00  0.00     0.241 C 
HETATM   62  O   UNK N   1      33.341   7.529   6.328  0.00  0.00    -0.271 OA
HETATM   63  C   UNK N   1      33.568   8.092   8.600  0.00  0.00     0.186 C 
HETATM   64  N   UNK N   1      34.226   9.277   9.106  0.00  0.00    -0.346 N 
HETATM   65  C   UNK N   1      33.622  10.461   9.380  0.00  0.00     0.241 C 
HETATM   66  O   UNK N   1      32.420  10.607   9.241  0.00  0.00    -0.271 OA
HETATM   67  C   UNK N   1      34.453  11.636   9.781  0.00  0.00     0.177 C 
HETATM   68  N   UNK N   1      35.407  11.926   8.731  0.00  0.00    -0.346 N 
HETATM   69  C   UNK N   1      36.138  13.063   8.695  0.00  0.00     0.241 C 
HETATM   70  O   UNK N   1      36.140  13.830   9.648  0.00  0.00    -0.271 OA
HETATM   71  H   UNK N   1      38.451  14.232   8.478  0.00  0.00     0.163 HD
HETATM   72  H   UNK N   1      38.916  10.569   6.251  0.00  0.00     0.163 HD
HETATM   73  H   UNK N   1      38.070   8.415   4.100  0.00  0.00     0.163 HD
HETATM   74  H   UNK N   1      34.575   7.606   2.213  0.00  0.00     0.163 HD
HETATM   75  H   UNK N   1      30.705   4.214   0.194  0.00  0.00     0.163 HD
HETATM   76  H   UNK N   1      29.316   5.064  -2.888  0.00  0.00     0.163 HD
HETATM   77  H   UNK N   1      26.920   3.407  -6.553  0.00  0.00     0.163 HD
HETATM   78  H   UNK N   1      25.261  -0.416  -5.986  0.00  0.00     0.163 HD
HETATM   79  H   UNK N   1      24.806   1.009  -2.797  0.00  0.00     0.163 HD
HETATM   80  H   UNK N   1      25.105   2.523  -2.296  0.00  0.00     0.163 HD
HETATM   81  H   UNK N   1      27.982   1.866   0.386  0.00  0.00     0.163 HD
HETATM   82  H   UNK N   1      30.334   3.923   2.887  0.00  0.00     0.163 HD
HETATM   83  H   UNK N   1      28.986   8.179   4.495  0.00  0.00     0.163 HD
HETATM   84  H   UNK N   1      31.799   9.814   7.752  0.00  0.00     0.163 HD
HETATM   85  H   UNK N   1      35.196   9.220   9.265  0.00  0.00     0.163 HD
HETATM   86  H   UNK N   1      35.528  11.265   8.010  0.00  0.00     0.163 HD
ENDROOT
BRANCH  17  87
HETATM   87  N   UNK N   1      31.954   8.838  -0.344  0.00  0.00    -0.345 N 
HETATM   88  C   UNK N   1      30.784   9.528  -0.451  0.00  0.00     0.243 C 
HETATM   89  O   UNK N   1      30.322   9.690  -1.567  0.00  0.00    -0.271 OA
HETATM   90  H   UNK N   1      32.569   8.878  -1.112  0.00  0.00     0.163 HD
BRANCH  88  91
HETATM   91  C   UNK N   1      29.947   9.976   0.726  0.00  0.00     0.200 C 
BRANCH  91  92
HETATM   92  C   UNK N   1      30.503  11.113   1.581  0.00  0.00     0.199 C 
BRANCH  92  93
HETATM   93  O   UNK N   1      30.943  12.167   0.778  0.00  0.00    -0.398 OA
HETATM   94  H   UNK N   1      31.293  12.079  -0.122  0.00  0.00     0.209 HD
ENDBRANCH  92  93
ENDBRANCH  91  92
BRANCH  91  95
HETATM   95  N   UNK N   1      28.637  10.395   0.304  0.00  0.00    -0.344 N 
HETATM   96  C   UNK N   1      27.627  10.469   1.188  0.00  0.00     0.243 C 
HETATM   97  O   UNK N   1      26.602  11.050   0.876  0.00  0.00    -0.271 OA
HETATM   98  H   UNK N   1      28.480  10.629  -0.638  0.00  0.00     0.163 HD
BRANCH  96  99
HETATM   99  C   UNK N   1      27.793   9.864   2.553  0.00  0.00     0.200 C 
BRANCH  99 100
HETATM  100  C   UNK N   1      27.810  10.717   3.812  0.00  0.00     0.199 C 
BRANCH 100 101
HETATM  101  O   UNK N   1      27.702  12.067   3.485  0.00  0.00    -0.398 OA
HETATM  102  H   UNK N   1      26.999  12.731   3.557  0.00  0.00     0.209 HD
ENDBRANCH 100 101
ENDBRANCH  99 100
BRANCH  99 103
HETATM  103  N   UNK N   1      27.385   8.480   2.712  0.00  0.00    -0.344 N 
HETATM  104  C   UNK N   1      26.119   8.018   2.900  0.00  0.00     0.241 C 
HETATM  105  O   UNK N   1      25.946   6.827   3.092  0.00  0.00    -0.271 OA
HETATM  106  H   UNK N   1      28.100   7.804   2.680  0.00  0.00     0.163 HD
BRANCH 104 107
HETATM  107  C   UNK N   1      24.927   8.924   2.942  0.00  0.00     0.176 C 
BRANCH 107 108
HETATM  108  C   UNK N   1      24.862   9.611   4.294  0.00  0.00     0.036 C 
BRANCH 108 109
HETATM  109  C   UNK N   1      24.057   8.764   5.243  0.00  0.00     0.023 C 
BRANCH 109 110
HETATM  110  C   UNK N   1      23.057   9.576   6.047  0.00  0.00     0.138 C 
BRANCH 110 111
HETATM  111  N   UNK N   1      23.326  10.991   5.994  0.00  0.00    -0.227 N 
HETATM  112  C   UNK N   1      23.339  11.821   7.142  0.00  0.00     0.665 C 
HETATM  113  N   UNK N   1      23.343  11.266   8.443  0.00  0.00    -0.235 N 
HETATM  114  N   UNK N   1      23.390  13.087   6.993  0.00  0.00    -0.235 N 
HETATM  115  H   UNK N   1      23.159  11.157   9.403  0.00  0.00     0.174 HD
HETATM  116  H   UNK N   1      23.888  10.462   8.282  0.00  0.00     0.174 HD
HETATM  117  H   UNK N   1      24.218  13.534   6.702  0.00  0.00     0.174 HD
ATOM    118  HN  UNK N   1      22.558  13.647   7.179  1.00  0.00     0.174 HD
HETATM  119  H   UNK N   1      23.510  11.401   5.118  0.00  0.00     0.177 HD
ENDBRANCH 110 111
ENDBRANCH 109 110
ENDBRANCH 108 109
ENDBRANCH 107 108
BRANCH 107 120
HETATM  120  N   UNK N   1      23.716   8.198   2.582  0.00  0.00    -0.346 N 
HETATM  121  C   UNK N   1      22.727   8.790   1.863  0.00  0.00     0.241 C 
HETATM  122  O   UNK N   1      21.770   8.133   1.483  0.00  0.00    -0.271 OA
HETATM  123  H   UNK N   1      23.613   7.261   2.866  0.00  0.00     0.163 HD
BRANCH 121 124
HETATM  124  C   UNK N   1      22.781  10.273   1.649  0.00  0.00     0.176 C 
BRANCH 124 125
HETATM  125  C   UNK N   1      22.606  10.778   0.231  0.00  0.00     0.036 C 
BRANCH 125 126
HETATM  126  C   UNK N   1      23.683  10.144  -0.632  0.00  0.00     0.023 C 
BRANCH 126 127
HETATM  127  C   UNK N   1      23.081   9.197  -1.651  0.00  0.00     0.138 C 
BRANCH 127 128
HETATM  128  N   UNK N   1      23.782   7.940  -1.615  0.00  0.00    -0.227 N 
HETATM  129  C   UNK N   1      24.629   7.534  -2.678  0.00  0.00     0.665 C 
HETATM  130  N   UNK N   1      25.304   6.298  -2.602  0.00  0.00    -0.235 N 
HETATM  131  N   UNK N   1      24.755   8.262  -3.727  0.00  0.00    -0.235 N 
HETATM  132  H   UNK N   1      26.254   6.107  -2.777  0.00  0.00     0.174 HD
HETATM  133  H   UNK N   1      24.754   5.525  -2.341  0.00  0.00     0.174 HD
HETATM  134  H   UNK N   1      24.355   9.095  -4.068  0.00  0.00     0.174 HD
ATOM    135  HN  UNK N   1      25.447   7.881  -4.373  1.00  0.00     0.174 HD
HETATM  136  H   UNK N   1      23.670   7.349  -0.836  0.00  0.00     0.177 HD
ENDBRANCH 127 128
ENDBRANCH 126 127
ENDBRANCH 125 126
ENDBRANCH 124 125
BRANCH 124 137
HETATM  137  N   UNK N   1      21.826  10.801   2.585  0.00  0.00    -0.346 N 
HETATM  138  C   UNK N   1      22.005  12.007   3.181  0.00  0.00     0.241 C 
HETATM  139  O   UNK N   1      23.120  12.497   3.288  0.00  0.00    -0.271 OA
HETATM  140  H   UNK N   1      21.022  10.275   2.798  0.00  0.00     0.163 HD
BRANCH 138 141
HETATM  141  C   UNK N   1      20.816  12.870   3.396  0.00  0.00     0.177 C 
BRANCH 141 142
HETATM  142  C   UNK N   1      19.674  12.135   2.698  0.00  0.00     0.038 C 
BRANCH 142 143
HETATM  143  C   UNK N   1      19.014  12.896   1.572  0.00  0.00    -0.020 C 
HETATM  144  C   UNK N   1      19.099  12.097   0.287  0.00  0.00     0.009 C 
HETATM  145  C   UNK N   1      19.736  14.217   1.389  0.00  0.00     0.009 C 
ENDBRANCH 142 143
ENDBRANCH 141 142
BRANCH 141 146
HETATM  146  N   UNK N   1      20.462  13.179   4.774  0.00  0.00    -0.346 N 
HETATM  147  C   UNK N   1      20.597  14.321   5.509  0.00  0.00     0.243 C 
HETATM  148  O   UNK N   1      20.205  14.300   6.666  0.00  0.00    -0.271 OA
HETATM  149  H   UNK N   1      20.053  12.430   5.264  0.00  0.00     0.163 HD
BRANCH 147 150
HETATM  150  C   UNK N   1      21.201  15.618   4.974  0.00  0.00     0.200 C 
BRANCH 150 151
HETATM  151  C   UNK N   1      20.128  16.580   4.466  0.00  0.00     0.199 C 
BRANCH 151 152
HETATM  152  O   UNK N   1      18.882  15.956   4.414  0.00  0.00    -0.398 OA
HETATM  153  H   UNK N   1      18.040  16.438   4.376  0.00  0.00     0.209 HD
ENDBRANCH 151 152
ENDBRANCH 150 151
BRANCH 150 154
HETATM  154  N   UNK N   1      22.254  15.498   3.973  0.00  0.00    -0.344 N 
HETATM  155  C   UNK N   1      23.454  16.131   3.924  0.00  0.00     0.241 C 
HETATM  156  O   UNK N   1      24.185  15.930   2.966  0.00  0.00    -0.271 OA
HETATM  157  H   UNK N   1      22.072  14.873   3.234  0.00  0.00     0.163 HD
BRANCH 155 158
HETATM  158  C   UNK N   1      23.923  17.038   5.020  0.00  0.00     0.176 C 
BRANCH 158 159
HETATM  159  C   UNK N   1      23.227  18.393   4.928  0.00  0.00     0.036 C 
BRANCH 159 160
HETATM  160  C   UNK N   1      23.932  19.248   3.886  0.00  0.00     0.023 C 
BRANCH 160 161
HETATM  161  C   UNK N   1      22.940  20.076   3.089  0.00  0.00     0.138 C 
BRANCH 161 162
HETATM  162  N   UNK N   1      21.651  19.432   3.060  0.00  0.00    -0.227 N 
HETATM  163  C   UNK N   1      20.557  19.998   2.353  0.00  0.00     0.665 C 
HETATM  164  N   UNK N   1      20.671  21.275   1.758  0.00  0.00    -0.235 N 
HETATM  165  N   UNK N   1      19.450  19.359   2.272  0.00  0.00    -0.235 N 
HETATM  166  H   UNK N   1      19.994  21.679   1.168  0.00  0.00     0.174 HD
HETATM  167  H   UNK N   1      21.484  21.797   1.946  0.00  0.00     0.174 HD
HETATM  168  H   UNK N   1      19.164  18.763   3.002  0.00  0.00     0.174 HD
ATOM    169  HN  UNK N   1      18.861  19.469   1.447  1.00  0.00     0.174 HD
HETATM  170  H   UNK N   1      21.526  18.582   3.541  0.00  0.00     0.177 HD
ENDBRANCH 161 162
ENDBRANCH 160 161
ENDBRANCH 159 160
ENDBRANCH 158 159
BRANCH 158 171
HETATM  171  N   UNK N   1      25.323  17.237   4.838  0.00  0.00    -0.346 N 
HETATM  172  C   UNK N   1      26.306  16.692   5.588  0.00  0.00     0.241 C 
HETATM  173  O   UNK N   1      26.054  15.945   6.523  0.00  0.00    -0.271 OA
HETATM  174  H   UNK N   1      25.600  17.825   4.098  0.00  0.00     0.163 HD
BRANCH 172 175
HETATM  175  C   UNK N   1      27.708  17.150   5.311  0.00  0.00     0.179 C 
HETATM  176  C   UNK N   1      27.813  17.553   3.850  0.00  0.00     0.037 C 
HETATM  177  C   UNK N   1      27.457  19.039   3.797  0.00  0.00     0.022 C 
HETATM  178  C   UNK N   1      27.621  19.569   5.216  0.00  0.00     0.127 C 
HETATM  179  N   UNK N   1      27.834  18.404   6.023  0.00  0.00    -0.337 N 
HETATM  180  C   UNK N   1      28.083  18.463   7.363  0.00  0.00     0.243 C 
HETATM  181  O   UNK N   1      28.009  19.538   7.954  0.00  0.00    -0.271 OA
BRANCH 180 182
HETATM  182  C   UNK N   1      28.654  17.250   8.058  0.00  0.00     0.172 C 
HETATM  183  C   UNK N   1      27.966  16.904   9.374  0.00  0.00     0.042 C 
BRANCH 182 184
HETATM  184  N   UNK N   1      30.051  17.600   8.251  0.00  0.00    -0.346 N 
HETATM  185  C   UNK N   1      31.031  17.132   7.424  0.00  0.00     0.243 C 
HETATM  186  O   UNK N   1      30.755  16.723   6.305  0.00  0.00    -0.271 OA
HETATM  187  H   UNK N   1      30.297  18.192   8.998  0.00  0.00     0.163 HD
BRANCH 185 188
HETATM  188  C   UNK N   1      32.402  16.849   7.980  0.00  0.00     0.196 C 
BRANCH 188 189
HETATM  189  N   UNK N   1      33.436  17.553   7.234  0.00  0.00    -0.417 N 
HETATM  190  H   UNK N   1      34.435  17.729   7.338  0.00  0.00     0.150 HD
HETATM  191  H   UNK N   1      33.064  17.979   6.384  0.00  0.00     0.150 HD
ENDBRANCH 188 189
BRANCH 188 192
HETATM  192  C   UNK N   1      32.756  15.380   8.156  0.00  0.00     0.145 C 
HETATM  193  C   UNK N   1      32.762  15.059   9.641  0.00  0.00     0.042 C 
BRANCH 192 194
HETATM  194  O   UNK N   1      31.801  14.571   7.539  0.00  0.00    -0.393 OA
HETATM  195  H   UNK N   1      31.808  13.732   7.051  0.00  0.00     0.210 HD
ENDBRANCH 192 194
ENDBRANCH 188 192
ENDBRANCH 185 188
ENDBRANCH 182 184
ENDBRANCH 180 182
ENDBRANCH 172 175
ENDBRANCH 158 171
ENDBRANCH 155 158
ENDBRANCH 150 154
ENDBRANCH 147 150
ENDBRANCH 141 146
ENDBRANCH 138 141
ENDBRANCH 124 137
ENDBRANCH 121 124
ENDBRANCH 107 120
ENDBRANCH 104 107
ENDBRANCH  99 103
ENDBRANCH  96  99
ENDBRANCH  91  95
ENDBRANCH  88  91
ENDBRANCH  17  87
BRANCH  13 196
HETATM  196  C   UNK N   1      35.286  10.569   1.567  0.00  0.00     0.073 C 
BRANCH 196 197
HETATM  197  C   UNK N   1      36.545  11.231   1.201  0.00  0.00    -0.056 A 
HETATM  198  C   UNK N   1      37.212  10.827   0.049  0.00  0.00     0.007 A 
HETATM  199  C   UNK N   1      38.247  11.609  -0.456  0.00  0.00     0.001 A 
HETATM  200  C   UNK N   1      38.615  12.794   0.190  0.00  0.00     0.000 A 
HETATM  201  C   UNK N   1      37.942  13.202   1.344  0.00  0.00     0.001 A 
HETATM  202  C   UNK N   1      36.888  12.432   1.834  0.00  0.00     0.007 A 
ENDBRANCH 196 197
ENDBRANCH  13 196
BRANCH  22 203
HETATM  203  C   UNK N   1      31.814   6.012  -2.074  0.00  0.00     0.242 C 
HETATM  204  O   UNK N   1      32.877   5.843  -1.497  0.00  0.00    -0.271 OA
HETATM  205  N   UNK N   1      31.822   6.539  -3.330  0.00  0.00    -0.346 N 
HETATM  206  H   UNK N   1      32.686   6.824  -3.709  0.00  0.00     0.163 HD
BRANCH 205 207
HETATM  207  C   UNK N   1      30.630   6.705  -4.141  0.00  0.00     0.185 C 
BRANCH 207 208
HETATM  208  C   UNK N   1      29.914   8.058  -4.074  0.00  0.00     0.137 C 
BRANCH 208 209
HETATM  209  C   UNK N   1      28.418   8.105  -4.050  0.00  0.00     0.217 C 
HETATM  210  N   UNK N   1      27.752   8.001  -5.215  0.00  0.00    -0.370 N 
HETATM  211  H   UNK N   1      27.438   8.707  -5.826  0.00  0.00     0.159 HD
HETATM  212  H   UNK N   1      27.547   7.081  -5.499  0.00  0.00     0.159 HD
HETATM  213  O   UNK N   1      27.798   8.209  -3.004  0.00  0.00    -0.274 OA
ENDBRANCH 208 209
ENDBRANCH 207 208
BRANCH 207 214
HETATM  214  C   UNK N   1      30.820   6.317  -5.570  0.00  0.00     0.241 C 
HETATM  215  O   UNK N   1      29.833   6.037  -6.229  0.00  0.00    -0.271 OA
HETATM  216  N   UNK N   1      32.042   6.258  -6.156  0.00  0.00    -0.344 N 
HETATM  217  H   UNK N   1      32.067   5.997  -7.105  0.00  0.00     0.163 HD
BRANCH 216 218
HETATM  218  C   UNK N   1      33.316   6.543  -5.522  0.00  0.00     0.200 C 
BRANCH 218 219
HETATM  219  C   UNK N   1      34.285   5.454  -5.919  0.00  0.00     0.199 C 
BRANCH 219 220
HETATM  220  O   UNK N   1      35.337   6.004  -6.656  0.00  0.00    -0.398 OA
HETATM  221  H   UNK N   1      35.804   6.853  -6.710  0.00  0.00     0.209 HD
ENDBRANCH 219 220
ENDBRANCH 218 219
BRANCH 218 222
HETATM  222  C   UNK N   1      33.882   7.845  -5.992  0.00  0.00     0.243 C 
HETATM  223  O   UNK N   1      33.441   8.361  -7.009  0.00  0.00    -0.271 OA
HETATM  224  N   UNK N   1      34.903   8.433  -5.311  0.00  0.00    -0.346 N 
HETATM  225  H   UNK N   1      35.247   8.021  -4.486  0.00  0.00     0.163 HD
BRANCH 224 226
HETATM  226  C   UNK N   1      35.483   9.665  -5.796  0.00  0.00     0.180 C 
BRANCH 226 227
HETATM  227  C   UNK N   1      36.005  10.582  -4.678  0.00  0.00     0.073 C 
BRANCH 227 228
HETATM  228  C   UNK N   1      34.920  11.212  -3.822  0.00  0.00    -0.056 A 
HETATM  229  C   UNK N   1      33.584  11.111  -4.222  0.00  0.00     0.007 A 
HETATM  230  C   UNK N   1      32.569  11.678  -3.440  0.00  0.00     0.001 A 
HETATM  231  C   UNK N   1      32.882  12.344  -2.250  0.00  0.00     0.000 A 
HETATM  232  C   UNK N   1      34.209  12.446  -1.841  0.00  0.00     0.001 A 
HETATM  233  C   UNK N   1      35.215  11.886  -2.623  0.00  0.00     0.007 A 
ENDBRANCH 227 228
ENDBRANCH 226 227
BRANCH 226 234
HETATM  234  C   UNK N   1      36.476   9.420  -6.909  0.00  0.00     0.241 C 
HETATM  235  O   UNK N   1      37.355   8.595  -6.725  0.00  0.00    -0.271 OA
HETATM  236  N   UNK N   1      36.408  10.038  -8.107  0.00  0.00    -0.346 N 
HETATM  237  H   UNK N   1      37.017   9.727  -8.815  0.00  0.00     0.163 HD
BRANCH 236 238
HETATM  238  C   UNK N   1      35.510  11.120  -8.432  0.00  0.00     0.176 C 
BRANCH 238 239
HETATM  239  C   UNK N   1      35.333  11.252  -9.958  0.00  0.00     0.036 C 
BRANCH 239 240
HETATM  240  C   UNK N   1      33.981  10.865 -10.539  0.00  0.00     0.023 C 
BRANCH 240 241
HETATM  241  C   UNK N   1      33.557  11.777 -11.689  0.00  0.00     0.138 C 
BRANCH 241 242
HETATM  242  N   UNK N   1      32.771  12.888 -11.213  0.00  0.00    -0.227 N 
HETATM  243  C   UNK N   1      33.312  14.192 -11.096  0.00  0.00     0.665 C 
HETATM  244  N   UNK N   1      34.620  14.473 -11.555  0.00  0.00    -0.235 N 
HETATM  245  N   UNK N   1      32.595  15.133 -10.609  0.00  0.00    -0.235 N 
HETATM  246  H   UNK N   1      34.938  15.390 -11.716  0.00  0.00     0.174 HD
HETATM  247  H   UNK N   1      35.236  13.722 -11.719  0.00  0.00     0.174 HD
HETATM  248  H   UNK N   1      31.662  14.982 -10.333  0.00  0.00     0.174 HD
ATOM    249  HN  UNK N   1      32.999  16.064 -10.503  1.00  0.00     0.174 HD
HETATM  250  H   UNK N   1      31.832  12.737 -10.962  0.00  0.00     0.177 HD
ENDBRANCH 241 242
ENDBRANCH 240 241
ENDBRANCH 239 240
ENDBRANCH 238 239
BRANCH 238 251
HETATM  251  C   UNK N   1      36.225  12.339  -7.930  0.00  0.00     0.241 C 
HETATM  252  O   UNK N   1      37.286  12.661  -8.437  0.00  0.00    -0.271 OA
HETATM  253  N   UNK N   1      35.605  13.172  -7.065  0.00  0.00    -0.345 N 
HETATM  254  H   UNK N   1      34.881  12.821  -6.498  0.00  0.00     0.163 HD
BRANCH 253 255
HETATM  255  C   UNK N   1      35.975  14.554  -6.953  0.00  0.00     0.186 C 
BRANCH 255 256
HETATM  256  C   UNK N   1      35.681  15.079  -5.559  0.00  0.00     0.074 C 
BRANCH 256 257
HETATM  257  C   UNK N   1      36.137  16.501  -5.426  0.00  0.00    -0.056 A 
HETATM  258  C   UNK N   1      37.501  16.800  -5.487  0.00  0.00     0.010 A 
HETATM  259  C   UNK N   1      37.933  18.128  -5.412  0.00  0.00     0.037 A 
HETATM  260  C   UNK N   1      37.004  19.162  -5.267  0.00  0.00     0.065 A 
HETATM  261  C   UNK N   1      35.641  18.870  -5.194  0.00  0.00     0.037 A 
HETATM  262  C   UNK N   1      35.207  17.545  -5.283  0.00  0.00     0.010 A 
BRANCH 260 263
HETATM  263  O   UNK N   1      37.422  20.435  -5.200  0.00  0.00    -0.361 OA
HETATM  264  H   UNK N   1      38.292  20.718  -5.001  0.00  0.00     0.217 HD
ENDBRANCH 260 263
ENDBRANCH 256 257
ENDBRANCH 255 256
BRANCH 255 265
HETATM  265  C   UNK N   1      35.297  15.322  -8.052  0.00  0.00     0.163 C 
HETATM  266  O   UNK N   1      35.938  15.708  -9.013  0.00  0.00    -0.648 OA
BRANCH 265 267
HETATM  267  O   UNK N   1      33.966  15.546  -8.007  0.00  0.00    -0.775 OA
HETATM  268  H   UNK N   1      33.445  15.534  -8.785  0.00  0.00     0.167 HD
ENDBRANCH 265 267
ENDBRANCH 255 265
ENDBRANCH 253 255
ENDBRANCH 238 251
ENDBRANCH 236 238
ENDBRANCH 226 234
ENDBRANCH 224 226
ENDBRANCH 218 222
ENDBRANCH 216 218
ENDBRANCH 207 214
ENDBRANCH 205 207
ENDBRANCH  22 203
BRANCH  30 269
HETATM  269  C   UNK N   1      29.374   2.369  -5.708  0.00  0.00     0.038 C 
BRANCH 269 270
HETATM  270  C   UNK N   1      29.670   0.911  -5.983  0.00  0.00    -0.020 C 
HETATM  271  C   UNK N   1      31.141   0.780  -6.318  0.00  0.00     0.009 C 
HETATM  272  C   UNK N   1      29.355   0.069  -4.768  0.00  0.00     0.009 C 
ENDBRANCH 269 270
ENDBRANCH  30 269
BRANCH   1 273
HETATM  273  C   UNK N   1      36.122  14.746   6.976  0.00  0.00     0.036 C 
BRANCH 273 274
HETATM  274  C   UNK N   1      36.023  14.874   5.474  0.00  0.00     0.023 C 
BRANCH 274 275
HETATM  275  C   UNK N   1      34.569  14.944   5.083  0.00  0.00     0.138 C 
BRANCH 275 276
HETATM  276  N   UNK N   1      34.379  14.119   3.927  0.00  0.00    -0.227 N 
HETATM  277  C   UNK N   1      33.743  14.578   2.751  0.00  0.00     0.665 C 
HETATM  278  N   UNK N   1      33.372  15.800   2.647  0.00  0.00    -0.235 N 
HETATM  279  N   UNK N   1      33.655  13.723   1.634  0.00  0.00    -0.235 N 
HETATM  280  H   UNK N   1      32.450  16.035   2.395  0.00  0.00     0.174 HD
ATOM    281  HN  UNK N   1      34.046  16.544   2.829  1.00  0.00     0.174 HD
HETATM  282  H   UNK N   1      34.140  13.035   1.124  0.00  0.00     0.174 HD
HETATM  283  H   UNK N   1      32.782  13.869   1.202  0.00  0.00     0.174 HD
HETATM  284  H   UNK N   1      34.704  13.191   3.953  0.00  0.00     0.177 HD
ENDBRANCH 275 276
ENDBRANCH 274 275
ENDBRANCH 273 274
ENDBRANCH   1 273
BRANCH  67 285
HETATM  285  C   UNK N   1      35.091  11.601  11.179  0.00  0.00     0.045 C 
BRANCH 285 286
HETATM  286  C   UNK N   1      34.621  12.655  12.171  0.00  0.00     0.076 C 
BRANCH 286 287
HETATM  287  S   UNK N   1      35.812  12.839  13.537  0.00  0.00    -0.173 SA
HETATM  288  C   UNK N   1      36.173  14.568  13.122  0.00  0.00     0.089 C 
ENDBRANCH 286 287
ENDBRANCH 285 286
ENDBRANCH  67 285
BRANCH  38 289
HETATM  289  C   UNK N   1      22.564  -1.284  -2.538  0.00  0.00     0.199 C 
BRANCH 289 290
HETATM  290  O   UNK N   1      22.538  -2.422  -1.730  0.00  0.00    -0.398 OA
HETATM  291  H   UNK N   1      23.236  -3.067  -1.537  0.00  0.00     0.209 HD
ENDBRANCH 289 290
ENDBRANCH  38 289
BRANCH  63 292
HETATM  292  C   UNK N   1      32.695   7.327   9.627  0.00  0.00     0.144 C 
BRANCH 292 293
HETATM  293  C   UNK N   1      31.179   7.405   9.618  0.00  0.00     0.141 C 
HETATM  294  O   UNK N   1      30.540   6.381   9.784  0.00  0.00    -0.650 OA
BRANCH 293 295
HETATM  295  O   UNK N   1      30.515   8.555   9.419  0.00  0.00    -0.776 OA
HETATM  296  H   UNK N   1      30.241   9.429   9.617  0.00  0.00     0.167 HD
ENDBRANCH 293 295
ENDBRANCH 292 293
ENDBRANCH  63 292
BRANCH  42 297
HETATM  297  C   UNK N   1      25.514   1.553   0.890  0.00  0.00     0.044 C 
BRANCH 297 298
HETATM  298  C   UNK N   1      24.787   1.858   2.188  0.00  0.00     0.105 C 
BRANCH 298 299
HETATM  299  C   UNK N   1      25.233   0.899   3.246  0.00  0.00     0.215 C 
HETATM  300  N   UNK N   1      26.080   1.308   4.210  0.00  0.00    -0.370 N 
HETATM  301  H   UNK N   1      26.638   0.730   4.780  0.00  0.00     0.159 HD
HETATM  302  H   UNK N   1      26.147   2.278   4.360  0.00  0.00     0.159 HD
HETATM  303  O   UNK N   1      24.846  -0.257   3.230  0.00  0.00    -0.274 OA
ENDBRANCH 298 299
ENDBRANCH 297 298
ENDBRANCH  42 297
BRANCH  59 304
HETATM  304  C   UNK N   1      31.662   9.427   4.660  0.00  0.00     0.036 C 
BRANCH 304 305
HETATM  305  C   UNK N   1      32.362  10.763   4.848  0.00  0.00     0.023 C 
BRANCH 305 306
HETATM  306  C   UNK N   1      31.378  11.866   5.200  0.00  0.00     0.138 C 
BRANCH 306 307
HETATM  307  N   UNK N   1      31.230  12.745   4.086  0.00  0.00    -0.227 N 
HETATM  308  C   UNK N   1      30.291  13.792   4.115  0.00  0.00     0.665 C 
HETATM  309  N   UNK N   1      29.615  14.120   5.313  0.00  0.00    -0.235 N 
HETATM  310  N   UNK N   1      29.982  14.379   3.024  0.00  0.00    -0.235 N 
HETATM  311  H   UNK N   1      29.043  14.570   5.976  0.00  0.00     0.174 HD
HETATM  312  H   UNK N   1      29.950  13.386   5.879  0.00  0.00     0.174 HD
HETATM  313  H   UNK N   1      30.598  14.906   2.466  0.00  0.00     0.174 HD
ATOM    314  HN  UNK N   1      29.017  14.297   2.706  1.00  0.00     0.174 HD
HETATM  315  H   UNK N   1      31.791  12.616   3.287  0.00  0.00     0.177 HD
ENDBRANCH 306 307
ENDBRANCH 305 306
ENDBRANCH 304 305
ENDBRANCH  59 304
BRANCH  55 316
HETATM  316  C   UNK N   1      28.059   5.572   6.168  0.00  0.00     0.013 C 
HETATM  317  C   UNK N   1      26.735   6.292   6.343  0.00  0.00     0.012 C 
BRANCH 316 318
HETATM  318  C   UNK N   1      27.784   4.069   6.123  0.00  0.00     0.002 C 
HETATM  319  C   UNK N   1      26.686   3.686   7.090  0.00  0.00     0.005 C 
ENDBRANCH 316 318
ENDBRANCH  55 316
TORSDOF 92
ENDMDL
MODEL 9
REMARK VINA RESULT:      -4.6      3.600     12.562
REMARK WARNING: 32 MAX_TORS EXCEEDED!!!
REMARK  92 active torsions:
REMARK  status: ('A' for Active; 'I' for Inactive)
REMARK       I    between atoms: C_3  and  N_4 
REMARK       I    between atoms: C_3  and  N_5 
REMARK    1  A    between atoms: N_5  and  C_6 
REMARK    2  A    between atoms: C_6  and  C_7 
REMARK    3  A    between atoms: C_7  and  C_8 
REMARK    4  A    between atoms: C_9  and  C_8 
REMARK    5  A    between atoms: C_21  and  C_22 
REMARK    6  A    between atoms: C_22  and  C_23 
REMARK    7  A    between atoms: C_32  and  N_169 
REMARK    8  A    between atoms: C_37  and  C_117 
REMARK    9  A    between atoms: C_45  and  C_46 
REMARK   10  A    between atoms: C_46  and  C_47 
REMARK   11  A    between atoms: C_57  and  C_58 
REMARK   12  A    between atoms: C_58  and  O_59 
REMARK   13  A    between atoms: C_63  and  C_64 
REMARK   14  A    between atoms: C_64  and  C_65 
REMARK   15  A    between atoms: C_65  and  C_66 
REMARK       I    between atoms: C_66  and  N_67 
REMARK   16  A    between atoms: C_81  and  C_113 
REMARK   17  A    between atoms: C_85  and  C_86 
REMARK   18  A    between atoms: C_86  and  C_87 
REMARK   19  A    between atoms: C_87  and  C_88 
REMARK   20  A    between atoms: C_88  and  N_89 
REMARK       I    between atoms: N_89  and  C_90 
REMARK       I    between atoms: C_90  and  N_91 
REMARK   21  A    between atoms: C_97  and  C_98 
REMARK   22  A    between atoms: C_98  and  C_99 
REMARK   23  A    between atoms: C_99  and  O_100 
REMARK   24  A    between atoms: C_105  and  C_106 
REMARK   25  A    between atoms: C_106  and  C_107 
REMARK   26  A    between atoms: C_107  and  S_108 
REMARK   27  A    between atoms: C_113  and  C_115 
REMARK       I    between atoms: C_117  and  N_119 
REMARK   28  A    between atoms: C_120  and  N_119 
REMARK   29  A    between atoms: C_120  and  C_121 
REMARK   30  A    between atoms: C_120  and  C_125 
REMARK   31  A    between atoms: C_121  and  C_122 
REMARK       I    between atoms: C_122  and  N_123 
REMARK       I    between atoms: C_125  and  N_127 
REMARK   32  A    between atoms: C_128  and  N_127 
REMARK   33  A    between atoms: C_128  and  C_129 
REMARK   34  A    between atoms: C_128  and  C_131 
REMARK   35  A    between atoms: C_129  and  O_130 
REMARK       I    between atoms: C_131  and  N_133 
REMARK   36  A    between atoms: C_134  and  N_133 
REMARK   37  A    between atoms: C_134  and  C_135 
REMARK   38  A    between atoms: C_134  and  C_142 
REMARK   39  A    between atoms: C_135  and  C_136 
REMARK       I    between atoms: C_142  and  N_144 
REMARK   40  A    between atoms: C_145  and  N_144 
REMARK   41  A    between atoms: C_145  and  C_146 
REMARK   42  A    between atoms: C_145  and  C_154 
REMARK   43  A    between atoms: C_146  and  C_147 
REMARK   44  A    between atoms: C_147  and  C_148 
REMARK   45  A    between atoms: C_148  and  N_149 
REMARK       I    between atoms: N_149  and  C_150 
REMARK       I    between atoms: C_150  and  N_151 
REMARK       I    between atoms: C_154  and  N_156 
REMARK   46  A    between atoms: C_157  and  N_156 
REMARK   47  A    between atoms: C_157  and  C_158 
REMARK   48  A    between atoms: C_157  and  C_166 
REMARK   49  A    between atoms: C_158  and  C_159 
REMARK   50  A    between atoms: C_162  and  O_163 
REMARK   51  A    between atoms: C_166  and  O_167 
REMARK       I    between atoms: N_169  and  C_170 
REMARK   52  A    between atoms: C_170  and  C_172 
REMARK   53  A    between atoms: C_172  and  C_173 
REMARK   54  A    between atoms: C_172  and  N_175 
REMARK   55  A    between atoms: C_173  and  O_174 
REMARK       I    between atoms: N_175  and  C_176 
REMARK   56  A    between atoms: C_176  and  C_178 
REMARK   57  A    between atoms: C_178  and  C_179 
REMARK   58  A    between atoms: C_178  and  N_181 
REMARK   59  A    between atoms: C_179  and  O_180 
REMARK       I    between atoms: N_181  and  C_182 
REMARK   60  A    between atoms: C_182  and  C_184 
REMARK   61  A    between atoms: C_184  and  C_185 
REMARK   62  A    between atoms: C_184  and  N_193 
REMARK   63  A    between atoms: C_185  and  C_186 
REMARK   64  A    between atoms: C_186  and  C_187 
REMARK   65  A    between atoms: C_187  and  N_188 
REMARK       I    between atoms: N_188  and  C_189 
REMARK       I    between atoms: C_189  and  N_190 
REMARK       I    between atoms: N_193  and  C_194 
REMARK   66  A    between atoms: C_194  and  C_196 
REMARK   67  A    between atoms: C_196  and  C_197 
REMARK   68  A    between atoms: C_196  and  N_205 
REMARK   69  A    between atoms: C_197  and  C_198 
REMARK   70  A    between atoms: C_198  and  C_199 
REMARK   71  A    between atoms: C_199  and  N_200 
REMARK       I    between atoms: N_200  and  C_201 
REMARK       I    between atoms: C_201  and  N_202 
REMARK       I    between atoms: N_205  and  C_206 
REMARK   72  A    between atoms: C_206  and  C_208 
REMARK   73  A    between atoms: C_208  and  C_209 
REMARK   74  A    between atoms: C_208  and  N_213 
REMARK   75  A    between atoms: C_209  and  C_210 
REMARK       I    between atoms: N_213  and  C_214 
REMARK   76  A    between atoms: C_214  and  C_216 
REMARK   77  A    between atoms: C_216  and  C_217 
REMARK   78  A    between atoms: C_216  and  N_219 
REMARK   79  A    between atoms: C_217  and  O_218 
REMARK       I    between atoms: N_219  and  C_220 
REMARK   80  A    between atoms: C_220  and  C_222 
REMARK   81  A    between atoms: C_222  and  C_223 
REMARK   82  A    between atoms: C_222  and  N_231 
REMARK   83  A    between atoms: C_223  and  C_224 
REMARK   84  A    between atoms: C_224  and  C_225 
REMARK   85  A    between atoms: C_225  and  N_226 
REMARK       I    between atoms: N_226  and  C_227 
REMARK       I    between atoms: C_227  and  N_228 
REMARK       I    between atoms: N_231  and  C_232 
REMARK   86  A    between atoms: C_234  and  C_232 
REMARK       I    between atoms: N_238  and  C_239 
REMARK   87  A    between atoms: C_239  and  C_241 
REMARK   88  A    between atoms: C_241  and  N_243 
REMARK       I    between atoms: N_243  and  C_244 
REMARK   89  A    between atoms: C_244  and  C_246 
REMARK   90  A    between atoms: C_246  and  N_247 
REMARK   91  A    between atoms: C_246  and  C_248 
REMARK   92  A    between atoms: C_248  and  O_250 
ROOT
HETATM    1  C   UNK N   1      36.110  13.621   6.633  0.00  0.00     0.176 C 
HETATM    2  N   UNK N   1      37.514  13.952   6.727  0.00  0.00    -0.346 N 
HETATM    3  C   UNK N   1      38.458  13.566   5.830  0.00  0.00     0.236 C 
HETATM    4  O   UNK N   1      39.615  13.909   6.006  0.00  0.00    -0.272 OA
HETATM    5  C   UNK N   1      38.123  12.823   4.574  0.00  0.00     0.225 C 
HETATM    6  N   UNK N   1      37.644  11.485   4.808  0.00  0.00    -0.351 N 
HETATM    7  C   UNK N   1      36.404  11.117   4.412  0.00  0.00     0.235 C 
HETATM    8  O   UNK N   1      35.637  11.937   3.933  0.00  0.00    -0.272 OA
HETATM    9  C   UNK N   1      35.990   9.691   4.492  0.00  0.00     0.225 C 
HETATM   10  N   UNK N   1      36.383   9.032   3.274  0.00  0.00    -0.351 N 
HETATM   11  C   UNK N   1      35.591   8.976   2.177  0.00  0.00     0.241 C 
HETATM   12  O   UNK N   1      36.006   8.414   1.175  0.00  0.00    -0.271 OA
HETATM   13  C   UNK N   1      34.204   9.563   2.165  0.00  0.00     0.180 C 
HETATM   14  N   UNK N   1      33.303   8.500   1.795  0.00  0.00    -0.346 N 
HETATM   15  C   UNK N   1      32.009   8.755   1.494  0.00  0.00     0.242 C 
HETATM   16  O   UNK N   1      31.518   9.840   1.721  0.00  0.00    -0.271 OA
HETATM   17  C   UNK N   1      31.271   7.879   0.597  0.00  0.00     0.186 C 
HETATM   18  C   UNK N   1      31.765   6.490   0.335  0.00  0.00     0.120 C 
HETATM   19  S   UNK N   1      30.879   5.378   1.443  0.00  0.00    -0.095 SA
HETATM   20  S   UNK N   1      28.947   6.363   1.328  0.00  0.00    -0.095 SA
HETATM   21  C   UNK N   1      28.590   6.284  -0.467  0.00  0.00     0.120 C 
HETATM   22  C   UNK N   1      29.328   5.282  -1.351  0.00  0.00     0.186 C 
HETATM   23  N   UNK N   1      29.513   3.987  -0.733  0.00  0.00    -0.346 N 
HETATM   24  C   UNK N   1      29.354   2.836  -1.425  0.00  0.00     0.236 C 
HETATM   25  O   UNK N   1      29.481   1.767  -0.852  0.00  0.00    -0.272 OA
HETATM   26  C   UNK N   1      29.018   2.858  -2.889  0.00  0.00     0.225 C 
HETATM   27  N   UNK N   1      27.936   3.786  -3.125  0.00  0.00    -0.351 N 
HETATM   28  C   UNK N   1      26.850   3.533  -3.891  0.00  0.00     0.240 C 
HETATM   29  O   UNK N   1      25.980   4.388  -3.979  0.00  0.00    -0.271 OA
HETATM   30  C   UNK N   1      26.674   2.208  -4.586  0.00  0.00     0.177 C 
HETATM   31  N   UNK N   1      25.418   2.210  -5.296  0.00  0.00    -0.346 N 
HETATM   32  C   UNK N   1      24.398   1.391  -4.952  0.00  0.00     0.236 C 
HETATM   33  O   UNK N   1      23.321   1.521  -5.509  0.00  0.00    -0.272 OA
HETATM   34  C   UNK N   1      24.550   0.346  -3.881  0.00  0.00     0.225 C 
HETATM   35  N   UNK N   1      23.882  -0.855  -4.312  0.00  0.00    -0.350 N 
HETATM   36  C   UNK N   1      23.186  -1.717  -3.521  0.00  0.00     0.242 C 
HETATM   37  O   UNK N   1      22.651  -2.672  -4.060  0.00  0.00    -0.271 OA
HETATM   38  C   UNK N   1      23.076  -1.609  -1.998  0.00  0.00     0.200 C 
HETATM   39  N   UNK N   1      23.445  -0.323  -1.441  0.00  0.00    -0.344 N 
HETATM   40  C   UNK N   1      23.387  -0.010  -0.108  0.00  0.00     0.241 C 
HETATM   41  O   UNK N   1      22.970  -0.823   0.703  0.00  0.00    -0.271 OA
HETATM   42  C   UNK N   1      23.875   1.336   0.377  0.00  0.00     0.177 C 
HETATM   43  N   UNK N   1      24.540   1.914  -0.773  0.00  0.00    -0.346 N 
HETATM   44  C   UNK N   1      25.773   2.461  -0.849  0.00  0.00     0.240 C 
HETATM   45  O   UNK N   1      26.482   2.072  -1.744  0.00  0.00    -0.271 OA
HETATM   46  C   UNK N   1      26.405   3.288   0.230  0.00  0.00     0.172 C 
HETATM   47  C   UNK N   1      25.376   4.151   0.952  0.00  0.00     0.042 C 
HETATM   48  N   UNK N   1      27.116   2.369   1.076  0.00  0.00    -0.347 N 
HETATM   49  C   UNK N   1      27.663   2.616   2.280  0.00  0.00     0.236 C 
HETATM   50  O   UNK N   1      28.177   1.691   2.886  0.00  0.00    -0.272 OA
HETATM   51  C   UNK N   1      27.652   3.960   2.905  0.00  0.00     0.225 C 
HETATM   52  N   UNK N   1      28.981   4.150   3.394  0.00  0.00    -0.351 N 
HETATM   53  C   UNK N   1      29.299   4.934   4.431  0.00  0.00     0.241 C 
HETATM   54  O   UNK N   1      30.456   4.940   4.818  0.00  0.00    -0.271 OA
HETATM   55  C   UNK N   1      28.266   5.806   5.105  0.00  0.00     0.180 C 
HETATM   56  N   UNK N   1      28.761   7.173   5.183  0.00  0.00    -0.346 N 
HETATM   57  C   UNK N   1      29.816   7.521   5.961  0.00  0.00     0.241 C 
HETATM   58  O   UNK N   1      30.297   6.707   6.733  0.00  0.00    -0.271 OA
HETATM   59  C   UNK N   1      30.418   8.896   5.884  0.00  0.00     0.176 C 
HETATM   60  N   UNK N   1      31.467   9.005   6.873  0.00  0.00    -0.346 N 
HETATM   61  C   UNK N   1      32.570   8.212   6.928  0.00  0.00     0.241 C 
HETATM   62  O   UNK N   1      32.875   7.489   5.989  0.00  0.00    -0.271 OA
HETATM   63  C   UNK N   1      33.322   8.097   8.217  0.00  0.00     0.186 C 
HETATM   64  N   UNK N   1      33.964   9.324   8.635  0.00  0.00    -0.346 N 
HETATM   65  C   UNK N   1      33.329  10.478   8.965  0.00  0.00     0.241 C 
HETATM   66  O   UNK N   1      32.113  10.555   8.961  0.00  0.00    -0.271 OA
HETATM   67  C   UNK N   1      34.132  11.702   9.260  0.00  0.00     0.177 C 
HETATM   68  N   UNK N   1      34.944  12.029   8.107  0.00  0.00    -0.346 N 
HETATM   69  C   UNK N   1      35.601  13.205   7.979  0.00  0.00     0.241 C 
HETATM   70  O   UNK N   1      35.666  13.984   8.920  0.00  0.00    -0.271 OA
HETATM   71  H   UNK N   1      37.805  14.496   7.493  0.00  0.00     0.163 HD
HETATM   72  H   UNK N   1      38.225  10.832   5.260  0.00  0.00     0.163 HD
HETATM   73  H   UNK N   1      37.268   8.603   3.236  0.00  0.00     0.163 HD
HETATM   74  H   UNK N   1      33.635   7.573   1.761  0.00  0.00     0.163 HD
HETATM   75  H   UNK N   1      29.763   3.943   0.218  0.00  0.00     0.163 HD
HETATM   76  H   UNK N   1      27.992   4.669  -2.695  0.00  0.00     0.163 HD
HETATM   77  H   UNK N   1      25.300   2.828  -6.054  0.00  0.00     0.163 HD
HETATM   78  H   UNK N   1      23.933  -1.073  -5.271  0.00  0.00     0.163 HD
HETATM   79  H   UNK N   1      23.758   0.373  -2.063  0.00  0.00     0.163 HD
HETATM   80  H   UNK N   1      24.025   1.908  -1.611  0.00  0.00     0.163 HD
HETATM   81  H   UNK N   1      27.216   1.451   0.736  0.00  0.00     0.163 HD
HETATM   82  H   UNK N   1      29.712   3.672   2.939  0.00  0.00     0.163 HD
HETATM   83  H   UNK N   1      28.314   7.870   4.652  0.00  0.00     0.163 HD
HETATM   84  H   UNK N   1      31.375   9.706   7.558  0.00  0.00     0.163 HD
HETATM   85  H   UNK N   1      34.948   9.323   8.684  0.00  0.00     0.163 HD
HETATM   86  H   UNK N   1      35.022  11.366   7.383  0.00  0.00     0.163 HD
ENDROOT
BRANCH  17  87
HETATM   87  N   UNK N   1      30.680   8.621  -0.496  0.00  0.00    -0.345 N 
HETATM   88  C   UNK N   1      29.509   9.316  -0.449  0.00  0.00     0.243 C 
HETATM   89  O   UNK N   1      28.881   9.438  -1.487  0.00  0.00    -0.271 OA
HETATM   90  H   UNK N   1      31.169   8.625  -1.350  0.00  0.00     0.163 HD
BRANCH  88  91
HETATM   91  C   UNK N   1      28.864   9.817   0.824  0.00  0.00     0.200 C 
BRANCH  91  92
HETATM   92  C   UNK N   1      29.541  10.990   1.530  0.00  0.00     0.199 C 
BRANCH  92  93
HETATM   93  O   UNK N   1      29.635  12.093   0.679  0.00  0.00    -0.398 OA
HETATM   94  H   UNK N   1      29.410  13.006   0.917  0.00  0.00     0.209 HD
ENDBRANCH  92  93
ENDBRANCH  91  92
BRANCH  91  95
HETATM   95  N   UNK N   1      27.502  10.218   0.594  0.00  0.00    -0.344 N 
HETATM   96  C   UNK N   1      26.598  10.162   1.587  0.00  0.00     0.243 C 
HETATM   97  O   UNK N   1      25.526  10.726   1.452  0.00  0.00    -0.271 OA
HETATM   98  H   UNK N   1      27.231  10.537  -0.296  0.00  0.00     0.163 HD
BRANCH  96  99
HETATM   99  C   UNK N   1      26.939   9.434   2.857  0.00  0.00     0.200 C 
BRANCH  99 100
HETATM  100  C   UNK N   1      27.158  10.170   4.170  0.00  0.00     0.199 C 
BRANCH 100 101
HETATM  101  O   UNK N   1      27.086  11.547   3.972  0.00  0.00    -0.398 OA
HETATM  102  H   UNK N   1      26.665  12.282   4.445  0.00  0.00     0.209 HD
ENDBRANCH 100 101
ENDBRANCH  99 100
BRANCH  99 103
HETATM  103  N   UNK N   1      26.517   8.048   2.952  0.00  0.00    -0.344 N 
HETATM  104  C   UNK N   1      25.318   7.587   3.403  0.00  0.00     0.241 C 
HETATM  105  O   UNK N   1      25.142   6.385   3.492  0.00  0.00    -0.271 OA
HETATM  106  H   UNK N   1      27.167   7.369   2.658  0.00  0.00     0.163 HD
BRANCH 104 107
HETATM  107  C   UNK N   1      24.221   8.501   3.855  0.00  0.00     0.176 C 
BRANCH 107 108
HETATM  108  C   UNK N   1      24.445   8.879   5.308  0.00  0.00     0.036 C 
BRANCH 108 109
HETATM  109  C   UNK N   1      23.195   9.516   5.855  0.00  0.00     0.023 C 
BRANCH 109 110
HETATM  110  C   UNK N   1      23.452  10.887   6.453  0.00  0.00     0.138 C 
BRANCH 110 111
HETATM  111  N   UNK N   1      24.431  11.640   5.711  0.00  0.00    -0.227 N 
HETATM  112  C   UNK N   1      24.557  13.047   5.800  0.00  0.00     0.665 C 
HETATM  113  N   UNK N   1      23.899  13.776   6.819  0.00  0.00    -0.235 N 
HETATM  114  N   UNK N   1      25.310  13.658   4.970  0.00  0.00    -0.235 N 
HETATM  115  H   UNK N   1      23.422  14.506   7.274  0.00  0.00     0.174 HD
HETATM  116  H   UNK N   1      23.954  13.125   7.554  0.00  0.00     0.174 HD
HETATM  117  H   UNK N   1      26.291  13.600   5.034  0.00  0.00     0.174 HD
ATOM    118  HN  UNK N   1      24.889  14.216   4.229  1.00  0.00     0.174 HD
HETATM  119  H   UNK N   1      25.043  11.152   5.113  0.00  0.00     0.177 HD
ENDBRANCH 110 111
ENDBRANCH 109 110
ENDBRANCH 108 109
ENDBRANCH 107 108
BRANCH 107 120
HETATM  120  N   UNK N   1      22.917   7.910   3.587  0.00  0.00    -0.346 N 
HETATM  121  C   UNK N   1      22.042   8.496   2.727  0.00  0.00     0.241 C 
HETATM  122  O   UNK N   1      20.999   7.930   2.437  0.00  0.00    -0.271 OA
HETATM  123  H   UNK N   1      22.664   7.072   4.036  0.00  0.00     0.163 HD
BRANCH 121 124
HETATM  124  C   UNK N   1      22.330   9.884   2.241  0.00  0.00     0.176 C 
BRANCH 124 125
HETATM  125  C   UNK N   1      22.087  10.172   0.773  0.00  0.00     0.036 C 
BRANCH 125 126
HETATM  126  C   UNK N   1      23.165   9.463  -0.030  0.00  0.00     0.023 C 
BRANCH 126 127
HETATM  127  C   UNK N   1      22.556   8.536  -1.063  0.00  0.00     0.138 C 
BRANCH 127 128
HETATM  128  N   UNK N   1      23.348   7.338  -1.163  0.00  0.00    -0.227 N 
HETATM  129  C   UNK N   1      23.131   6.391  -2.197  0.00  0.00     0.665 C 
HETATM  130  N   UNK N   1      23.932   5.233  -2.265  0.00  0.00    -0.235 N 
HETATM  131  N   UNK N   1      22.186   6.559  -3.048  0.00  0.00    -0.235 N 
HETATM  132  H   UNK N   1      24.396   4.853  -3.047  0.00  0.00     0.174 HD
HETATM  133  H   UNK N   1      24.044   4.739  -1.421  0.00  0.00     0.174 HD
HETATM  134  H   UNK N   1      21.454   7.205  -3.181  0.00  0.00     0.174 HD
ATOM    135  HN  UNK N   1      22.194   5.840  -3.772  1.00  0.00     0.174 HD
HETATM  136  H   UNK N   1      24.055   7.171  -0.498  0.00  0.00     0.177 HD
ENDBRANCH 127 128
ENDBRANCH 126 127
ENDBRANCH 125 126
ENDBRANCH 124 125
BRANCH 124 137
HETATM  137  N   UNK N   1      21.593  10.734   3.137  0.00  0.00    -0.346 N 
HETATM  138  C   UNK N   1      21.891  12.050   3.278  0.00  0.00     0.241 C 
HETATM  139  O   UNK N   1      23.003  12.477   3.000  0.00  0.00    -0.271 OA
HETATM  140  H   UNK N   1      20.854  10.351   3.661  0.00  0.00     0.163 HD
BRANCH 138 141
HETATM  141  C   UNK N   1      20.773  13.012   3.447  0.00  0.00     0.177 C 
BRANCH 141 142
HETATM  142  C   UNK N   1      19.627  12.418   2.631  0.00  0.00     0.038 C 
BRANCH 142 143
HETATM  143  C   UNK N   1      19.254  13.195   1.390  0.00  0.00    -0.020 C 
HETATM  144  C   UNK N   1      18.951  12.239   0.253  0.00  0.00     0.009 C 
HETATM  145  C   UNK N   1      20.422  14.081   1.001  0.00  0.00     0.009 C 
ENDBRANCH 142 143
ENDBRANCH 141 142
BRANCH 141 146
HETATM  146  N   UNK N   1      20.342  13.293   4.809  0.00  0.00    -0.346 N 
HETATM  147  C   UNK N   1      20.500  14.395   5.600  0.00  0.00     0.243 C 
HETATM  148  O   UNK N   1      20.025  14.359   6.724  0.00  0.00    -0.271 OA
HETATM  149  H   UNK N   1      19.849  12.557   5.238  0.00  0.00     0.163 HD
BRANCH 147 150
HETATM  150  C   UNK N   1      21.227  15.666   5.162  0.00  0.00     0.200 C 
BRANCH 150 151
HETATM  151  C   UNK N   1      20.252  16.758   4.724  0.00  0.00     0.199 C 
BRANCH 151 152
HETATM  152  O   UNK N   1      19.974  16.662   3.361  0.00  0.00    -0.398 OA
HETATM  153  H   UNK N   1      19.156  16.991   2.955  0.00  0.00     0.209 HD
ENDBRANCH 151 152
ENDBRANCH 150 151
BRANCH 150 154
HETATM  154  N   UNK N   1      22.273  15.520   4.158  0.00  0.00    -0.344 N 
HETATM  155  C   UNK N   1      23.432  16.216   4.034  0.00  0.00     0.241 C 
HETATM  156  O   UNK N   1      24.162  15.977   3.084  0.00  0.00    -0.271 OA
HETATM  157  H   UNK N   1      22.120  14.825   3.478  0.00  0.00     0.163 HD
BRANCH 155 158
HETATM  158  C   UNK N   1      23.859  17.241   5.039  0.00  0.00     0.176 C 
BRANCH 158 159
HETATM  159  C   UNK N   1      23.109  18.552   4.819  0.00  0.00     0.036 C 
BRANCH 159 160
HETATM  160  C   UNK N   1      23.763  19.319   3.681  0.00  0.00     0.023 C 
BRANCH 160 161
HETATM  161  C   UNK N   1      22.754  20.177   2.940  0.00  0.00     0.138 C 
BRANCH 161 162
HETATM  162  N   UNK N   1      21.419  19.668   3.134  0.00  0.00    -0.227 N 
HETATM  163  C   UNK N   1      20.417  19.822   2.140  0.00  0.00     0.665 C 
HETATM  164  N   UNK N   1      20.669  20.590   0.980  0.00  0.00    -0.235 N 
HETATM  165  N   UNK N   1      19.267  19.283   2.303  0.00  0.00    -0.235 N 
HETATM  166  H   UNK N   1      20.062  20.651   0.208  0.00  0.00     0.174 HD
HETATM  167  H   UNK N   1      21.511  21.099   0.942  0.00  0.00     0.174 HD
HETATM  168  H   UNK N   1      18.893  19.172   3.207  0.00  0.00     0.174 HD
ATOM    169  HN  UNK N   1      18.736  18.967   1.492  1.00  0.00     0.174 HD
HETATM  170  H   UNK N   1      21.197  19.204   3.973  0.00  0.00     0.177 HD
ENDBRANCH 161 162
ENDBRANCH 160 161
ENDBRANCH 159 160
ENDBRANCH 158 159
BRANCH 158 171
HETATM  171  N   UNK N   1      25.251  17.480   4.840  0.00  0.00    -0.346 N 
HETATM  172  C   UNK N   1      26.260  16.929   5.550  0.00  0.00     0.241 C 
HETATM  173  O   UNK N   1      26.042  16.140   6.459  0.00  0.00    -0.271 OA
HETATM  174  H   UNK N   1      25.499  18.103   4.119  0.00  0.00     0.163 HD
BRANCH 172 175
HETATM  175  C   UNK N   1      27.645  17.430   5.265  0.00  0.00     0.179 C 
HETATM  176  C   UNK N   1      27.720  17.869   3.813  0.00  0.00     0.037 C 
HETATM  177  C   UNK N   1      27.326  19.345   3.798  0.00  0.00     0.022 C 
HETATM  178  C   UNK N   1      27.494  19.848   5.227  0.00  0.00     0.127 C 
HETATM  179  N   UNK N   1      27.748  18.671   6.004  0.00  0.00    -0.337 N 
HETATM  180  C   UNK N   1      28.014  18.706   7.341  0.00  0.00     0.243 C 
HETATM  181  O   UNK N   1      27.919  19.765   7.957  0.00  0.00    -0.271 OA
BRANCH 180 182
HETATM  182  C   UNK N   1      28.625  17.493   8.002  0.00  0.00     0.172 C 
HETATM  183  C   UNK N   1      28.100  17.216   9.406  0.00  0.00     0.042 C 
BRANCH 182 184
HETATM  184  N   UNK N   1      30.047  17.793   8.003  0.00  0.00    -0.346 N 
HETATM  185  C   UNK N   1      30.950  16.997   7.359  0.00  0.00     0.243 C 
HETATM  186  O   UNK N   1      30.587  16.240   6.469  0.00  0.00    -0.271 OA
HETATM  187  H   UNK N   1      30.367  18.592   8.480  0.00  0.00     0.163 HD
BRANCH 185 188
HETATM  188  C   UNK N   1      32.337  16.836   7.924  0.00  0.00     0.196 C 
BRANCH 188 189
HETATM  189  N   UNK N   1      32.300  16.464   9.331  0.00  0.00    -0.417 N 
HETATM  190  H   UNK N   1      32.951  16.074  10.012  0.00  0.00     0.150 HD
HETATM  191  H   UNK N   1      31.383  16.641   9.744  0.00  0.00     0.150 HD
ENDBRANCH 188 189
BRANCH 188 192
HETATM  192  C   UNK N   1      33.288  18.001   7.689  0.00  0.00     0.145 C 
HETATM  193  C   UNK N   1      34.501  17.822   8.585  0.00  0.00     0.042 C 
BRANCH 192 194
HETATM  194  O   UNK N   1      33.722  18.016   6.363  0.00  0.00    -0.393 OA
HETATM  195  H   UNK N   1      33.325  17.833   5.497  0.00  0.00     0.210 HD
ENDBRANCH 192 194
ENDBRANCH 188 192
ENDBRANCH 185 188
ENDBRANCH 182 184
ENDBRANCH 180 182
ENDBRANCH 172 175
ENDBRANCH 158 171
ENDBRANCH 155 158
ENDBRANCH 150 154
ENDBRANCH 147 150
ENDBRANCH 141 146
ENDBRANCH 138 141
ENDBRANCH 124 137
ENDBRANCH 121 124
ENDBRANCH 107 120
ENDBRANCH 104 107
ENDBRANCH  99 103
ENDBRANCH  96  99
ENDBRANCH  91  95
ENDBRANCH  88  91
ENDBRANCH  17  87
BRANCH  13 196
HETATM  196  C   UNK N   1      34.100  10.562   1.014  0.00  0.00     0.073 C 
BRANCH 196 197
HETATM  197  C   UNK N   1      35.050  11.671   0.857  0.00  0.00    -0.056 A 
HETATM  198  C   UNK N   1      34.613  12.974   1.082  0.00  0.00     0.007 A 
HETATM  199  C   UNK N   1      35.545  14.000   1.202  0.00  0.00     0.001 A 
HETATM  200  C   UNK N   1      36.914  13.726   1.097  0.00  0.00     0.000 A 
HETATM  201  C   UNK N   1      37.351  12.419   0.876  0.00  0.00     0.001 A 
HETATM  202  C   UNK N   1      36.419  11.386   0.782  0.00  0.00     0.007 A 
ENDBRANCH 196 197
ENDBRANCH  13 196
BRANCH  22 203
HETATM  203  C   UNK N   1      30.507   5.766  -2.175  0.00  0.00     0.242 C 
HETATM  204  O   UNK N   1      31.639   5.634  -1.735  0.00  0.00    -0.271 OA
HETATM  205  N   UNK N   1      30.342   6.307  -3.414  0.00  0.00    -0.346 N 
HETATM  206  H   UNK N   1      31.141   6.632  -3.890  0.00  0.00     0.163 HD
BRANCH 205 207
HETATM  207  C   UNK N   1      29.054   6.434  -4.071  0.00  0.00     0.185 C 
BRANCH 207 208
HETATM  208  C   UNK N   1      28.240   7.702  -3.791  0.00  0.00     0.137 C 
BRANCH 208 209
HETATM  209  C   UNK N   1      26.770   7.596  -3.526  0.00  0.00     0.217 C 
HETATM  210  N   UNK N   1      25.933   7.503  -4.576  0.00  0.00    -0.370 N 
HETATM  211  H   UNK N   1      25.461   8.214  -5.069  0.00  0.00     0.159 HD
HETATM  212  H   UNK N   1      25.766   6.588  -4.900  0.00  0.00     0.159 HD
HETATM  213  O   UNK N   1      26.325   7.566  -2.390  0.00  0.00    -0.274 OA
ENDBRANCH 208 209
ENDBRANCH 207 208
BRANCH 207 214
HETATM  214  C   UNK N   1      29.109   6.198  -5.544  0.00  0.00     0.241 C 
HETATM  215  O   UNK N   1      28.161   6.555  -6.223  0.00  0.00    -0.271 OA
HETATM  216  N   UNK N   1      30.165   5.600  -6.151  0.00  0.00    -0.344 N 
HETATM  217  H   UNK N   1      30.113   5.493  -7.128  0.00  0.00     0.163 HD
BRANCH 216 218
HETATM  218  C   UNK N   1      31.364   5.104  -5.501  0.00  0.00     0.200 C 
BRANCH 218 219
HETATM  219  C   UNK N   1      31.266   3.598  -5.436  0.00  0.00     0.199 C 
BRANCH 219 220
HETATM  220  O   UNK N   1      32.455   3.028  -5.900  0.00  0.00    -0.398 OA
HETATM  221  H   UNK N   1      33.389   3.013  -5.638  0.00  0.00     0.209 HD
ENDBRANCH 219 220
ENDBRANCH 218 219
BRANCH 218 222
HETATM  222  C   UNK N   1      32.591   5.444  -6.284  0.00  0.00     0.243 C 
HETATM  223  O   UNK N   1      33.681   5.427  -5.731  0.00  0.00    -0.271 OA
HETATM  224  N   UNK N   1      32.492   5.804  -7.593  0.00  0.00    -0.346 N 
HETATM  225  H   UNK N   1      31.614   5.806  -8.037  0.00  0.00     0.163 HD
BRANCH 224 226
HETATM  226  C   UNK N   1      33.674   6.183  -8.333  0.00  0.00     0.180 C 
BRANCH 226 227
HETATM  227  C   UNK N   1      34.153   5.107  -9.321  0.00  0.00     0.073 C 
BRANCH 227 228
HETATM  228  C   UNK N   1      33.097   4.080  -9.694  0.00  0.00    -0.056 A 
HETATM  229  C   UNK N   1      33.156   2.800  -9.135  0.00  0.00     0.007 A 
HETATM  230  C   UNK N   1      32.186   1.843  -9.461  0.00  0.00     0.001 A 
HETATM  231  C   UNK N   1      31.147   2.161 -10.341  0.00  0.00     0.000 A 
HETATM  232  C   UNK N   1      31.077   3.435 -10.900  0.00  0.00     0.001 A 
HETATM  233  C   UNK N   1      32.046   4.381 -10.578  0.00  0.00     0.007 A 
ENDBRANCH 227 228
ENDBRANCH 226 227
BRANCH 226 234
HETATM  234  C   UNK N   1      33.543   7.562  -8.937  0.00  0.00     0.241 C 
HETATM  235  O   UNK N   1      32.738   7.721  -9.840  0.00  0.00    -0.271 OA
HETATM  236  N   UNK N   1      34.240   8.631  -8.495  0.00  0.00    -0.346 N 
HETATM  237  H   UNK N   1      34.001   9.513  -8.860  0.00  0.00     0.163 HD
BRANCH 236 238
HETATM  238  C   UNK N   1      35.309   8.579  -7.528  0.00  0.00     0.176 C 
BRANCH 238 239
HETATM  239  C   UNK N   1      35.816   7.135  -7.340  0.00  0.00     0.036 C 
BRANCH 239 240
HETATM  240  C   UNK N   1      37.261   6.848  -7.721  0.00  0.00     0.023 C 
BRANCH 240 241
HETATM  241  C   UNK N   1      37.677   7.554  -9.009  0.00  0.00     0.138 C 
BRANCH 241 242
HETATM  242  N   UNK N   1      37.174   6.864 -10.171  0.00  0.00    -0.227 N 
HETATM  243  C   UNK N   1      36.496   7.545 -11.211  0.00  0.00     0.665 C 
HETATM  244  N   UNK N   1      36.389   8.955 -11.199  0.00  0.00    -0.235 N 
HETATM  245  N   UNK N   1      36.010   6.880 -12.191  0.00  0.00    -0.235 N 
HETATM  246  H   UNK N   1      36.151   9.474 -12.001  0.00  0.00     0.174 HD
HETATM  247  H   UNK N   1      36.561   9.436 -10.358  0.00  0.00     0.174 HD
HETATM  248  H   UNK N   1      36.117   5.903 -12.256  0.00  0.00     0.174 HD
ATOM    249  HN  UNK N   1      35.500   7.374 -12.924  1.00  0.00     0.174 HD
HETATM  250  H   UNK N   1      37.304   5.891 -10.242  0.00  0.00     0.177 HD
ENDBRANCH 241 242
ENDBRANCH 240 241
ENDBRANCH 239 240
ENDBRANCH 238 239
BRANCH 238 251
HETATM  251  C   UNK N   1      34.658   9.023  -6.253  0.00  0.00     0.241 C 
HETATM  252  O   UNK N   1      33.443   8.991  -6.159  0.00  0.00    -0.271 OA
HETATM  253  N   UNK N   1      35.417   9.268  -5.162  0.00  0.00    -0.345 N 
HETATM  254  H   UNK N   1      36.363   9.512  -5.281  0.00  0.00     0.163 HD
BRANCH 253 255
HETATM  255  C   UNK N   1      34.879   9.181  -3.834  0.00  0.00     0.186 C 
BRANCH 255 256
HETATM  256  C   UNK N   1      35.773   9.904  -2.842  0.00  0.00     0.074 C 
BRANCH 256 257
HETATM  257  C   UNK N   1      35.400  11.353  -2.758  0.00  0.00    -0.056 A 
HETATM  258  C   UNK N   1      36.403  12.328  -2.759  0.00  0.00     0.010 A 
HETATM  259  C   UNK N   1      36.064  13.685  -2.729  0.00  0.00     0.037 A 
HETATM  260  C   UNK N   1      34.722  14.072  -2.690  0.00  0.00     0.065 A 
HETATM  261  C   UNK N   1      33.715  13.105  -2.678  0.00  0.00     0.037 A 
HETATM  262  C   UNK N   1      34.053  11.750  -2.722  0.00  0.00     0.010 A 
BRANCH 260 263
HETATM  263  O   UNK N   1      34.400  15.375  -2.666  0.00  0.00    -0.361 OA
HETATM  264  H   UNK N   1      33.552  15.734  -2.834  0.00  0.00     0.217 HD
ENDBRANCH 260 263
ENDBRANCH 256 257
ENDBRANCH 255 256
BRANCH 255 265
HETATM  265  C   UNK N   1      34.643   7.734  -3.507  0.00  0.00     0.163 C 
HETATM  266  O   UNK N   1      35.585   7.003  -3.253  0.00  0.00    -0.648 OA
BRANCH 265 267
HETATM  267  O   UNK N   1      33.386   7.245  -3.444  0.00  0.00    -0.775 OA
HETATM  268  H   UNK N   1      33.205   6.346  -3.635  0.00  0.00     0.167 HD
ENDBRANCH 265 267
ENDBRANCH 255 265
ENDBRANCH 253 255
ENDBRANCH 238 251
ENDBRANCH 236 238
ENDBRANCH 226 234
ENDBRANCH 224 226
ENDBRANCH 218 222
ENDBRANCH 216 218
ENDBRANCH 207 214
ENDBRANCH 205 207
ENDBRANCH  22 203
BRANCH  30 269
HETATM  269  C   UNK N   1      27.887   1.939  -5.481  0.00  0.00     0.038 C 
BRANCH 269 270
HETATM  270  C   UNK N   1      27.641   1.792  -6.966  0.00  0.00    -0.020 C 
HETATM  271  C   UNK N   1      28.240   2.994  -7.668  0.00  0.00     0.009 C 
HETATM  272  C   UNK N   1      28.290   0.531  -7.487  0.00  0.00     0.009 C 
ENDBRANCH 269 270
ENDBRANCH  30 269
BRANCH   1 273
HETATM  273  C   UNK N   1      35.298  14.858   6.259  0.00  0.00     0.036 C 
BRANCH 273 274
HETATM  274  C   UNK N   1      35.074  14.989   4.771  0.00  0.00     0.023 C 
BRANCH 274 275
HETATM  275  C   UNK N   1      33.644  14.627   4.457  0.00  0.00     0.138 C 
BRANCH 275 276
HETATM  276  N   UNK N   1      32.836  15.793   4.651  0.00  0.00    -0.227 N 
HETATM  277  C   UNK N   1      32.522  16.693   3.607  0.00  0.00     0.665 C 
HETATM  278  N   UNK N   1      32.896  16.453   2.406  0.00  0.00    -0.235 N 
HETATM  279  N   UNK N   1      31.664  17.782   3.868  0.00  0.00    -0.235 N 
HETATM  280  H   UNK N   1      33.396  17.120   1.882  0.00  0.00     0.174 HD
ATOM    281  HN  UNK N   1      32.672  15.551   1.984  1.00  0.00     0.174 HD
HETATM  282  H   UNK N   1      30.862  18.055   4.369  0.00  0.00     0.174 HD
HETATM  283  H   UNK N   1      31.989  18.559   3.358  0.00  0.00     0.174 HD
HETATM  284  H   UNK N   1      32.484  15.977   5.552  0.00  0.00     0.177 HD
ENDBRANCH 275 276
ENDBRANCH 274 275
ENDBRANCH 273 274
ENDBRANCH   1 273
BRANCH  67 285
HETATM  285  C   UNK N   1      34.923  11.723  10.578  0.00  0.00     0.045 C 
BRANCH 285 286
HETATM  286  C   UNK N   1      36.212  10.914  10.611  0.00  0.00     0.076 C 
BRANCH 286 287
HETATM  287  S   UNK N   1      37.595  11.922  11.236  0.00  0.00    -0.173 SA
HETATM  288  C   UNK N   1      37.531  11.167  12.885  0.00  0.00     0.089 C 
ENDBRANCH 286 287
ENDBRANCH 285 286
ENDBRANCH  67 285
BRANCH  38 289
HETATM  289  C   UNK N   1      21.692  -2.038  -1.534  0.00  0.00     0.199 C 
BRANCH 289 290
HETATM  290  O   UNK N   1      20.736  -1.315  -2.249  0.00  0.00    -0.398 OA
HETATM  291  H   UNK N   1      19.789  -1.194  -2.079  0.00  0.00     0.209 HD
ENDBRANCH 289 290
ENDBRANCH  38 289
BRANCH  63 292
HETATM  292  C   UNK N   1      32.615   7.301   9.341  0.00  0.00     0.144 C 
BRANCH 292 293
HETATM  293  C   UNK N   1      33.311   6.944  10.642  0.00  0.00     0.141 C 
HETATM  294  O   UNK N   1      33.083   5.860  11.149  0.00  0.00    -0.650 OA
BRANCH 293 295
HETATM  295  O   UNK N   1      34.156   7.782  11.263  0.00  0.00    -0.776 OA
HETATM  296  H   UNK N   1      34.785   8.039  11.909  0.00  0.00     0.167 HD
ENDBRANCH 293 295
ENDBRANCH 292 293
ENDBRANCH  63 292
BRANCH  42 297
HETATM  297  C   UNK N   1      24.841   1.009   1.517  0.00  0.00     0.044 C 
BRANCH 297 298
HETATM  298  C   UNK N   1      24.250   1.299   2.885  0.00  0.00     0.105 C 
BRANCH 298 299
HETATM  299  C   UNK N   1      24.497   0.134   3.790  0.00  0.00     0.215 C 
HETATM  300  N   UNK N   1      24.610  -1.106   3.276  0.00  0.00    -0.370 N 
HETATM  301  H   UNK N   1      24.505  -1.953   3.766  0.00  0.00     0.159 HD
HETATM  302  H   UNK N   1      24.817  -1.171   2.316  0.00  0.00     0.159 HD
HETATM  303  O   UNK N   1      24.580   0.298   4.996  0.00  0.00    -0.274 OA
ENDBRANCH 298 299
ENDBRANCH 297 298
ENDBRANCH  42 297
BRANCH  59 304
HETATM  304  C   UNK N   1      30.916   9.267   4.504  0.00  0.00     0.036 C 
BRANCH 304 305
HETATM  305  C   UNK N   1      31.577  10.631   4.606  0.00  0.00     0.023 C 
BRANCH 305 306
HETATM  306  C   UNK N   1      30.559  11.730   4.860  0.00  0.00     0.138 C 
BRANCH 306 307
HETATM  307  N   UNK N   1      30.690  12.739   3.859  0.00  0.00    -0.227 N 
HETATM  308  C   UNK N   1      29.809  13.836   3.824  0.00  0.00     0.665 C 
HETATM  309  N   UNK N   1      28.906  14.067   4.887  0.00  0.00    -0.235 N 
HETATM  310  N   UNK N   1      29.765  14.563   2.776  0.00  0.00    -0.235 N 
HETATM  311  H   UNK N   1      28.223  14.475   5.468  0.00  0.00     0.174 HD
HETATM  312  H   UNK N   1      29.082  13.253   5.412  0.00  0.00     0.174 HD
HETATM  313  H   UNK N   1      30.508  15.109   2.429  0.00  0.00     0.174 HD
ATOM    314  HN  UNK N   1      28.888  14.582   2.256  1.00  0.00     0.174 HD
HETATM  315  H   UNK N   1      31.404  12.666   3.184  0.00  0.00     0.177 HD
ENDBRANCH 306 307
ENDBRANCH 305 306
ENDBRANCH 304 305
ENDBRANCH  59 304
BRANCH  55 316
HETATM  316  C   UNK N   1      27.728   5.241   6.441  0.00  0.00     0.013 C 
HETATM  317  C   UNK N   1      26.399   5.898   6.763  0.00  0.00     0.012 C 
BRANCH 316 318
HETATM  318  C   UNK N   1      27.524   3.726   6.435  0.00  0.00     0.002 C 
HETATM  319  C   UNK N   1      28.344   3.061   7.519  0.00  0.00     0.005 C 
ENDBRANCH 316 318
ENDBRANCH  55 316
TORSDOF 92
ENDMDL
