REMARK  7 active torsions:
REMARK  status: ('A' for Active; 'I' for Inactive)
REMARK    1  A    between atoms: O_2  and  C_8 
REMARK    2  A    between atoms: O_2  and  C_13 
REMARK    3  A    between atoms: C_20  and  O_43 
REMARK    4  A    between atoms: C_24  and  O_33 
REMARK    5  A    between atoms: C_25  and  O_34 
REMARK    6  A    between atoms: C_45  and  O_50 
REMARK    7  A    between atoms: C_46  and  O_51 
ROOT
HETATM    1  O   UNK N   1      12.026  -4.582  -1.381  0.00  0.00    -0.322 OA
HETATM    2  O   UNK N   1      10.043  -4.160  -0.506  0.00  0.00    -0.322 OA
HETATM    3  C   UNK N   1      13.154  -1.769   0.746  0.00  0.00     0.004 A 
HETATM    4  C   UNK N   1      13.236  -2.802  -0.228  0.00  0.00     0.013 A 
HETATM    5  C   UNK N   1      12.118  -3.537  -0.550  0.00  0.00     0.114 A 
HETATM    6  C   UNK N   1      11.857  -1.444   1.279  0.00  0.00     0.096 A 
HETATM    7  C   UNK N   1      10.927  -3.282  -0.031  0.00  0.00     0.114 A 
HETATM    8  C   UNK N   1      10.718  -2.229   0.870  0.00  0.00     0.009 A 
HETATM    9  C   UNK N   1      10.707  -5.034  -1.376  0.00  0.00     0.352 A 
HETATM   10  C   UNK N   1       9.339  -2.050   1.396  0.00  0.00     0.054 C 
HETATM   11  C   UNK N   1      14.493  -1.092   1.228  0.00  0.00     0.108 C 
HETATM   12  C   UNK N   1      14.506  -3.064  -0.907  0.00  0.00     0.143 C 
HETATM   13  N   UNK N   1      15.549  -2.955   0.148  0.00  0.00    -0.367 N 
HETATM   14  C   UNK N   1      15.835  -1.603   0.541  0.00  0.00     0.139 C 
HETATM   15  C   UNK N   1      17.010  -1.143  -0.434  0.00  0.00     0.283 C 
HETATM   16  C   UNK N   1      16.656  -3.905   0.406  0.00  0.00     0.250 C 
HETATM   17  C   UNK N   1      18.034  -3.223   0.160  0.00  0.00     0.275 C 
HETATM   18  N   UNK N   1      17.854  -2.257  -0.927  0.00  0.00     0.104 N 
HETATM   19  C   UNK N   1      12.355   4.848   0.049  0.00  0.00     0.047 A 
HETATM   20  C   UNK N   1      10.997   4.546  -0.039  0.00  0.00     0.099 A 
HETATM   21  C   UNK N   1      10.589   3.236  -0.409  0.00  0.00     0.101 A 
HETATM   22  C   UNK N   1      11.568   2.260  -0.660  0.00  0.00     0.050 A 
HETATM   23  C   UNK N   1      12.934   2.563  -0.569  0.00  0.00    -0.011 A 
HETATM   24  C   UNK N   1      13.310   3.871  -0.220  0.00  0.00    -0.044 A 
HETATM   25  C   UNK N   1      14.756   4.219  -0.251  0.00  0.00     0.058 C 
HETATM   26  C   UNK N   1      14.065   1.596  -0.966  0.00  0.00     0.151 C 
HETATM   27  N   UNK N   1      14.850   2.322  -1.984  0.00  0.00    -0.400 N 
HETATM   28  C   UNK N   1      15.368   3.657  -1.555  0.00  0.00     0.120 C 
HETATM   29  C   UNK N   1      14.536  -2.081  -2.182  0.00  0.00     0.208 C 
HETATM   30  O   UNK N   1      14.612  -0.675  -2.011  0.00  0.00    -0.317 OA
HETATM   31  S   UNK N   1      14.384   0.659   1.773  0.00  0.00    -0.154 SA
HETATM   32  C   UNK N   1      15.014   1.388   0.237  0.00  0.00     0.121 C 
HETATM   33  C   UNK N   1      13.649   0.205  -1.560  0.00  0.00     0.292 C 
HETATM   34  C   UNK N   1      17.413  -2.850  -2.185  0.00  0.00     0.311 C 
HETATM   35  O   UNK N   1      12.472  -0.115  -1.621  0.00  0.00    -0.262 OA
HETATM   36  C   UNK N   1      18.800  -0.946   1.196  0.00  0.00    -0.044 A 
HETATM   37  C   UNK N   1      19.249   1.753   0.452  0.00  0.00     0.107 A 
HETATM   38  C   UNK N   1      18.222   1.005  -0.157  0.00  0.00     0.108 A 
HETATM   39  C   UNK N   1      19.828  -0.215   1.799  0.00  0.00     0.017 A 
HETATM   40  C   UNK N   1      20.040   1.133   1.443  0.00  0.00    -0.025 A 
HETATM   41  C   UNK N   1      21.145   1.888   2.094  0.00  0.00     0.051 C 
HETATM   42  C   UNK N   1      17.997  -0.311   0.246  0.00  0.00     0.019 A 
HETATM   43  C   UNK N   1      18.606  -2.458   1.429  0.00  0.00     0.079 C 
HETATM   44  H   UNK N   1      15.027   1.940  -2.913  0.00  0.00     0.154 HD
ENDROOT
BRANCH  21  45
HETATM   45  O   UNK N   1       9.287   2.877  -0.562  0.00  0.00    -0.353 OA
HETATM   46  C   UNK N   1       8.212   3.732  -0.487  0.00  0.00     0.210 C 
ENDBRANCH  21  45
BRANCH  20  47
HETATM   47  O   UNK N   1      10.103   5.518   0.212  0.00  0.00    -0.358 OA
HETATM   48  H   UNK N   1      10.378   6.397   0.387  0.00  0.00     0.217 HD
ENDBRANCH  20  47
BRANCH   6  49
HETATM   49  O   UNK N   1      11.797  -0.415   2.174  0.00  0.00    -0.278 OA
BRANCH  49  50
HETATM   50  C   UNK N   1      10.862   0.528   2.481  0.00  0.00     0.260 C 
HETATM   51  O   UNK N   1      11.141   1.361   3.328  0.00  0.00    -0.265 OA
HETATM   52  C   UNK N   1       9.573   0.691   1.750  0.00  0.00     0.126 C 
ENDBRANCH  49  50
ENDBRANCH   6  49
BRANCH  16  53
HETATM   53  O   UNK N   1      16.513  -5.048  -0.383  0.00  0.00    -0.375 OA
HETATM   54  H   UNK N   1      15.776  -5.359  -0.931  0.00  0.00     0.212 HD
ENDBRANCH  16  53
BRANCH  38  55
HETATM   55  O   UNK N   1      17.481   1.519  -1.153  0.00  0.00    -0.357 OA
HETATM   56  H   UNK N   1      17.533   2.146  -1.848  0.00  0.00     0.217 HD
ENDBRANCH  38  55
BRANCH  37  57
HETATM   57  O   UNK N   1      19.519   3.045   0.106  0.00  0.00    -0.353 OA
HETATM   58  C   UNK N   1      18.850   3.778  -0.851  0.00  0.00     0.210 C 
ENDBRANCH  37  57
TORSDOF 7
