REMARK  4 active torsions:
REMARK  status: ('A' for Active; 'I' for Inactive)
REMARK    1  A    between atoms: C_5  and  C_8 
REMARK    2  A    between atoms: C_11  and  C_9 
REMARK    3  A    between atoms: C_19  and  O_33 
REMARK    4  A    between atoms: C_24  and  O_29 
ROOT
HETATM    1  C   UNK N   1      -0.704  -3.368  -0.074  0.00  0.00     0.164 C 
HETATM    2  C   UNK N   1       0.408  -3.320   0.959  0.00  0.00     0.064 C 
HETATM    3  C   UNK N   1       1.628  -2.651   0.392  0.00  0.00    -0.021 C 
HETATM    4  C   UNK N   1       2.341  -3.159  -0.631  0.00  0.00    -0.084 C 
HETATM    5  C   UNK N   1       1.959  -4.439  -1.334  0.00  0.00     0.060 C 
HETATM    6  C   UNK N   1       1.831  -5.555  -0.351  0.00  0.00    -0.026 C 
HETATM    7  C   UNK N   1       2.454  -6.714  -0.492  0.00  0.00    -0.024 C 
HETATM    8  C   UNK N   1       2.314  -7.710   0.610  0.00  0.00     0.033 C 
HETATM    9  C   UNK N   1       1.721  -9.054   0.180  0.00  0.00     0.136 C 
HETATM   10  C   UNK N   1       0.228  -9.113  -0.228  0.00  0.00     0.081 C 
HETATM   11  C   UNK N   1      -0.748  -8.402   0.714  0.00  0.00     0.143 C 
HETATM   12  O   UNK N   1      -0.303  -7.735   1.638  0.00  0.00    -0.297 OA
HETATM   13  C   UNK N   1      -2.275  -8.492   0.562  0.00  0.00     0.040 C 
HETATM   14  C   UNK N   1      -2.884  -7.091   0.342  0.00  0.00     0.142 C 
HETATM   15  C   UNK N   1      -2.490  -6.515  -1.013  0.00  0.00     0.144 C 
HETATM   16  C   UNK N   1      -2.230  -5.054  -0.917  0.00  0.00     0.262 C 
HETATM   17  O   UNK N   1      -2.833  -4.276  -1.639  0.00  0.00    -0.265 OA
HETATM   18  O   UNK N   1      -1.271  -4.625  -0.061  0.00  0.00    -0.311 OA
HETATM   19  C   UNK N   1      -2.820  -9.072   1.860  0.00  0.00     0.026 C 
HETATM   20  C   UNK N   1      -2.732  -9.413  -0.568  0.00  0.00     0.026 C 
HETATM   21  C   UNK N   1      -0.109 -10.595  -0.302  0.00  0.00     0.020 C 
HETATM   22  C   UNK N   1       3.670  -7.925   1.258  0.00  0.00     0.017 C 
HETATM   23  C   UNK N   1       3.545  -2.416  -1.096  0.00  0.00     0.043 C 
ENDROOT
BRANCH   1  24
HETATM   24  C   UNK N   1      -1.678  -2.270   0.197  0.00  0.00    -0.052 C 
HETATM   25  C   UNK N   1      -1.457  -1.094  -0.407  0.00  0.00     0.035 C 
HETATM   26  C   UNK N   1      -2.664  -2.413   1.319  0.00  0.00     0.046 C 
BRANCH  25  27
HETATM   27  C   UNK N   1      -2.231   0.131  -0.175  0.00  0.00     0.039 A 
HETATM   28  N   UNK N   1      -1.601   1.356  -0.170  0.00  0.00    -0.354 N 
HETATM   29  C   UNK N   1      -2.449   2.362   0.132  0.00  0.00     0.047 A 
ATOM     30  HN  UNK N   1      -0.609   1.487  -0.370  1.00  0.00     0.166 HD
HETATM   31  C   UNK N   1      -2.041   3.782   0.282  0.00  0.00     0.076 C 
HETATM   32  S   UNK N   1      -3.959   1.752   0.373  0.00  0.00    -0.087 SA
HETATM   33  C   UNK N   1      -3.611   0.152   0.118  0.00  0.00     0.081 A 
ENDBRANCH  25  27
ENDBRANCH   1  24
BRANCH  14  34
HETATM   34  O   UNK N   1      -4.280  -7.120   0.432  0.00  0.00    -0.394 OA
HETATM   35  H   UNK N   1      -4.782  -6.292   0.495  0.00  0.00     0.210 HD
ENDBRANCH  14  34
BRANCH   9  36
HETATM   36  O   UNK N   1       2.518  -9.644  -0.808  0.00  0.00    -0.394 OA
HETATM   37  H   UNK N   1       2.441 -10.327  -1.492  0.00  0.00     0.210 HD
ENDBRANCH   9  36
TORSDOF 4
