REMARK  7 active torsions:
REMARK  status: ('A' for Active; 'I' for Inactive)
REMARK    1  A    between atoms: N_5  and  C_8 
REMARK    2  A    between atoms: N_5  and  C_13 
REMARK       I    between atoms: N_6  and  C_15 
REMARK    3  A    between atoms: N_7  and  C_23 
REMARK       I    between atoms: N_7  and  C_31 
REMARK    4  A    between atoms: C_13  and  C_16 
REMARK    5  A    between atoms: C_15  and  C_17 
REMARK    6  A    between atoms: C_16  and  C_18 
REMARK    7  A    between atoms: C_31  and  C_32 
ROOT
HETATM    1  O   UNK N   1      -0.765   4.947  -0.775  0.00  0.00    -0.411 OA
HETATM    2  H   UNK N   1       0.205   4.947  -0.775  0.00  0.00     0.205 HD
HETATM    3  H   UNK N   1      -1.250   5.787  -0.775  0.00  0.00     0.205 HD
ENDROOT
TORSDOF 7
