REMARK  9 active torsions:
REMARK  status: ('A' for Active; 'I' for Inactive)
REMARK    1  A    between atoms: O_32  and  C_5 
REMARK    2  A    between atoms: C_17  and  C_12 
REMARK    3  A    between atoms: S_33  and  C_12 
REMARK    4  A    between atoms: O_26  and  C_13 
REMARK    5  A    between atoms: C_17  and  C_14 
REMARK    6  A    between atoms: N_23  and  C_16 
REMARK    7  A    between atoms: C_17  and  N_25 
REMARK    8  A    between atoms: O_31  and  C_18 
REMARK    9  A    between atoms: O_32  and  C_19 
ROOT
HETATM    1  C   UNK N   1       5.968   1.016   0.224  0.00  0.00     0.003 A 
HETATM    2  C   UNK N   1       4.802   1.707   0.583  0.00  0.00     0.018 A 
HETATM    3  C   UNK N   1       5.914  -0.360  -0.080  0.00  0.00     0.030 A 
HETATM    4  C   UNK N   1       3.607   0.997   0.600  0.00  0.00     0.050 A 
HETATM    5  C   UNK N   1       4.686  -1.064  -0.052  0.00  0.00     0.050 A 
HETATM    6  C   UNK N   1       3.534  -0.339   0.279  0.00  0.00     0.075 A 
HETATM    7  C   UNK N   1       2.265   1.414   0.961  0.00  0.00     0.262 A 
HETATM    8  C   UNK N   1       2.114  -0.712   0.415  0.00  0.00     0.264 A 
HETATM    9  N   UNK N   1       1.396   0.374   0.825  0.00  0.00    -0.270 N 
HETATM   10  O   UNK N   1       1.954   2.528   1.357  0.00  0.00    -0.267 OA
HETATM   11  O   UNK N   1       1.645  -1.821   0.212  0.00  0.00    -0.267 OA
ENDROOT
BRANCH   9  12
HETATM   12  C   UNK N   1      -0.040   0.472   1.146  0.00  0.00     0.143 C 
BRANCH  12  13
HETATM   13  C   UNK N   1      -0.782  -0.884   1.186  0.00  0.00     0.170 C 
BRANCH  13  14
HETATM   14  S   UNK N   1      -2.006  -1.320  -0.105  0.00  0.00     0.143 S 
HETATM   15  C   UNK N   1      -2.239  -2.987  -0.783  0.00  0.00     0.161 C 
HETATM   16  O   UNK N   1      -1.933  -0.348  -1.290  0.00  0.00    -0.228 OA
HETATM   17  O   UNK N   1      -3.375  -0.908   0.459  0.00  0.00    -0.228 OA
ENDBRANCH  13  14
ENDBRANCH  12  13
BRANCH  12  18
HETATM   18  C   UNK N   1      -0.725   1.604   0.384  0.00  0.00    -0.031 A 
HETATM   19  C   UNK N   1      -0.052   2.264  -0.655  0.00  0.00     0.012 A 
HETATM   20  C   UNK N   1      -0.557   3.436  -1.204  0.00  0.00     0.040 A 
HETATM   21  C   UNK N   1      -1.749   3.987  -0.738  0.00  0.00     0.101 A 
HETATM   22  C   UNK N   1      -2.488   3.296   0.257  0.00  0.00     0.102 A 
HETATM   23  C   UNK N   1      -1.962   2.109   0.815  0.00  0.00     0.049 A 
BRANCH  21  24
HETATM   24  O   UNK N   1      -2.141   5.173  -1.274  0.00  0.00    -0.353 OA
HETATM   25  C   UNK N   1      -3.155   5.969  -0.790  0.00  0.00     0.210 C 
ENDBRANCH  21  24
BRANCH  22  26
HETATM   26  O   UNK N   1      -3.681   3.788   0.665  0.00  0.00    -0.349 OA
BRANCH  26  27
HETATM   27  C   UNK N   1      -4.634   3.055   1.327  0.00  0.00     0.171 C 
HETATM   28  C   UNK N   1      -5.930   3.145   0.544  0.00  0.00     0.034 C 
ENDBRANCH  26  27
ENDBRANCH  22  26
ENDBRANCH  12  18
ENDBRANCH   9  12
BRANCH   5  29
HETATM   29  N   UNK N   1       4.599  -2.465  -0.311  0.00  0.00    -0.340 N 
HETATM   30  C   UNK N   1       5.601  -3.277  -0.422  0.00  0.00     0.111 C 
HETATM   31  C   UNK N   1       5.342  -4.718  -0.684  0.00  0.00     0.097 C 
ATOM     32  HN  UNK N   1       3.665  -2.861  -0.417  1.00  0.00     0.167 HD
BRANCH  30  33
HETATM   33  O   UNK N   1       6.875  -2.859  -0.276  0.00  0.00    -0.350 OA
HETATM   34  H   UNK N   1       7.569  -3.480  -0.176  0.00  0.00     0.219 HD
ENDBRANCH  30  33
ENDBRANCH   5  29
TORSDOF 9
