REMARK  10 active torsions:
REMARK  status: ('A' for Active; 'I' for Inactive)
REMARK    1  A    between atoms: N_15  and  C_38 
REMARK    2  A    between atoms: C_23  and  C_26 
REMARK    3  A    between atoms: C_24  and  C_25 
REMARK    4  A    between atoms: C_30  and  C_37 
REMARK    5  A    between atoms: C_33  and  C_34 
REMARK    6  A    between atoms: C_43  and  C_47 
REMARK    7  A    between atoms: C_58  and  C_59 
REMARK    8  A    between atoms: C_63  and  C_64 
REMARK    9  A    between atoms: C_69  and  C_71 
REMARK   10  A    between atoms: C_74  and  C_76 
ROOT
HETATM    1  O   UNK N   1       9.351   4.473   0.000  0.00  0.00    -0.393 OA
HETATM    2  O   UNK N   1       6.810   2.474   0.000  0.00  0.00    -0.271 OA
HETATM    3  O   UNK N   1       5.656   3.041   0.000  0.00  0.00    -0.271 OA
HETATM    4  O   UNK N   1      11.083   4.978   0.000  0.00  0.00    -0.394 OA
HETATM    5  O   UNK N   1       3.925   4.168   0.000  0.00  0.00    -0.398 OA
HETATM    6  O   UNK N   1       7.949   3.826   0.000  0.00  0.00    -0.271 OA
HETATM    7  O   UNK N   1       7.701   4.299   0.000  0.00  0.00    -0.271 OA
HETATM    8  O   UNK N   1       5.356   4.543   0.000  0.00  0.00    -0.393 OA
HETATM    9  O   UNK N   1       6.350   6.181   0.000  0.00  0.00    -0.271 OA
HETATM   10  O   UNK N   1       9.543   2.659   0.000  0.00  0.00    -0.393 OA
HETATM   11  O   UNK N   1       7.064   3.943   0.000  0.00  0.00    -0.271 OA
HETATM   12  O   UNK N   1       3.793   3.228   0.000  0.00  0.00    -0.268 OA
HETATM   13  O   UNK N   1       4.508  -2.959   0.000  0.00  0.00    -0.351 OA
HETATM   14  N   UNK N   1       6.783   4.168   0.000  0.00  0.00    -0.334 N 
HETATM   15  N   UNK N   1       9.173   4.040   0.000  0.00  0.00    -0.334 N 
HETATM   16  N   UNK N   1       7.758   2.122   0.000  0.00  0.00    -0.357 N 
HETATM   17  N   UNK N   1       5.354   4.993   0.000  0.00  0.00    -0.344 N 
HETATM   18  N   UNK N   1       7.579   5.207   0.000  0.00  0.00    -0.344 N 
HETATM   19  N   UNK N   1       6.205   0.645   0.000  0.00  0.00    -0.414 N 
HETATM   20  N   UNK N   1       7.366   2.816   0.000  0.00  0.00    -0.344 N 
HETATM   21  N   UNK N   1       5.222   3.228   0.000  0.00  0.00    -0.344 N 
HETATM   22  N   UNK N   1       6.893  -1.426   0.000  0.00  0.00    -0.429 N 
HETATM   23  C   UNK N   1       8.080   5.591   0.000  0.00  0.00     0.031 A 
HETATM   24  C   UNK N   1       8.527   4.438   0.000  0.00  0.00     0.155 A 
HETATM   25  C   UNK N   1       7.497   3.755   0.000  0.00  0.00     0.208 A 
HETATM   26  C   UNK N   1       6.859   5.401   0.000  0.00  0.00     0.134 A 
HETATM   27  C   UNK N   1       8.493   6.305   0.000  0.00  0.00     0.014 A 
HETATM   28  C   UNK N   1       7.497   2.930   0.000  0.00  0.00     0.243 A 
HETATM   29  C   UNK N   1       6.068   3.755   0.000  0.00  0.00     0.245 A 
HETATM   30  C   UNK N   1       8.960   4.837   0.000  0.00  0.00     0.181 A 
HETATM   31  C   UNK N   1       5.354   4.168   0.000  0.00  0.00     0.200 A 
HETATM   32  C   UNK N   1       9.649   5.282   0.000  0.00  0.00     0.068 A 
HETATM   33  C   UNK N   1      10.286   4.765   0.000  0.00  0.00     0.138 A 
HETATM   34  C   UNK N   1       9.992   3.999   0.000  0.00  0.00     0.158 A 
HETATM   35  C   UNK N   1       7.345   1.407   0.000  0.00  0.00     0.147 A 
HETATM   36  C   UNK N   1       6.520   1.407   0.000  0.00  0.00     0.096 A 
HETATM   37  C   UNK N   1       8.163   4.623   0.000  0.00  0.00     0.241 A 
HETATM   38  C   UNK N   1       8.376   3.826   0.000  0.00  0.00     0.246 A 
HETATM   39  C   UNK N   1       4.639   3.755   0.000  0.00  0.00     0.199 A 
HETATM   40  C   UNK N   1       6.783   4.993   0.000  0.00  0.00     0.205 A 
HETATM   41  C   UNK N   1       5.937   1.991   0.000  0.00  0.00     0.061 A 
HETATM   42  C   UNK N   1       8.163   3.029   0.000  0.00  0.00     0.205 A 
HETATM   43  C   UNK N   1       5.937   2.816   0.000  0.00  0.00     0.179 A 
HETATM   44  C   UNK N   1       6.068   5.405   0.000  0.00  0.00     0.243 A 
HETATM   45  C   UNK N   1       5.965   5.101   0.000  0.00  0.00     0.154 A 
HETATM   46  C   UNK N   1       8.746   2.446   0.000  0.00  0.00     0.146 A 
HETATM   47  C   UNK N   1       6.652   3.228   0.000  0.00  0.00     0.241 A 
HETATM   48  C   UNK N   1       5.786   5.906   0.000  0.00  0.00     0.073 A 
HETATM   49  C   UNK N   1       6.707  -0.009   0.000  0.00  0.00     0.133 A 
HETATM   50  C   UNK N   1       8.960   1.649   0.000  0.00  0.00     0.042 A 
HETATM   51  C   UNK N   1       5.229   6.514   0.000  0.00  0.00    -0.056 A 
HETATM   52  C   UNK N   1       6.391  -0.772   0.000  0.00  0.00     0.130 A 
HETATM   53  C   UNK N   1       4.508   2.816   0.000  0.00  0.00     0.252 A 
HETATM   54  C   UNK N   1       4.423   6.336   0.000  0.00  0.00     0.007 A 
HETATM   55  C   UNK N   1       5.477   7.301   0.000  0.00  0.00     0.007 A 
HETATM   56  C   UNK N   1       4.508   1.991   0.000  0.00  0.00     0.032 A 
HETATM   57  C   UNK N   1       3.866   6.944   0.000  0.00  0.00     0.001 A 
HETATM   58  C   UNK N   1       4.919   7.909   0.000  0.00  0.00     0.001 A 
HETATM   59  C   UNK N   1       4.114   7.731   0.000  0.00  0.00     0.000 A 
HETATM   60  C   UNK N   1       3.793   1.578   0.000  0.00  0.00     0.018 A 
HETATM   61  C   UNK N   1       5.222   1.578   0.000  0.00  0.00     0.018 A 
HETATM   62  C   UNK N   1       3.793   0.753   0.000  0.00  0.00     0.013 A 
HETATM   63  C   UNK N   1       5.222   0.753   0.000  0.00  0.00     0.013 A 
HETATM   64  C   UNK N   1       4.508   0.341   0.000  0.00  0.00    -0.026 A 
HETATM   65  C   UNK N   1       4.508  -0.484   0.000  0.00  0.00    -0.026 A 
HETATM   66  C   UNK N   1       5.222  -0.897   0.000  0.00  0.00     0.015 A 
HETATM   67  C   UNK N   1       3.793  -0.897   0.000  0.00  0.00     0.015 A 
HETATM   68  C   UNK N   1       5.222  -1.722   0.000  0.00  0.00     0.037 A 
HETATM   69  C   UNK N   1       3.793  -1.722   0.000  0.00  0.00     0.037 A 
HETATM   70  C   UNK N   1       3.079  -5.434   0.000  0.00  0.00     0.000 A 
HETATM   71  C   UNK N   1       4.508  -2.134   0.000  0.00  0.00     0.068 A 
HETATM   72  C   UNK N   1       3.079  -4.609   0.000  0.00  0.00     0.002 A 
HETATM   73  C   UNK N   1       2.365  -5.847   0.000  0.00  0.00     0.000 A 
HETATM   74  C   UNK N   1       3.793  -4.197   0.000  0.00  0.00     0.027 A 
HETATM   75  C   UNK N   1       2.365  -6.672   0.000  0.00  0.00    -0.000 A 
HETATM   76  C   UNK N   1       3.793  -3.372   0.000  0.00  0.00     0.175 A 
HETATM   77  C   UNK N   1       1.650  -7.084   0.000  0.00  0.00    -0.005 A 
HETATM   78  C   UNK N   1       1.650  -7.909   0.000  0.00  0.00     0.005 A 
HETATM   79  H   UNK N   1       9.871   3.653   0.000  0.00  0.00     0.210 HD
HETATM   80  H   UNK N   1      11.768   4.292   0.000  0.00  0.00     0.210 HD
HETATM   81  H   UNK N   1       3.925   5.138   0.000  0.00  0.00     0.209 HD
HETATM   82  H   UNK N   1       4.431   4.835   0.000  0.00  0.00     0.210 HD
HETATM   83  H   UNK N   1      10.229   1.973   0.000  0.00  0.00     0.210 HD
HETATM   84  H   UNK N   1       8.737   2.018   0.000  0.00  0.00     0.162 HD
HETATM   85  H   UNK N   1       4.501   5.485   0.000  0.00  0.00     0.163 HD
HETATM   86  H   UNK N   1       7.834   6.157   0.000  0.00  0.00     0.163 HD
HETATM   87  H   UNK N   1       5.193   0.512   0.000  0.00  0.00     0.153 HD
HETATM   88  H   UNK N   1       7.237   1.840   0.000  0.00  0.00     0.163 HD
HETATM   89  H   UNK N   1       5.222   4.213   0.000  0.00  0.00     0.163 HD
HETATM   90  H   UNK N   1       6.503  -2.368   0.000  0.00  0.00     0.149 HD
HETATM   91  H   UNK N   1       7.905  -1.293   0.000  0.00  0.00     0.149 HD
ENDROOT
TORSDOF 10
