REMARK  8 active torsions:
REMARK  status: ('A' for Active; 'I' for Inactive)
REMARK    1  A    between atoms: C_16  and  O_2 
REMARK    2  A    between atoms: O_3  and  N_7 
REMARK    3  A    between atoms: O_3  and  C_17 
REMARK    4  A    between atoms: O_4  and  N_9 
REMARK    5  A    between atoms: N_6  and  C_15 
REMARK    6  A    between atoms: C_15  and  C_16 
REMARK    7  A    between atoms: C_16  and  C_17 
REMARK    8  A    between atoms: C_18  and  C_19 
ROOT
HETATM    1  O   UNK N   1       5.009   0.758  -0.677  0.00  0.00    -0.277 OA
ENDROOT
BRANCH   1   2
HETATM    2  N   UNK N   1       4.234  -0.305  -0.807  0.00  0.00    -0.254 N 
HETATM    3  C   UNK N   1       4.632  -1.528  -0.633  0.00  0.00     0.135 C 
HETATM    4 Cl   UNK N   1       3.409  -2.792  -0.737  0.00  0.00    -0.062 Cl
ATOM      5  HN  UNK N   1       3.258  -0.154  -1.061  1.00  0.00     0.195 HD
BRANCH   3   6
HETATM    6  C   UNK N   1       6.049  -1.921  -0.350  0.00  0.00     0.022 A 
HETATM    7  C   UNK N   1       6.337  -3.249   0.002  0.00  0.00     0.137 A 
HETATM    8  N   UNK N   1       7.613  -3.639   0.265  0.00  0.00    -0.246 N 
HETATM    9  C   UNK N   1       8.649  -2.763   0.188  0.00  0.00     0.122 A 
HETATM   10  C   UNK N   1       8.419  -1.436  -0.171  0.00  0.00     0.021 A 
HETATM   11  C   UNK N   1       7.117  -1.020  -0.441  0.00  0.00     0.017 A 
BRANCH   8  12
HETATM   12  O   UNK N   1       7.852  -4.902   0.609  0.00  0.00    -0.284 OA
ATOM     13  HO  UNK N   1       8.743  -5.174   0.793  1.00  0.00     0.245 HD
ENDBRANCH   8  12
ENDBRANCH   3   6
ENDBRANCH   1   2
BRANCH   1  14
HETATM   14  C   UNK N   1       5.494   1.159   0.556  0.00  0.00     0.234 C 
BRANCH  14  15
HETATM   15  C   UNK N   1       4.394   1.549   1.545  0.00  0.00     0.172 C 
BRANCH  15  16
HETATM   16  O   UNK N   1       3.488   0.506   1.751  0.00  0.00    -0.392 OA
HETATM   17  H   UNK N   1       2.546   0.689   1.894  0.00  0.00     0.210 HD
ENDBRANCH  15  16
BRANCH  15  18
HETATM   18  C   UNK N   1       3.687   2.854   1.182  0.00  0.00     0.306 C 
BRANCH  18  19
HETATM   19  N   UNK N   1       2.934   2.750  -0.063  0.00  0.00     0.091 N 
HETATM   20  C   UNK N   1       2.898   4.091  -0.675  0.00  0.00     0.272 C 
HETATM   21  C   UNK N   1       1.739   4.945  -0.153  0.00  0.00     0.030 C 
HETATM   22  C   UNK N   1       0.387   4.274  -0.420  0.00  0.00     0.003 C 
HETATM   23  C   UNK N   1       0.506   2.765  -0.640  0.00  0.00     0.030 C 
HETATM   24  C   UNK N   1       1.604   2.199   0.254  0.00  0.00     0.272 C 
ENDBRANCH  18  19
ENDBRANCH  15  18
ENDBRANCH  14  15
ENDBRANCH   1  14
TORSDOF 8
