REMARK  3 active torsions:
REMARK  status: ('A' for Active; 'I' for Inactive)
REMARK    1  A    between atoms: C_7  and  C_18 
REMARK    2  A    between atoms: C_8  and  C_10 
REMARK    3  A    between atoms: C_18  and  O_19 
ROOT
HETATM    1  C   UNK N   1       1.597   0.943   1.601  0.00  0.00     0.310 C 
HETATM    2  N   UNK N   1       0.350   0.792   0.861  0.00  0.00     0.094 N 
HETATM    3  C   UNK N   1       0.266   1.493  -0.422  0.00  0.00     0.223 C 
HETATM    4  C   UNK N   1      -1.070   1.023  -0.956  0.00  0.00     0.038 C 
HETATM    5  C   UNK N   1      -1.215  -0.393  -0.398  0.00  0.00     0.038 C 
HETATM    6  C   UNK N   1      -0.008  -0.579   0.517  0.00  0.00     0.229 C 
HETATM    7  C   UNK N   1       1.103  -1.269  -0.306  0.00  0.00     0.051 C 
HETATM    8  C   UNK N   1       2.027  -0.314  -1.133  0.00  0.00     0.029 C 
HETATM    9  C   UNK N   1       1.322   1.023  -1.456  0.00  0.00     0.045 C 
ENDROOT
BRANCH   8  10
HETATM   10  C   UNK N   1       3.448  -0.080  -0.627  0.00  0.00    -0.052 A 
HETATM   11  C   UNK N   1       4.335  -1.155  -0.486  0.00  0.00     0.009 A 
HETATM   12  C   UNK N   1       5.653  -0.942  -0.070  0.00  0.00     0.026 A 
HETATM   13  C   UNK N   1       6.106   0.351   0.196  0.00  0.00     0.055 A 
HETATM   14  C   UNK N   1       5.235   1.440   0.041  0.00  0.00     0.056 A 
HETATM   15 Cl   UNK N   1       7.770   0.583   0.710  0.00  0.00    -0.083 Cl
HETATM   16  C   UNK N   1       3.920   1.220  -0.373  0.00  0.00     0.033 A 
HETATM   17 Cl   UNK N   1       5.759   3.087   0.350  0.00  0.00    -0.083 Cl
ENDBRANCH   8  10
BRANCH   7  18
HETATM   18  C   UNK N   1       1.780  -2.383   0.487  0.00  0.00     0.174 C 
BRANCH  18  19
HETATM   19  O   UNK N   1       2.420  -3.278  -0.372  0.00  0.00    -0.395 OA
HETATM   20  C   UNK N   1       1.697  -4.465  -0.262  0.00  0.00     0.201 C 
ENDBRANCH  18  19
ENDBRANCH   7  18
TORSDOF 3
