REMARK  6 active torsions:
REMARK  status: ('A' for Active; 'I' for Inactive)
REMARK    1  A    between atoms: N_3  and  C_6 
REMARK    2  A    between atoms: N_3  and  C_8 
REMARK    3  A    between atoms: N_4  and  C_9 
REMARK    4  A    between atoms: N_5  and  C_10 
REMARK    5  A    between atoms: C_6  and  C_7 
REMARK    6  A    between atoms: C_7  and  C_9 
ROOT
HETATM    1  C   UNK N   1       3.857  -0.711  -0.000  0.00  0.00     0.061 A 
HETATM    2  C   UNK N   1       2.626  -1.420  -0.000  0.00  0.00     0.129 A 
HETATM    3  C   UNK N   1       5.065  -1.429  -0.000  0.00  0.00     0.032 A 
HETATM    4  C   UNK N   1       3.872  -3.518   0.000  0.00  0.00    -0.059 A 
HETATM    5  C   UNK N   1       2.658  -2.826   0.000  0.00  0.00     0.045 A 
HETATM    6  C   UNK N   1       5.074  -2.819  -0.000  0.00  0.00     0.009 A 
HETATM    7  C   UNK N   1       3.887  -5.003   0.000  0.00  0.00     0.048 C 
ENDROOT
BRANCH   1   8
HETATM    8  N   UNK N   1       3.895   0.708  -0.000  0.00  0.00    -0.388 N 
HETATM    9  H   UNK N   1       3.056   1.222  -0.000  0.00  0.00     0.159 HD
BRANCH   8  10
HETATM   10  C   UNK N   1       5.160   1.395  -0.000  0.00  0.00     0.121 C 
BRANCH  10  11
HETATM   11  C   UNK N   1       4.985   2.890  -0.000  0.00  0.00     0.038 C 
BRANCH  11  12
HETATM   12  C   UNK N   1       6.379   3.479   0.000  0.00  0.00     0.112 C 
BRANCH  12  13
HETATM   13  N   UNK N   1       6.308   4.926  -0.000  0.00  0.00    -0.430 N 
HETATM   14  H   UNK N   1       7.165   5.478  -0.000  0.00  0.00     0.149 HD
HETATM   15  H   UNK N   1       5.401   5.392  -0.000  0.00  0.00     0.149 HD
ENDBRANCH  12  13
ENDBRANCH  11  12
ENDBRANCH  10  11
ENDBRANCH   8  10
ENDBRANCH   1   8
BRANCH   2  16
HETATM   16  N   UNK N   1       1.359  -0.756   0.000  0.00  0.00    -0.113 N 
HETATM   17  O   UNK N   1       0.248  -1.464   0.000  0.00  0.00    -0.532 OA
HETATM   18  O   UNK N   1       1.287   0.435  -0.000  0.00  0.00    -0.532 OA
ENDBRANCH   2  16
TORSDOF 6
