REMARK  1 active torsions:
REMARK  status: ('A' for Active; 'I' for Inactive)
REMARK    1  A    between atoms: O_1  and  C_9 
ROOT
HETATM    1  O   UNK N   1      -0.169  -2.468  -0.931  0.00  0.00    -0.293 OA
HETATM    2  C   UNK N   1       6.990  -0.126  -0.403  0.00  0.00     0.001 C 
HETATM    3  C   UNK N   1       6.916   1.407  -0.352  0.00  0.00    -0.014 C 
HETATM    4  C   UNK N   1       5.782  -0.853   0.246  0.00  0.00    -0.001 C 
HETATM    5  C   UNK N   1       4.512   0.015   0.120  0.00  0.00    -0.002 C 
HETATM    6  C   UNK N   1       6.152   1.854   0.905  0.00  0.00     0.012 C 
HETATM    7  C   UNK N   1       4.704   1.328   0.909  0.00  0.00     0.006 C 
HETATM    8  C   UNK N   1       8.382   1.798  -0.330  0.00  0.00     0.126 C 
HETATM    9  C   UNK N   1       5.582  -2.262  -0.348  0.00  0.00    -0.010 C 
HETATM   10  C   UNK N   1       8.280  -0.506   0.327  0.00  0.00     0.008 C 
HETATM   11  C   UNK N   1       3.222  -0.673   0.600  0.00  0.00     0.019 C 
HETATM   12  C   UNK N   1       9.047   0.786   0.572  0.00  0.00     0.033 C 
HETATM   13  C   UNK N   1       4.412  -2.950   0.336  0.00  0.00     0.039 C 
HETATM   14  C   UNK N   1       6.252   1.987  -1.594  0.00  0.00     0.018 C 
HETATM   15  C   UNK N   1       3.183  -2.127   0.163  0.00  0.00    -0.071 C 
HETATM   16  C   UNK N   1       2.023   0.132   0.060  0.00  0.00     0.017 C 
HETATM   17  C   UNK N   1       6.805  -3.140  -0.152  0.00  0.00     0.010 C 
HETATM   18  C   UNK N   1       0.705  -0.611   0.233  0.00  0.00     0.084 C 
HETATM   19  C   UNK N   1       2.074  -2.706  -0.324  0.00  0.00     0.053 C 
HETATM   20  C   UNK N   1       0.809  -1.960  -0.405  0.00  0.00     0.149 C 
ENDROOT
BRANCH   8  21
HETATM   21  O   UNK N   1       8.587   3.105   0.120  0.00  0.00    -0.395 OA
HETATM   22  H   UNK N   1       9.444   3.435   0.432  0.00  0.00     0.210 HD
ENDBRANCH   8  21
TORSDOF 1
