REMARK  6 active torsions:
REMARK  status: ('A' for Active; 'I' for Inactive)
REMARK    1  A    between atoms: C_6  and  C_2 
REMARK    2  A    between atoms: C_9  and  C_6 
REMARK    3  A    between atoms: O_11  and  C_6 
REMARK    4  A    between atoms: N_7  and  C_9 
REMARK    5  A    between atoms: C_10  and  N_7 
REMARK    6  A    between atoms: C_15  and  C_8 
ROOT
HETATM    1  O   UNK N   1      -2.085  -4.088  -0.131  0.00  0.00    -0.311 OA
HETATM    2  C   UNK N   1      -1.328  -5.164  -0.106  0.00  0.00     0.085 A 
HETATM    3  C   UNK N   1      -3.332  -4.460  -0.054  0.00  0.00     0.092 A 
HETATM    4  C   UNK N   1      -2.120  -6.313  -0.009  0.00  0.00     0.049 A 
HETATM    5  C   UNK N   1      -3.408  -5.821   0.024  0.00  0.00     0.001 A 
HETATM    6  C   UNK N   1      -4.458  -3.645  -0.050  0.00  0.00    -0.024 A 
HETATM    7  C   UNK N   1      -4.632  -6.479   0.113  0.00  0.00     0.014 A 
HETATM    8  C   UNK N   1      -5.800  -5.690   0.121  0.00  0.00     0.002 A 
HETATM    9  C   UNK N   1      -5.716  -4.280   0.040  0.00  0.00     0.010 A 
ENDROOT
BRANCH   2  10
HETATM   10  C   UNK N   1       0.167  -5.101  -0.206  0.00  0.00     0.192 C 
BRANCH  10  11
HETATM   11  C   UNK N   1       0.791  -4.321   0.951  0.00  0.00     0.153 C 
BRANCH  11  12
HETATM   12  N   UNK N   1       0.196  -2.992   1.157  0.00  0.00    -0.411 N 
HETATM   13  H   UNK N   1      -0.447  -2.800   1.925  0.00  0.00     0.154 HD
BRANCH  12  14
HETATM   14  C   UNK N   1       0.587  -1.955   0.185  0.00  0.00     0.014 C 
HETATM   15  C   UNK N   1      -0.465  -1.832  -0.901  0.00  0.00     0.037 C 
HETATM   16  C   UNK N   1       0.647  -0.630   0.914  0.00  0.00     0.037 C 
HETATM   17  C   UNK N   1       1.946  -2.195  -0.461  0.00  0.00     0.037 C 
ENDBRANCH  12  14
ENDBRANCH  11  12
ENDBRANCH  10  11
BRANCH  10  18
HETATM   18  O   UNK N   1       0.714  -6.386  -0.231  0.00  0.00    -0.387 OA
HETATM   19  H   UNK N   1       0.132  -7.161  -0.249  0.00  0.00     0.210 HD
ENDBRANCH  10  18
ENDBRANCH   2  10
BRANCH   6  20
HETATM   20  C   UNK N   1      -4.297  -2.152  -0.140  0.00  0.00     0.037 C 
HETATM   21  C   UNK N   1      -5.610  -1.388  -0.122  0.00  0.00     0.010 C 
ENDBRANCH   6  20
TORSDOF 6
