REMARK  9 active torsions:
REMARK  status: ('A' for Active; 'I' for Inactive)
REMARK    1  A    between atoms: C_2  and  C_3 
REMARK    2  A    between atoms: C_3  and  C_4 
REMARK    3  A    between atoms: C_4  and  C_5 
REMARK    4  A    between atoms: C_5  and  C_6 
REMARK    5  A    between atoms: C_6  and  C_7 
REMARK    6  A    between atoms: C_7  and  C_10 
REMARK    7  A    between atoms: C_12  and  O_28 
REMARK    8  A    between atoms: C_21  and  C_24 
REMARK    9  A    between atoms: C_24  and  O_25 
ROOT
HETATM    1  C   UNK N   1       4.785   0.358  -0.273  0.00  0.00    -0.045 A 
HETATM    2  C   UNK N   1       4.098  -0.866  -0.321  0.00  0.00     0.045 A 
HETATM    3  C   UNK N   1       2.704  -0.905  -0.254  0.00  0.00     0.075 A 
HETATM    4  C   UNK N   1       1.973   0.292  -0.170  0.00  0.00     0.013 A 
HETATM    5  C   UNK N   1       2.651   1.524  -0.099  0.00  0.00     0.079 A 
HETATM    6  C   UNK N   1       4.046   1.547  -0.137  0.00  0.00     0.045 A 
HETATM    7  O   UNK N   1       1.969   2.697  -0.031  0.00  0.00    -0.340 OA
HETATM    8  C   UNK N   1       0.606   2.790   0.211  0.00  0.00     0.065 C 
HETATM    9  C   UNK N   1      -0.147   1.656  -0.517  0.00  0.00     0.032 C 
HETATM   10  C   UNK N   1       0.473   0.270  -0.227  0.00  0.00     0.035 C 
HETATM   11  C   UNK N   1      -0.195  -0.403   0.960  0.00  0.00     0.046 C 
HETATM   12  C   UNK N   1      -1.616  -0.642   0.540  0.00  0.00    -0.060 C 
HETATM   13  C   UNK N   1      -2.309   0.342  -0.054  0.00  0.00    -0.021 C 
HETATM   14  C   UNK N   1      -1.683   1.700  -0.285  0.00  0.00     0.035 C 
HETATM   15  C   UNK N   1       0.366   2.741   1.715  0.00  0.00     0.046 C 
HETATM   16  C   UNK N   1       0.126   4.136  -0.301  0.00  0.00     0.046 C 
ENDROOT
BRANCH   1  17
HETATM   17  C   UNK N   1       6.294   0.428  -0.425  0.00  0.00    -0.020 C 
HETATM   18  C   UNK N   1       6.618   1.488  -1.474  0.00  0.00     0.020 C 
HETATM   19  C   UNK N   1       6.878  -0.897  -0.908  0.00  0.00     0.020 C 
BRANCH  17  20
HETATM   20  C   UNK N   1       6.898   0.769   0.946  0.00  0.00     0.013 C 
BRANCH  20  21
HETATM   21  C   UNK N   1       8.340   1.295   1.024  0.00  0.00     0.001 C 
BRANCH  21  22
HETATM   22  C   UNK N   1       9.316   0.801  -0.039  0.00  0.00     0.000 C 
BRANCH  22  23
HETATM   23  C   UNK N   1       9.651   1.921  -1.024  0.00  0.00    -0.000 C 
BRANCH  23  24
HETATM   24  C   UNK N   1      10.407   3.067  -0.364  0.00  0.00    -0.005 C 
HETATM   25  C   UNK N   1       9.444   4.055   0.273  0.00  0.00     0.005 C 
ENDBRANCH  23  24
ENDBRANCH  22  23
ENDBRANCH  21  22
ENDBRANCH  20  21
ENDBRANCH  17  20
ENDBRANCH   1  17
BRANCH   3  26
HETATM   26  O   UNK N   1       2.074  -2.091  -0.310  0.00  0.00    -0.360 OA
HETATM   27  H   UNK N   1       1.138  -2.124  -0.349  0.00  0.00     0.217 HD
ENDBRANCH   3  26
BRANCH  12  28
HETATM   28  C   UNK N   1      -2.220  -1.996   0.695  0.00  0.00     0.198 C 
BRANCH  28  29
HETATM   29  O   UNK N   1      -1.459  -2.935  -0.004  0.00  0.00    -0.397 OA
HETATM   30  H   UNK N   1      -1.759  -3.719  -0.490  0.00  0.00     0.209 HD
ENDBRANCH  28  29
ENDBRANCH  12  28
TORSDOF 9
