REMARK  9 active torsions:
REMARK  status: ('A' for Active; 'I' for Inactive)
REMARK    1  A    between atoms: C_4  and  C_7 
REMARK    2  A    between atoms: C_8  and  C_10 
REMARK    3  A    between atoms: C_8  and  C_11 
REMARK    4  A    between atoms: C_14  and  O_22 
REMARK    5  A    between atoms: O_22  and  C_23 
REMARK    6  A    between atoms: C_23  and  C_24 
REMARK    7  A    between atoms: C_24  and  N_25 
REMARK    8  A    between atoms: N_25  and  C_26 
REMARK    9  A    between atoms: N_25  and  C_27 
ROOT
HETATM    1  C   UNK N   1      -2.606   1.082   0.067  0.00  0.00     0.056 C 
HETATM    2  C   UNK N   1      -2.763  -0.306  -0.013  0.00  0.00     0.007 C 
HETATM    3 Cl   UNK N   1      -4.003   2.152   0.342  0.00  0.00    -0.082 Cl
ENDROOT
BRANCH   2   4
HETATM    4  C   UNK N   1      -4.152  -0.949  -0.011  0.00  0.00    -0.023 A 
HETATM    5  C   UNK N   1      -4.309  -2.305   0.340  0.00  0.00     0.012 A 
HETATM    6  C   UNK N   1      -5.566  -2.915   0.351  0.00  0.00     0.001 A 
HETATM    7  C   UNK N   1      -6.700  -2.181   0.006  0.00  0.00     0.000 A 
HETATM    8  C   UNK N   1      -6.573  -0.841  -0.353  0.00  0.00     0.001 A 
HETATM    9  C   UNK N   1      -5.314  -0.237  -0.362  0.00  0.00     0.012 A 
ENDBRANCH   2   4
BRANCH   2  10
HETATM   10  C   UNK N   1      -1.575  -1.255  -0.032  0.00  0.00    -0.023 A 
HETATM   11  C   UNK N   1      -0.373  -0.932   0.616  0.00  0.00     0.015 A 
HETATM   12  C   UNK N   1       0.708  -1.811   0.615  0.00  0.00     0.037 A 
HETATM   13  C   UNK N   1       0.609  -3.061  -0.011  0.00  0.00     0.068 A 
HETATM   14  C   UNK N   1      -0.597  -3.424  -0.614  0.00  0.00     0.037 A 
HETATM   15  C   UNK N   1      -1.675  -2.532  -0.622  0.00  0.00     0.015 A 
BRANCH  13  16
HETATM   16  O   UNK N   1       1.661  -3.914  -0.053  0.00  0.00    -0.349 OA
BRANCH  16  17
HETATM   17  C   UNK N   1       2.930  -3.556   0.355  0.00  0.00     0.206 C 
BRANCH  17  18
HETATM   18  C   UNK N   1       3.642  -2.811  -0.782  0.00  0.00     0.299 C 
BRANCH  18  19
HETATM   19  N   UNK N   1       4.456  -1.675  -0.330  0.00  0.00     0.089 N 
BRANCH  19  20
HETATM   20  C   UNK N   1       3.603  -0.666   0.286  0.00  0.00     0.268 C 
HETATM   21  C   UNK N   1       4.227   0.709   0.143  0.00  0.00     0.037 C 
ENDBRANCH  19  20
BRANCH  19  22
HETATM   22  C   UNK N   1       5.460  -2.107   0.636  0.00  0.00     0.268 C 
HETATM   23  C   UNK N   1       6.720  -2.539  -0.089  0.00  0.00     0.037 C 
ENDBRANCH  19  22
ENDBRANCH  18  19
ENDBRANCH  17  18
ENDBRANCH  16  17
ENDBRANCH  13  16
ENDBRANCH   2  10
BRANCH   1  24
HETATM   24  C   UNK N   1      -1.310   1.844  -0.064  0.00  0.00    -0.014 A 
HETATM   25  C   UNK N   1      -0.226   1.382  -0.831  0.00  0.00     0.013 A 
HETATM   26  C   UNK N   1       0.933   2.152  -0.976  0.00  0.00     0.001 A 
HETATM   27  C   UNK N   1       1.016   3.410  -0.379  0.00  0.00     0.000 A 
HETATM   28  C   UNK N   1      -0.064   3.904   0.352  0.00  0.00     0.001 A 
HETATM   29  C   UNK N   1      -1.219   3.133   0.496  0.00  0.00     0.013 A 
ENDBRANCH   1  24
TORSDOF 9
