REMARK  9 active torsions:
REMARK  status: ('A' for Active; 'I' for Inactive)
REMARK    1  A    between atoms: C_16  and  C_10 
REMARK    2  A    between atoms: C_21  and  C_11 
REMARK    3  A    between atoms: C_13  and  C_12 
REMARK    4  A    between atoms: C_18  and  C_12 
REMARK    5  A    between atoms: N_22  and  C_13 
REMARK    6  A    between atoms: C_17  and  C_14 
REMARK    7  A    between atoms: N_22  and  C_14 
REMARK    8  A    between atoms: O_26  and  C_21 
REMARK    9  A    between atoms: N_24  and  O_27 
ROOT
HETATM    1  C   UNK N   1       0.659   3.978  -0.087  0.00  0.00     0.152 C 
ENDROOT
BRANCH   1   2
HETATM    2  C   UNK N   1       1.850   3.090   0.058  0.00  0.00    -0.041 A 
HETATM    3  C   UNK N   1       3.138   3.580  -0.179  0.00  0.00     0.009 A 
HETATM    4  C   UNK N   1       4.238   2.715  -0.101  0.00  0.00     0.012 A 
HETATM    5  C   UNK N   1       4.047   1.361   0.213  0.00  0.00    -0.036 A 
HETATM    6  C   UNK N   1       2.755   0.896   0.488  0.00  0.00     0.012 A 
HETATM    7  C   UNK N   1       1.670   1.755   0.421  0.00  0.00     0.009 A 
BRANCH   5   8
HETATM    8  C   UNK N   1       5.187   0.422   0.161  0.00  0.00     0.015 C 
HETATM    9  C   UNK N   1       5.003  -0.909   0.257  0.00  0.00     0.058 C 
BRANCH   9  10
HETATM   10  C   UNK N   1       6.108  -1.870   0.111  0.00  0.00     0.159 C 
HETATM   11  N   UNK N   1       5.847  -3.129   0.119  0.00  0.00    -0.248 N 
ATOM     12  HN  UNK N   1       4.885  -3.442   0.251  1.00  0.00     0.196 HD
BRANCH  11  13
HETATM   13  O   UNK N   1       6.801  -4.020  -0.040  0.00  0.00    -0.288 OA
HETATM   14  H   UNK N   1       6.591  -4.926  -0.154  0.00  0.00     0.244 HD
ENDBRANCH  11  13
BRANCH  10  15
HETATM   15  O   UNK N   1       7.377  -1.440  -0.062  0.00  0.00    -0.345 OA
HETATM   16  H   UNK N   1       8.076  -2.052  -0.182  0.00  0.00     0.219 HD
ENDBRANCH  10  15
ENDBRANCH   9  10
ENDBRANCH   5   8
ENDBRANCH   1   2
BRANCH   1  17
HETATM   17  N   UNK N   1      -0.127   3.676  -1.293  0.00  0.00    -0.417 N 
HETATM   18  H   UNK N   1      -0.317   4.364  -2.022  0.00  0.00     0.153 HD
BRANCH  17  19
HETATM   19  C   UNK N   1      -0.613   2.292  -1.348  0.00  0.00     0.118 C 
BRANCH  19  20
HETATM   20  C   UNK N   1      -1.424   1.879  -0.119  0.00  0.00     0.060 C 
BRANCH  20  21
HETATM   21  C   UNK N   1      -2.778   2.506  -0.100  0.00  0.00    -0.022 A 
HETATM   22  C   UNK N   1      -3.990   1.858  -0.289  0.00  0.00     0.013 A 
HETATM   23  C   UNK N   1      -4.168   0.403  -0.554  0.00  0.00     0.068 C 
HETATM   24  N   UNK N   1      -5.020   2.733  -0.202  0.00  0.00    -0.359 N 
HETATM   25  C   UNK N   1      -4.452   3.930   0.047  0.00  0.00     0.043 A 
HETATM   26  H   UNK N   1      -5.980   2.537  -0.300  0.00  0.00     0.166 HD
HETATM   27  C   UNK N   1      -5.106   5.146   0.223  0.00  0.00     0.030 A 
HETATM   28  C   UNK N   1      -3.089   3.826   0.120  0.00  0.00    -0.001 A 
HETATM   29  C   UNK N   1      -4.317   6.282   0.483  0.00  0.00     0.002 A 
HETATM   30  C   UNK N   1      -2.911   6.175   0.565  0.00  0.00     0.001 A 
HETATM   31  C   UNK N   1      -2.283   4.931   0.383  0.00  0.00     0.014 A 
ENDBRANCH  20  21
ENDBRANCH  19  20
ENDBRANCH  17  19
ENDBRANCH   1  17
TORSDOF 9
