REMARK  8 active torsions:
REMARK  status: ('A' for Active; 'I' for Inactive)
REMARK    1  A    between atoms: C_29  and  O_1 
REMARK    2  A    between atoms: O_1  and  C_37 
REMARK    3  A    between atoms: O_5  and  C_42 
REMARK    4  A    between atoms: C_14  and  C_31 
REMARK    5  A    between atoms: C_22  and  C_34 
REMARK    6  A    between atoms: C_37  and  C_38 
REMARK    7  A    between atoms: C_38  and  C_39 
REMARK    8  A    between atoms: C_39  and  C_42 
ROOT
HETATM    1  O   UNK N   1      14.470   1.044  -1.274  0.00  0.00    -0.776 OA
HETATM    2  O   UNK N   1      15.444   0.629   0.670  0.00  0.00    -0.649 OA
HETATM    3  C   UNK N   1      14.451   1.017   0.073  0.00  0.00     0.149 C 
HETATM    4  H   UNK N   1      14.493   1.042  -2.211  0.00  0.00     0.167 HD
ENDROOT
BRANCH   3   5
HETATM    5  C   UNK N   1      13.216   1.439   0.863  0.00  0.00     0.050 C 
HETATM    6  C   UNK N   1      12.022   1.966  -0.006  0.00  0.00     0.017 C 
HETATM    7  C   UNK N   1      10.745   1.066   0.111  0.00  0.00     0.000 C 
HETATM    8  C   UNK N   1      11.906   3.474   0.277  0.00  0.00     0.019 C 
HETATM    9  C   UNK N   1      11.169  -0.416  -0.174  0.00  0.00    -0.032 C 
HETATM   10  C   UNK N   1       9.577   1.569  -0.756  0.00  0.00     0.006 C 
HETATM   11  C   UNK N   1       9.933  -1.368  -0.222  0.00  0.00    -0.032 C 
HETATM   12  C   UNK N   1      12.174  -0.885   0.913  0.00  0.00     0.011 C 
HETATM   13  C   UNK N   1      11.892  -0.505  -1.532  0.00  0.00     0.016 C 
HETATM   14  C   UNK N   1       8.863  -0.855  -1.289  0.00  0.00     0.003 C 
HETATM   15  C   UNK N   1       9.270  -1.546   1.173  0.00  0.00     0.011 C 
HETATM   16  C   UNK N   1      10.441  -2.774  -0.605  0.00  0.00     0.016 C 
HETATM   17  C   UNK N   1       7.386  -1.104  -0.838  0.00  0.00    -0.035 C 
HETATM   18  C   UNK N   1       9.112   0.576  -1.815  0.00  0.00     0.006 C 
HETATM   19  C   UNK N   1       7.358  -2.548  -0.243  0.00  0.00     0.004 C 
HETATM   20  C   UNK N   1       6.376  -0.984  -1.981  0.00  0.00     0.012 C 
HETATM   21  C   UNK N   1       6.965  -0.043   0.205  0.00  0.00     0.016 C 
HETATM   22  C   UNK N   1       8.026  -2.491   1.156  0.00  0.00     0.007 C 
HETATM   23  C   UNK N   1       5.987  -3.290  -0.376  0.00  0.00    -0.017 C 
HETATM   24  C   UNK N   1       4.806  -2.322  -0.379  0.00  0.00     0.140 C 
HETATM   25  C   UNK N   1       5.826  -4.388   0.666  0.00  0.00     0.018 C 
HETATM   26  C   UNK N   1       5.915  -4.003  -1.731  0.00  0.00     0.018 C 
HETATM   27  C   UNK N   1       4.933  -1.217  -1.464  0.00  0.00     0.034 C 
HETATM   28  C   UNK N   1      12.791   0.256   1.743  0.00  0.00     0.022 C 
HETATM   29  C   UNK N   1      13.228   3.846   0.929  0.00  0.00     0.011 C 
HETATM   30  C   UNK N   1      13.591   2.619   1.745  0.00  0.00     0.021 C 
BRANCH  24  31
HETATM   31  O   UNK N   1       4.536  -1.792   0.859  0.00  0.00    -0.315 OA
BRANCH  31  32
HETATM   32  C   UNK N   1       3.398  -2.084   1.541  0.00  0.00     0.260 C 
HETATM   33  O   UNK N   1       3.222  -1.568   2.635  0.00  0.00    -0.265 OA
BRANCH  32  34
HETATM   34  C   UNK N   1       2.353  -3.069   1.042  0.00  0.00     0.130 C 
BRANCH  34  35
HETATM   35  C   UNK N   1       1.575  -2.761  -0.259  0.00  0.00     0.047 C 
HETATM   36  C   UNK N   1       2.329  -3.256  -1.479  0.00  0.00     0.027 C 
HETATM   37  C   UNK N   1       0.300  -3.585  -0.202  0.00  0.00     0.027 C 
BRANCH  35  38
HETATM   38  C   UNK N   1       1.243  -1.290  -0.424  0.00  0.00     0.148 C 
HETATM   39  O   UNK N   1       2.138  -0.464  -0.515  0.00  0.00    -0.649 OA
BRANCH  38  40
HETATM   40  O   UNK N   1      -0.038  -0.879  -0.500  0.00  0.00    -0.776 OA
HETATM   41  H   UNK N   1      -0.236   0.036  -0.553  0.00  0.00     0.167 HD
ENDBRANCH  38  40
ENDBRANCH  35  38
ENDBRANCH  34  35
ENDBRANCH  32  34
ENDBRANCH  31  32
ENDBRANCH  24  31
BRANCH   8  42
HETATM   42  C   UNK N   1      10.728   3.958   1.079  0.00  0.00    -0.088 C 
HETATM   43  C   UNK N   1       9.796   4.936   0.449  0.00  0.00     0.043 C 
HETATM   44  C   UNK N   1      10.533   3.589   2.344  0.00  0.00     0.014 C 
ENDBRANCH   8  42
ENDBRANCH   3   5
TORSDOF 8
