REMARK  5 active torsions:
REMARK  status: ('A' for Active; 'I' for Inactive)
REMARK    1  A    between atoms: C_2  and  C_1 
REMARK    2  A    between atoms: C_3  and  C_1 
REMARK    3  A    between atoms: S_4  and  C_1 
REMARK    4  A    between atoms: S_4  and  C_9 
REMARK    5  A    between atoms: C_15  and  C_9 
REMARK       I    between atoms: N_18  and  C_15 
ROOT
HETATM    1  C   UNK N   1      -0.187   0.767   0.302  0.00  0.00     0.145 C 
ENDROOT
BRANCH   1   2
HETATM    2  C   UNK N   1      -1.546   1.450   0.201  0.00  0.00    -0.038 A 
HETATM    3  C   UNK N   1      -2.596   1.013   1.023  0.00  0.00     0.009 A 
HETATM    4  C   UNK N   1      -3.846   1.638   0.973  0.00  0.00     0.001 A 
HETATM    5  C   UNK N   1      -4.053   2.718   0.112  0.00  0.00     0.000 A 
HETATM    6  C   UNK N   1      -3.014   3.169  -0.704  0.00  0.00     0.001 A 
HETATM    7  C   UNK N   1      -1.768   2.536  -0.663  0.00  0.00     0.009 A 
ENDBRANCH   1   2
BRANCH   1   8
HETATM    8  C   UNK N   1      -0.218  -0.731   0.038  0.00  0.00    -0.038 A 
HETATM    9  C   UNK N   1       0.918  -1.503   0.327  0.00  0.00     0.009 A 
HETATM   10  C   UNK N   1       0.913  -2.885   0.124  0.00  0.00     0.001 A 
HETATM   11  C   UNK N   1      -0.233  -3.514  -0.366  0.00  0.00     0.000 A 
HETATM   12  C   UNK N   1      -1.372  -2.760  -0.657  0.00  0.00     0.001 A 
HETATM   13  C   UNK N   1      -1.366  -1.376  -0.457  0.00  0.00     0.009 A 
ENDBRANCH   1   8
BRANCH   1  14
HETATM   14  S   UNK N   1       1.127   1.573  -0.714  0.00  0.00     0.037 S 
HETATM   15  O   UNK N   1       1.000   2.930  -0.003  0.00  0.00    -0.257 OA
BRANCH  14  16
HETATM   16  C   UNK N   1       2.468   1.107   0.424  0.00  0.00     0.212 C 
BRANCH  16  17
HETATM   17  C   UNK N   1       3.775   1.079  -0.296  0.00  0.00     0.227 C 
HETATM   18  N   UNK N   1       4.452  -0.079  -0.410  0.00  0.00    -0.369 N 
HETATM   19  H   UNK N   1       3.967  -0.931  -0.494  0.00  0.00     0.159 HD
HETATM   20  H   UNK N   1       5.437  -0.073  -0.410  0.00  0.00     0.159 HD
HETATM   21  O   UNK N   1       4.239   2.105  -0.766  0.00  0.00    -0.273 OA
ENDBRANCH  16  17
ENDBRANCH  14  16
ENDBRANCH   1  14
TORSDOF 5
