REMARK  5 active torsions:
REMARK  status: ('A' for Active; 'I' for Inactive)
REMARK    1  A    between atoms: C_2  and  C_7 
REMARK    2  A    between atoms: O_9  and  C_2 
REMARK    3  A    between atoms: C_14  and  O_9 
REMARK    4  A    between atoms: N_11  and  C_15 
REMARK    5  A    between atoms: C_15  and  C_14 
ROOT
HETATM    1  C   UNK N   1      -1.850   0.074  -0.455  0.00  0.00    -0.001 C 
HETATM    2  C   UNK N   1      -0.295   0.069  -0.215  0.00  0.00     0.096 C 
HETATM    3  C   UNK N   1      -2.270   1.507  -0.097  0.00  0.00    -0.034 C 
HETATM    4  C   UNK N   1      -0.222   0.934   1.065  0.00  0.00     0.049 C 
HETATM    5  C   UNK N   1      -1.674   1.391   1.303  0.00  0.00    -0.003 C 
HETATM    6  C   UNK N   1      -2.545  -0.733   0.661  0.00  0.00     0.014 C 
HETATM    7  C   UNK N   1      -2.390   0.171   1.884  0.00  0.00     0.006 C 
HETATM    8  C   UNK N   1      -2.269  -0.404  -1.842  0.00  0.00     0.019 C 
HETATM    9  C   UNK N   1      -3.787   1.748  -0.101  0.00  0.00     0.016 C 
HETATM   10  C   UNK N   1      -1.649   2.628  -0.933  0.00  0.00     0.016 C 
ENDROOT
BRANCH   2  11
HETATM   11  C   UNK N   1       0.307  -1.341  -0.002  0.00  0.00    -0.023 A 
HETATM   12  C   UNK N   1       1.610  -1.480   0.510  0.00  0.00     0.010 A 
HETATM   13  C   UNK N   1       2.169  -2.744   0.714  0.00  0.00     0.001 A 
HETATM   14  C   UNK N   1       1.432  -3.889   0.413  0.00  0.00     0.000 A 
HETATM   15  C   UNK N   1       0.136  -3.771  -0.091  0.00  0.00     0.001 A 
HETATM   16  C   UNK N   1      -0.423  -2.506  -0.296  0.00  0.00     0.010 A 
ENDBRANCH   2  11
BRANCH   2  17
HETATM   17  O   UNK N   1       0.303   0.782  -1.299  0.00  0.00    -0.373 OA
BRANCH  17  18
HETATM   18  C   UNK N   1       1.707   0.668  -1.375  0.00  0.00     0.199 C 
BRANCH  18  19
HETATM   19  C   UNK N   1       2.442   1.666  -0.476  0.00  0.00     0.297 C 
BRANCH  19  20
HETATM   20  N   UNK N   1       1.802   2.976  -0.437  0.00  0.00     0.082 N 
HETATM   21  C   UNK N   1       1.927   3.609  -1.740  0.00  0.00     0.309 C 
HETATM   22  C   UNK N   1       2.573   3.779   0.493  0.00  0.00     0.309 C 
ENDBRANCH  19  20
ENDBRANCH  18  19
ENDBRANCH  17  18
ENDBRANCH   2  17
TORSDOF 5
