REMARK  4 active torsions:
REMARK  status: ('A' for Active; 'I' for Inactive)
REMARK    1  A    between atoms: C_4  and  C_8 
REMARK    2  A    between atoms: C_9  and  C_8 
REMARK    3  A    between atoms: C_14  and  N_15 
REMARK       I    between atoms: N_15  and  C_18 
REMARK    4  A    between atoms: C_18  and  C_20 
ROOT
HETATM    1  C   UNK N   1       0.430  -1.519  -0.592  0.00  0.00     0.250 C 
HETATM    2  N   UNK N   1       0.884  -2.807  -1.184  0.00  0.00     0.095 N 
HETATM    3  C   UNK N   1      -0.227  -3.331  -2.013  0.00  0.00     0.273 C 
HETATM    4  C   UNK N   1      -1.539  -3.453  -1.191  0.00  0.00     0.037 C 
HETATM    5  C   UNK N   1      -1.247  -3.188   0.294  0.00  0.00     0.014 C 
HETATM    6  C   UNK N   1      -0.652  -1.773   0.491  0.00  0.00     0.122 C 
HETATM    7  C   UNK N   1       1.152  -3.827  -0.146  0.00  0.00     0.273 C 
HETATM    8  C   UNK N   1      -0.122  -4.168   0.668  0.00  0.00     0.037 C 
ENDROOT
BRANCH   6   9
HETATM    9  N   UNK N   1      -1.607  -0.684   0.545  0.00  0.00    -0.348 N 
HETATM   10  C   UNK N   1      -2.460  -0.284  -0.433  0.00  0.00     0.275 C 
HETATM   11  O   UNK N   1      -2.571  -0.899  -1.483  0.00  0.00    -0.265 OA
HETATM   12  H   UNK N   1      -1.640  -0.175   1.387  0.00  0.00     0.163 HD
BRANCH  10  13
HETATM   13  C   UNK N   1      -3.078   1.020  -0.284  0.00  0.00     0.144 A 
HETATM   14  C   UNK N   1      -2.374   2.204  -0.482  0.00  0.00     0.057 A 
HETATM   15  C   UNK N   1      -3.168   3.165   0.087  0.00  0.00     0.001 A 
HETATM   16  C   UNK N   1      -2.964   4.531   0.220  0.00  0.00     0.014 A 
HETATM   17  C   UNK N   1      -4.263   2.535   0.612  0.00  0.00     0.086 A 
HETATM   18  C   UNK N   1      -3.937   5.269   0.918  0.00  0.00     0.001 A 
HETATM   19  C   UNK N   1      -5.073   4.622   1.460  0.00  0.00     0.003 A 
HETATM   20  C   UNK N   1      -5.244   3.233   1.311  0.00  0.00     0.038 A 
HETATM   21  O   UNK N   1      -4.184   1.248   0.401  0.00  0.00    -0.304 OA
ENDBRANCH  10  13
ENDBRANCH   6   9
BRANCH   1  22
HETATM   22  C   UNK N   1       1.531  -0.562  -0.091  0.00  0.00     0.078 C 
BRANCH  22  23
HETATM   23  C   UNK N   1       2.923  -1.094   0.010  0.00  0.00    -0.041 A 
HETATM   24  C   UNK N   1       3.270  -2.056   0.962  0.00  0.00     0.010 A 
HETATM   25  C   UNK N   1       4.587  -2.510   1.040  0.00  0.00     0.018 A 
HETATM   26  C   UNK N   1       5.546  -1.979   0.174  0.00  0.00     0.087 A 
HETATM   27  N   UNK N   1       5.195  -1.026  -0.732  0.00  0.00    -0.375 N 
HETATM   28  C   UNK N   1       3.914  -0.577  -0.827  0.00  0.00     0.094 A 
ATOM     29  HN  UNK N   1       5.906  -0.641  -1.352  1.00  0.00     0.164 HD
ENDBRANCH  22  23
ENDBRANCH   1  22
TORSDOF 4
