REMARK  8 active torsions:
REMARK  status: ('A' for Active; 'I' for Inactive)
REMARK    1  A    between atoms: C_2  and  N_19 
REMARK    2  A    between atoms: C_2  and  C_20 
REMARK    3  A    between atoms: C_4  and  O_23 
REMARK    4  A    between atoms: C_7  and  O_33 
REMARK    5  A    between atoms: C_8  and  O_32 
REMARK    6  A    between atoms: C_24  and  O_23 
REMARK    7  A    between atoms: C_26  and  O_31 
REMARK    8  A    between atoms: C_27  and  O_30 
ROOT
HETATM    1  C   UNK N   1      -2.806  -1.316  -1.178  0.00  0.00     0.075 C 
HETATM    2  C   UNK N   1      -3.099  -2.500  -0.265  0.00  0.00     0.091 C 
HETATM    3  C   UNK N   1      -1.817  -3.118   0.317  0.00  0.00     0.080 C 
HETATM    4  C   UNK N   1      -1.745  -0.317  -0.712  0.00  0.00     0.163 C 
HETATM    5  C   UNK N   1      -0.506  -0.981  -0.169  0.00  0.00     0.014 A 
HETATM    6  C   UNK N   1      -0.527  -2.328   0.232  0.00  0.00    -0.010 A 
HETATM    7  C   UNK N   1       0.682  -2.992   0.505  0.00  0.00     0.088 A 
HETATM    8  C   UNK N   1       0.708  -0.269  -0.185  0.00  0.00     0.090 A 
HETATM    9  C   UNK N   1       1.926  -0.931   0.081  0.00  0.00     0.066 A 
HETATM   10  C   UNK N   1       1.918  -2.311   0.379  0.00  0.00     0.066 A 
HETATM   11  C   UNK N   1       3.219  -3.046   0.496  0.00  0.00     0.197 A 
HETATM   12  C   UNK N   1       3.228  -0.201  -0.031  0.00  0.00     0.197 A 
HETATM   13  C   UNK N   1       4.499  -0.953   0.004  0.00  0.00     0.029 A 
HETATM   14  C   UNK N   1       4.495  -2.336   0.242  0.00  0.00     0.029 A 
HETATM   15  C   UNK N   1       5.706  -3.045   0.220  0.00  0.00     0.016 A 
HETATM   16  C   UNK N   1       6.909  -2.381  -0.036  0.00  0.00     0.001 A 
HETATM   17  C   UNK N   1       6.913  -1.003  -0.257  0.00  0.00     0.001 A 
HETATM   18  C   UNK N   1       5.712  -0.290  -0.237  0.00  0.00     0.016 A 
HETATM   19  O   UNK N   1       3.253   1.008  -0.199  0.00  0.00    -0.286 OA
HETATM   20  O   UNK N   1       3.237  -4.247   0.717  0.00  0.00    -0.286 OA
ENDROOT
BRANCH   4  21
HETATM   21  O   UNK N   1      -2.262   0.681   0.148  0.00  0.00    -0.351 OA
BRANCH  21  22
HETATM   22  C   UNK N   1      -2.259   1.913  -0.550  0.00  0.00     0.263 C 
HETATM   23  C   UNK N   1      -2.184   3.120   0.396  0.00  0.00     0.095 C 
HETATM   24  C   UNK N   1      -3.415   4.002   0.219  0.00  0.00     0.153 C 
HETATM   25  C   UNK N   1      -4.665   3.126   0.257  0.00  0.00     0.170 C 
HETATM   26  C   UNK N   1      -4.553   1.974  -0.754  0.00  0.00     0.205 C 
HETATM   27  O   UNK N   1      -3.334   2.002  -1.470  0.00  0.00    -0.359 OA
BRANCH  24  28
HETATM   28  O   UNK N   1      -3.461   4.968   1.223  0.00  0.00    -0.393 OA
HETATM   29  H   UNK N   1      -2.895   5.331   1.922  0.00  0.00     0.210 HD
ENDBRANCH  24  28
BRANCH  25  30
HETATM   30  O   UNK N   1      -5.804   3.883  -0.008  0.00  0.00    -0.391 OA
HETATM   31  H   UNK N   1      -5.745   4.834  -0.193  0.00  0.00     0.210 HD
ENDBRANCH  25  30
ENDBRANCH  21  22
ENDBRANCH   4  21
BRANCH   8  32
HETATM   32  O   UNK N   1       0.705   1.031  -0.534  0.00  0.00    -0.359 OA
HETATM   33  H   UNK N   1       1.488   1.485  -0.777  0.00  0.00     0.217 HD
ENDBRANCH   8  32
BRANCH   2  34
HETATM   34  N   UNK N   1      -3.689  -3.529  -1.107  0.00  0.00    -0.415 N 
HETATM   35  H   UNK N   1      -4.521  -3.531  -1.697  0.00  0.00     0.151 HD
HETATM   36  H   UNK N   1      -3.177  -4.411  -1.107  0.00  0.00     0.151 HD
ENDBRANCH   2  34
BRANCH   2  37
HETATM   37  C   UNK N   1      -4.094  -2.109   0.811  0.00  0.00     0.150 C 
HETATM   38  O   UNK N   1      -3.812  -1.251   1.631  0.00  0.00    -0.296 OA
HETATM   39  C   UNK N   1      -5.452  -2.744   0.870  0.00  0.00     0.093 C 
ENDBRANCH   2  37
BRANCH   7  40
HETATM   40  O   UNK N   1       0.652  -4.297   0.832  0.00  0.00    -0.359 OA
HETATM   41  H   UNK N   1      -0.145  -4.734   1.060  0.00  0.00     0.217 HD
ENDBRANCH   7  40
TORSDOF 8
