REMARK  9 active torsions:
REMARK  status: ('A' for Active; 'I' for Inactive)
REMARK    1  A    between atoms: C_7  and  C_34 
REMARK    2  A    between atoms: N_10  and  C_13 
REMARK    3  A    between atoms: C_15  and  N_22 
REMARK    4  A    between atoms: C_16  and  C_19 
REMARK       I    between atoms: C_19  and  N_21 
REMARK    5  A    between atoms: C_23  and  N_22 
REMARK    6  A    between atoms: C_26  and  O_29 
REMARK    7  A    between atoms: O_29  and  C_30 
REMARK    8  A    between atoms: C_30  and  C_32 
REMARK    9  A    between atoms: C_32  and  N_33 
ROOT
HETATM    1  C   UNK N   1       1.193   3.640   0.952  0.00  0.00     0.058 A 
HETATM    2  C   UNK N   1      -0.146   3.881   0.763  0.00  0.00     0.061 A 
HETATM    3  C   UNK N   1      -0.637   5.131   0.411  0.00  0.00     0.046 A 
HETATM    4  C   UNK N   1       0.268   6.217   0.298  0.00  0.00     0.058 A 
HETATM    5  C   UNK N   1       1.625   5.996   0.594  0.00  0.00     0.022 A 
HETATM    6  C   UNK N   1       2.088   4.713   0.888  0.00  0.00     0.032 A 
ENDROOT
BRANCH   1   7
HETATM    7  N   UNK N   1       1.629   2.276   0.839  0.00  0.00    -0.259 N 
HETATM    8  N   UNK N   1       0.820   1.231   0.926  0.00  0.00    -0.288 N 
HETATM    9  C   UNK N   1       1.487   0.134   0.498  0.00  0.00     0.148 A 
ATOM     10  HN  UNK N   1      -0.144   1.250   1.259  1.00  0.00     0.187 HD
HETATM   11  C   UNK N   1       2.783   0.526   0.138  0.00  0.00     0.067 A 
HETATM   12  C   UNK N   1       3.935  -0.166  -0.471  0.00  0.00     0.164 C 
HETATM   13  C   UNK N   1       2.820   1.876   0.359  0.00  0.00     0.051 A 
HETATM   14  C   UNK N   1       5.162   0.636  -0.848  0.00  0.00     0.093 C 
HETATM   15  O   UNK N   1       3.895  -1.353  -0.737  0.00  0.00    -0.292 OA
HETATM   16  C   UNK N   1       5.260   2.046  -0.221  0.00  0.00    -0.036 C 
HETATM   17  C   UNK N   1       5.879   1.975   1.161  0.00  0.00     0.015 C 
HETATM   18  C   UNK N   1       3.926   2.766  -0.107  0.00  0.00     0.069 C 
HETATM   19  C   UNK N   1       6.153   2.895  -1.102  0.00  0.00     0.015 C 
BRANCH   9  20
HETATM   20  C   UNK N   1       0.795  -1.198   0.346  0.00  0.00     0.434 C 
HETATM   21  F   UNK N   1       0.390  -1.663   1.582  0.00  0.00    -0.165 F 
HETATM   22  F   UNK N   1      -0.326  -1.023  -0.449  0.00  0.00    -0.165 F 
HETATM   23  F   UNK N   1       1.590  -2.153  -0.249  0.00  0.00    -0.165 F 
ENDBRANCH   9  20
ENDBRANCH   1   7
BRANCH   3  24
HETATM   24  N   UNK N   1      -1.999   5.224   0.004  0.00  0.00    -0.384 N 
HETATM   25  H   UNK N   1      -2.578   5.909   0.411  0.00  0.00     0.160 HD
BRANCH  24  26
HETATM   26  C   UNK N   1      -2.554   4.321  -1.006  0.00  0.00     0.082 C 
HETATM   27  C   UNK N   1      -2.056   2.873  -0.915  0.00  0.00     0.028 C 
HETATM   28  C   UNK N   1      -2.569   2.232   0.374  0.00  0.00     0.034 C 
HETATM   29  C   UNK N   1      -4.080   2.113   0.278  0.00  0.00     0.132 C 
HETATM   30  C   UNK N   1      -4.695   3.516   0.119  0.00  0.00     0.034 C 
HETATM   31  C   UNK N   1      -4.083   4.333  -1.031  0.00  0.00     0.028 C 
BRANCH  29  32
HETATM   32  O   UNK N   1      -4.375   1.285  -0.787  0.00  0.00    -0.315 OA
BRANCH  32  33
HETATM   33  C   UNK N   1      -4.140  -0.053  -0.739  0.00  0.00     0.276 C 
HETATM   34  O   UNK N   1      -3.960  -0.669  -1.776  0.00  0.00    -0.263 OA
BRANCH  33  35
HETATM   35  C   UNK N   1      -4.096  -0.788   0.568  0.00  0.00     0.223 C 
BRANCH  35  36
HETATM   36  N   UNK N   1      -5.143  -1.796   0.592  0.00  0.00    -0.422 N 
HETATM   37  H   UNK N   1      -6.123  -1.513   0.610  0.00  0.00     0.150 HD
HETATM   38  H   UNK N   1      -4.898  -2.786   0.592  0.00  0.00     0.150 HD
ENDBRANCH  35  36
ENDBRANCH  33  35
ENDBRANCH  32  33
ENDBRANCH  29  32
ENDBRANCH  24  26
ENDBRANCH   3  24
BRANCH   4  39
HETATM   39  C   UNK N   1      -0.123   7.551  -0.226  0.00  0.00     0.251 C 
HETATM   40  O   UNK N   1       0.733   8.404  -0.410  0.00  0.00    -0.268 OA
HETATM   41  N   UNK N   1      -1.398   7.817  -0.573  0.00  0.00    -0.366 N 
HETATM   42  H   UNK N   1      -1.695   8.721  -0.827  0.00  0.00     0.159 HD
HETATM   43  H   UNK N   1      -2.054   7.084  -0.573  0.00  0.00     0.159 HD
ENDBRANCH   4  39
TORSDOF 9
