REMARK  10 active torsions:
REMARK  status: ('A' for Active; 'I' for Inactive)
REMARK    1  A    between atoms: C_2  and  S_7 
REMARK    2  A    between atoms: C_5  and  C_11 
REMARK    3  A    between atoms: C_14  and  C_17 
REMARK    4  A    between atoms: C_17  and  N_18 
REMARK    5  A    between atoms: C_17  and  C_28 
REMARK    6  A    between atoms: N_18  and  C_19 
REMARK    7  A    between atoms: C_19  and  C_20 
REMARK    8  A    between atoms: C_19  and  C_29 
REMARK       I    between atoms: C_20  and  N_21 
REMARK    9  A    between atoms: N_21  and  C_23 
REMARK   10  A    between atoms: C_29  and  C_33 
ROOT
HETATM    1  C   UNK N   1       5.536  -0.564  -0.087  0.00  0.00     0.122 A 
HETATM    2  C   UNK N   1       5.624  -1.693   0.939  0.00  0.00     0.050 A 
HETATM    3  C   UNK N   1       6.402  -1.784  -0.336  0.00  0.00     0.050 A 
HETATM    4  C   UNK N   1       6.375   0.617   0.052  0.00  0.00     0.091 C 
HETATM    5  N   UNK N   1       7.015   1.576   0.142  0.00  0.00    -0.195 NA
ENDROOT
BRANCH   1   6
HETATM    6  N   UNK N   1       4.354  -0.517  -0.914  0.00  0.00    -0.337 N 
HETATM    7  C   UNK N   1       3.149  -0.221  -0.383  0.00  0.00     0.241 C 
HETATM    8  O   UNK N   1       2.417  -1.146  -0.066  0.00  0.00    -0.271 OA
HETATM    9  H   UNK N   1       4.428  -0.703  -1.878  0.00  0.00     0.164 HD
BRANCH   7  10
HETATM   10  C   UNK N   1       2.794   1.220   0.016  0.00  0.00     0.173 C 
BRANCH  10  11
HETATM   11  N   UNK N   1       1.771   1.990  -0.707  0.00  0.00    -0.394 N 
HETATM   12  H   UNK N   1       1.761   2.222  -1.700  0.00  0.00     0.155 HD
BRANCH  11  13
HETATM   13  C   UNK N   1       0.766   2.355   0.300  0.00  0.00     0.219 C 
BRANCH  13  14
HETATM   14  C   UNK N   1       0.097   3.776   0.136  0.00  0.00     0.411 C 
HETATM   15  F   UNK N   1       0.915   4.852   0.327  0.00  0.00    -0.168 F 
HETATM   16  F   UNK N   1      -0.490   3.904  -1.117  0.00  0.00    -0.168 F 
HETATM   17  F   UNK N   1      -0.879   3.903   1.117  0.00  0.00    -0.168 F 
ENDBRANCH  13  14
BRANCH  13  18
HETATM   18  C   UNK N   1      -0.270   1.304   0.218  0.00  0.00    -0.027 A 
HETATM   19  C   UNK N   1       0.054  -0.047   0.372  0.00  0.00     0.010 A 
HETATM   20  C   UNK N   1      -0.918  -1.015   0.179  0.00  0.00     0.013 A 
HETATM   21  C   UNK N   1      -2.209  -0.599  -0.157  0.00  0.00    -0.026 A 
HETATM   22  C   UNK N   1      -2.513   0.744  -0.287  0.00  0.00     0.013 A 
HETATM   23  C   UNK N   1      -1.560   1.670  -0.119  0.00  0.00     0.010 A 
BRANCH  21  24
HETATM   24  C   UNK N   1      -3.314  -1.502  -0.191  0.00  0.00    -0.026 A 
HETATM   25  C   UNK N   1      -3.137  -2.873  -0.084  0.00  0.00     0.014 A 
HETATM   26  C   UNK N   1      -4.251  -3.674   0.104  0.00  0.00     0.024 A 
HETATM   27  C   UNK N   1      -5.549  -3.111   0.198  0.00  0.00     0.058 A 
HETATM   28  C   UNK N   1      -5.679  -1.720   0.092  0.00  0.00     0.024 A 
HETATM   29  C   UNK N   1      -4.588  -0.938  -0.131  0.00  0.00     0.014 A 
BRANCH  27  30
HETATM   30  S   UNK N   1      -6.983  -4.130   0.755  0.00  0.00     0.171 S 
HETATM   31  O   UNK N   1      -7.721  -4.591  -0.503  0.00  0.00    -0.223 OA
HETATM   32  O   UNK N   1      -6.169  -5.322   0.227  0.00  0.00    -0.223 OA
HETATM   33  C   UNK N   1      -7.910  -3.045  -0.389  0.00  0.00     0.167 C 
ENDBRANCH  27  30
ENDBRANCH  21  24
ENDBRANCH  13  18
ENDBRANCH  11  13
ENDBRANCH  10  11
BRANCH  10  34
HETATM   34  C   UNK N   1       3.758   2.073   0.820  0.00  0.00     0.077 C 
BRANCH  34  35
HETATM   35  C   UNK N   1       4.304   3.301   0.070  0.00  0.00     0.098 C 
HETATM   36  C   UNK N   1       3.293   4.371  -0.176  0.00  0.00     0.051 C 
HETATM   37  C   UNK N   1       4.873   2.952  -1.290  0.00  0.00     0.051 C 
HETATM   38  F   UNK N   1       5.268   3.866   0.870  0.00  0.00    -0.244 F 
ENDBRANCH  34  35
ENDBRANCH  10  34
ENDBRANCH   7  10
ENDBRANCH   1   6
TORSDOF 10
