REMARK  16 active torsions:
REMARK  status: ('A' for Active; 'I' for Inactive)
REMARK    1  A    between atoms: C_31  and  C_16 
REMARK    2  A    between atoms: N_39  and  C_16 
REMARK    3  A    between atoms: C_26  and  C_17 
REMARK    4  A    between atoms: O_52  and  C_17 
REMARK    5  A    between atoms: C_35  and  C_19 
REMARK    6  A    between atoms: N_48  and  C_19 
REMARK    7  A    between atoms: C_33  and  C_22 
REMARK    8  A    between atoms: C_35  and  C_22 
REMARK    9  A    between atoms: N_47  and  C_23 
REMARK   10  A    between atoms: O_53  and  C_23 
REMARK   11  A    between atoms: C_30  and  C_25 
REMARK   12  A    between atoms: C_35  and  C_28 
REMARK   13  A    between atoms: O_52  and  C_31 
REMARK   14  A    between atoms: N_46  and  C_32 
REMARK       I    between atoms: N_46  and  C_34 
REMARK   15  A    between atoms: O_53  and  C_34 
REMARK   16  A    between atoms: C_35  and  O_51 
ROOT
HETATM    1  C   UNK N   1      -5.437   3.405  -0.221  0.00  0.00     0.023 A 
HETATM    2  C   UNK N   1      -3.297   2.574   0.550  0.00  0.00     0.023 A 
HETATM    3  C   UNK N   1      -5.995   2.127  -0.081  0.00  0.00     0.015 A 
HETATM    4  C   UNK N   1      -3.846   1.310   0.673  0.00  0.00     0.015 A 
HETATM    5  C   UNK N   1      -3.441   4.858  -0.237  0.00  0.00     0.099 C 
HETATM    6  C   UNK N   1      -4.078   3.613   0.061  0.00  0.00     0.044 A 
HETATM    7  C   UNK N   1      -5.183   1.069   0.330  0.00  0.00    -0.009 A 
HETATM    8  N   UNK N   1      -2.889   5.849  -0.464  0.00  0.00    -0.191 NA
ENDROOT
BRANCH   7   9
HETATM    9  C   UNK N   1      -5.608  -0.320   0.196  0.00  0.00     0.049 A 
HETATM   10  C   UNK N   1      -6.924  -0.784  -0.019  0.00  0.00     0.081 A 
HETATM   11  S   UNK N   1      -6.744  -2.427  -0.246  0.00  0.00    -0.086 SA
HETATM   12  C   UNK N   1      -5.096  -2.497  -0.125  0.00  0.00     0.058 A 
HETATM   13  N   UNK N   1      -4.634  -1.273   0.127  0.00  0.00    -0.352 N 
ATOM     14  HN  UNK N   1      -3.643  -1.068   0.257  1.00  0.00     0.166 HD
BRANCH  12  15
HETATM   15  C   UNK N   1      -4.237  -3.715  -0.165  0.00  0.00     0.080 C 
HETATM   16  C   UNK N   1      -4.508  -4.469  -1.473  0.00  0.00     0.020 C 
BRANCH  15  17
HETATM   17  C   UNK N   1      -2.666  -3.579   0.082  0.00  0.00     0.115 C 
BRANCH  17  18
HETATM   18  C   UNK N   1      -2.405  -2.417   1.165  0.00  0.00     0.193 C 
BRANCH  18  19
HETATM   19  N   UNK N   1      -2.000  -1.074   0.630  0.00  0.00    -0.289 N 
HETATM   20  C   UNK N   1      -1.473  -1.040  -0.585  0.00  0.00     0.179 C 
HETATM   21  N   UNK N   1      -0.266  -0.508  -0.554  0.00  0.00    -0.211 NA
HETATM   22  C   UNK N   1      -0.273   0.188   0.606  0.00  0.00     0.176 C 
HETATM   23  N   UNK N   1      -1.294  -0.238   1.375  0.00  0.00    -0.298 N 
ATOM     24  HN  UNK N   1      -1.486   0.030   2.341  1.00  0.00     0.187 HD
BRANCH  21  25
HETATM   25  C   UNK N   1       0.681  -1.652  -0.554  0.00  0.00     0.214 C 
HETATM   26  C   UNK N   1       0.719  -2.346   0.837  0.00  0.00     0.058 C 
BRANCH  25  27
HETATM   27  O   UNK N   1       1.898  -1.265  -0.956  0.00  0.00    -0.283 OA
BRANCH  27  28
HETATM   28  C   UNK N   1       2.842  -0.791  -0.147  0.00  0.00     0.369 C 
HETATM   29  N   UNK N   1       3.372   0.403  -0.458  0.00  0.00    -0.283 N 
HETATM   30  C   UNK N   1       2.710   1.179  -1.485  0.00  0.00     0.163 C 
HETATM   31  O   UNK N   1       3.252  -1.457   0.801  0.00  0.00    -0.238 OA
BRANCH  29  32
HETATM   32  C   UNK N   1       4.663   0.749   0.007  0.00  0.00     0.119 A 
HETATM   33  C   UNK N   1       5.174   2.064  -0.082  0.00  0.00     0.010 A 
HETATM   34  C   UNK N   1       6.515   2.270   0.237  0.00  0.00     0.014 A 
HETATM   35  C   UNK N   1       7.329   1.205   0.626  0.00  0.00     0.018 A 
HETATM   36  C   UNK N   1       6.787  -0.067   0.724  0.00  0.00     0.089 A 
HETATM   37  N   UNK N   1       5.487  -0.261   0.420  0.00  0.00    -0.352 N 
ATOM     38  HN  UNK N   1       5.102  -1.202   0.501  1.00  0.00     0.166 HD
BRANCH  33  39
HETATM   39  C   UNK N   1       4.371   3.254  -0.539  0.00  0.00     0.221 C 
BRANCH  39  40
HETATM   40  O   UNK N   1       3.217   3.432   0.203  0.00  0.00    -0.315 OA
BRANCH  40  41
HETATM   41  C   UNK N   1       2.466   4.561   0.112  0.00  0.00     0.276 C 
HETATM   42  O   UNK N   1       1.357   4.590   0.623  0.00  0.00    -0.263 OA
BRANCH  41  43
HETATM   43  C   UNK N   1       2.977   5.780  -0.597  0.00  0.00     0.225 C 
BRANCH  43  44
HETATM   44  N   UNK N   1       3.065   6.892   0.335  0.00  0.00    -0.417 N 
HETATM   45  C   UNK N   1       4.312   7.575   0.049  0.00  0.00     0.140 C 
HETATM   46  H   UNK N   1       2.382   7.143   1.050  0.00  0.00     0.153 HD
ENDBRANCH  43  44
ENDBRANCH  41  43
ENDBRANCH  40  41
ENDBRANCH  39  40
ENDBRANCH  33  39
ENDBRANCH  29  32
ENDBRANCH  27  28
ENDBRANCH  25  27
ENDBRANCH  21  25
ENDBRANCH  18  19
ENDBRANCH  17  18
BRANCH  17  47
HETATM   47  C   UNK N   1      -2.089  -5.002   0.361  0.00  0.00     0.020 A 
HETATM   48  C   UNK N   1      -3.023  -6.020   0.551  0.00  0.00     0.055 A 
HETATM   49  C   UNK N   1      -2.744  -7.341   0.312  0.00  0.00     0.117 A 
HETATM   50  C   UNK N   1      -1.487  -7.715  -0.143  0.00  0.00     0.045 A 
HETATM   51  F   UNK N   1      -3.747  -8.236   0.420  0.00  0.00    -0.206 F 
HETATM   52  C   UNK N   1      -0.483  -6.756  -0.243  0.00  0.00     0.046 A 
HETATM   53  C   UNK N   1      -0.755  -5.409   0.022  0.00  0.00     0.126 A 
HETATM   54  F   UNK N   1       0.248  -4.556  -0.206  0.00  0.00    -0.205 F 
ENDBRANCH  17  47
BRANCH  17  55
HETATM   55  O   UNK N   1      -2.103  -3.297  -1.166  0.00  0.00    -0.382 OA
HETATM   56  H   UNK N   1      -1.738  -3.537  -2.032  0.00  0.00     0.211 HD
ENDBRANCH  17  55
ENDBRANCH  15  17
ENDBRANCH  12  15
ENDBRANCH   7   9
TORSDOF 16
