REMARK  8 active torsions:
REMARK  status: ('A' for Active; 'I' for Inactive)
REMARK    1  A    between atoms: P_2  and  C_1 
REMARK    2  A    between atoms: P_3  and  C_1 
REMARK    3  A    between atoms: N_4  and  C_1 
REMARK    4  A    between atoms: O_7  and  P_2 
REMARK    5  A    between atoms: O_10  and  P_2 
REMARK    6  A    between atoms: O_8  and  P_3 
REMARK    7  A    between atoms: O_9  and  P_3 
REMARK    8  A    between atoms: C_11  and  N_4 
ROOT
HETATM    1  C   UNK N   1      -1.127   0.779   0.476  0.00  0.00     0.302 C 
ENDROOT
BRANCH   1   2
HETATM    2  P   UNK N   1      -1.824   2.502   0.385  0.00  0.00     0.270 P 
HETATM    3  O   UNK N   1      -0.695   3.556   0.530  0.00  0.00    -0.652 OA
BRANCH   2   4
HETATM    4  O   UNK N   1      -2.940   2.903   1.653  0.00  0.00    -0.327 OA
HETATM    5  H   UNK N   1      -3.058   3.555   2.361  0.00  0.00     0.220 HD
ENDBRANCH   2   4
BRANCH   2   6
HETATM    6  O   UNK N   1      -2.595   2.909  -1.116  0.00  0.00    -0.327 OA
HETATM    7  H   UNK N   1      -2.614   3.396  -1.955  0.00  0.00     0.220 HD
ENDBRANCH   2   6
ENDBRANCH   1   2
BRANCH   1   8
HETATM    8  P   UNK N   1      -2.491  -0.463   0.238  0.00  0.00     0.270 P 
HETATM    9  O   UNK N   1      -3.464  -0.429   1.447  0.00  0.00    -0.652 OA
BRANCH   8  10
HETATM   10  O   UNK N   1      -1.974  -2.117   0.162  0.00  0.00    -0.327 OA
HETATM   11  H   UNK N   1      -2.630  -2.830   0.120  0.00  0.00     0.220 HD
ENDBRANCH   8  10
BRANCH   8  12
HETATM   12  O   UNK N   1      -3.515  -0.188  -1.136  0.00  0.00    -0.327 OA
HETATM   13  H   UNK N   1      -3.668   0.384  -1.904  0.00  0.00     0.220 HD
ENDBRANCH   8  12
ENDBRANCH   1   8
BRANCH   1  14
HETATM   14  N   UNK N   1      -0.106   0.588  -0.545  0.00  0.00    -0.394 N 
HETATM   15  H   UNK N   1      -0.235   0.683  -1.553  0.00  0.00     0.155 HD
BRANCH  14  16
HETATM   16  C   UNK N   1       1.138   0.237   0.136  0.00  0.00     0.078 C 
HETATM   17  C   UNK N   1       2.313   0.385  -0.836  0.00  0.00     0.024 C 
HETATM   18  C   UNK N   1       3.598  -0.241  -0.310  0.00  0.00     0.002 C 
HETATM   19  C   UNK N   1       3.706  -1.679  -0.809  0.00  0.00     0.000 C 
HETATM   20  C   UNK N   1       2.821  -2.648  -0.027  0.00  0.00     0.000 C 
HETATM   21  C   UNK N   1       1.342  -2.303  -0.132  0.00  0.00     0.002 C 
HETATM   22  C   UNK N   1       1.041  -1.146   0.808  0.00  0.00     0.024 C 
ENDBRANCH  14  16
ENDBRANCH   1  14
TORSDOF 8
