REMARK  3 active torsions:
REMARK  status: ('A' for Active; 'I' for Inactive)
REMARK    1  A    between atoms: O_16  and  C_7 
REMARK    2  A    between atoms: O_17  and  C_10 
REMARK    3  A    between atoms: O_18  and  C_11 
ROOT
HETATM    1  C   UNK N   1       7.635   0.018   0.000  0.00  0.00     0.048 C 
HETATM    2  C   UNK N   1       5.154   0.165   0.000  0.00  0.00     0.023 A 
HETATM    3  C   UNK N   1       6.430   2.209   0.000  0.00  0.00     0.044 A 
HETATM    4  C   UNK N   1       0.203   0.197  -0.000  0.00  0.00     0.053 A 
HETATM    5  C   UNK N   1      -1.045   2.259  -0.000  0.00  0.00     0.074 A 
HETATM    6  C   UNK N   1       6.381   0.815   0.000  0.00  0.00    -0.058 A 
HETATM    7  C   UNK N   1      -1.015   0.865  -0.000  0.00  0.00     0.069 A 
HETATM    8  C   UNK N   1       3.960   0.894   0.000  0.00  0.00     0.032 A 
HETATM    9  C   UNK N   1       1.406   0.910  -0.000  0.00  0.00     0.035 A 
HETATM   10  C   UNK N   1       5.249   2.960   0.000  0.00  0.00     0.081 A 
HETATM   11  C   UNK N   1       0.146   2.994  -0.000  0.00  0.00     0.083 A 
HETATM   12  C   UNK N   1       3.990   2.307   0.000  0.00  0.00     0.062 A 
HETATM   13  C   UNK N   1       1.396   2.324  -0.000  0.00  0.00     0.062 A 
HETATM   14  C   UNK N   1       2.679   0.169   0.000  0.00  0.00     0.194 A 
HETATM   15  C   UNK N   1       2.698   3.063   0.000  0.00  0.00     0.199 A 
HETATM   16  O   UNK N   1       2.671  -1.056   0.000  0.00  0.00    -0.287 OA
HETATM   17  O   UNK N   1       2.706   4.287   0.000  0.00  0.00    -0.286 OA
ENDROOT
BRANCH   7  18
HETATM   18  O   UNK N   1      -2.160   0.164  -0.000  0.00  0.00    -0.361 OA
HETATM   19  H   UNK N   1      -2.983   0.612  -0.000  0.00  0.00     0.217 HD
ENDBRANCH   7  18
BRANCH  11  20
HETATM   20  O   UNK N   1       0.077   4.337  -0.000  0.00  0.00    -0.360 OA
HETATM   21  H   UNK N   1       0.863   4.847  -0.000  0.00  0.00     0.217 HD
ENDBRANCH  11  20
BRANCH  10  22
HETATM   22  O   UNK N   1       5.336   4.302   0.000  0.00  0.00    -0.360 OA
HETATM   23  H   UNK N   1       6.176   4.717   0.000  0.00  0.00     0.217 HD
ENDBRANCH  10  22
TORSDOF 3
