REMARK  0 active torsions:
REMARK  status: ('A' for Active; 'I' for Inactive)
ROOT
HETATM    1 Ra   UNK N   1      -0.941   0.796   0.000  0.00  0.00     0.000 Ra
HETATM    2 Cl   UNK N   1       2.085  -0.525   0.000  0.00  0.00     0.000 Cl
HETATM    3 Cl   UNK N   1      -2.232  -2.243   0.000  0.00  0.00     0.000 Cl
ENDROOT
TORSDOF 0
