REMARK  12 active torsions:
REMARK  status: ('A' for Active; 'I' for Inactive)
REMARK    1  A    between atoms: N_26  and  C_7 
REMARK       I    between atoms: N_28  and  C_8 
REMARK    2  A    between atoms: C_11  and  C_18 
REMARK       I    between atoms: N_14  and  C_11 
REMARK    3  A    between atoms: C_16  and  N_14 
REMARK    4  A    between atoms: C_15  and  C_16 
REMARK    5  A    between atoms: O_20  and  C_15 
REMARK    6  A    between atoms: C_29  and  C_16 
REMARK    7  A    between atoms: C_17  and  C_33 
REMARK    8  A    between atoms: O_22  and  C_17 
REMARK    9  A    between atoms: C_32  and  C_19 
REMARK   10  A    between atoms: N_24  and  C_32 
REMARK   11  A    between atoms: C_34  and  N_24 
REMARK   12  A    between atoms: C_33  and  C_29 
ROOT
HETATM    1  N   UNK N   1       0.166   2.939  -0.469  0.00  0.00    -0.384 N 
HETATM    2  H   UNK N   1       0.444   3.722  -0.996  0.00  0.00     0.160 HD
ENDROOT
BRANCH   1   3
HETATM    3  C   UNK N   1       1.103   2.202   0.344  0.00  0.00     0.178 C 
BRANCH   3   4
HETATM    4  C   UNK N   1       2.493   2.724   0.298  0.00  0.00     0.043 A 
HETATM    5  N   UNK N   1       3.510   1.841   0.127  0.00  0.00    -0.351 N 
HETATM    6  C   UNK N   1       4.801   2.249   0.169  0.00  0.00     0.122 A 
ATOM      7  HN  UNK N   1       3.299   0.856  -0.036  1.00  0.00     0.166 HD
HETATM    8  C   UNK N   1       5.855   1.349   0.009  0.00  0.00     0.145 A 
HETATM    9  C   UNK N   1       5.097   3.602   0.389  0.00  0.00     0.151 A 
HETATM   10  N   UNK N   1       7.134   1.802   0.059  0.00  0.00    -0.175 N 
HETATM   11  C   UNK N   1       7.406   3.120   0.265  0.00  0.00     0.679 A 
ATOM     12  HN  UNK N   1       7.905   1.143  -0.058  1.00  0.00     0.186 HD
HETATM   13  N   UNK N   1       6.390   4.013   0.431  0.00  0.00    -0.174 N 
HETATM   14  N   UNK N   1       8.742   3.562   0.308  0.00  0.00    -0.234 N 
ATOM     15  HN  UNK N   1       6.602   4.998   0.588  1.00  0.00     0.186 HD
HETATM   16  H   UNK N   1       9.476   2.907   0.339  0.00  0.00     0.174 HD
HETATM   17  H   UNK N   1       8.942   4.526   0.308  0.00  0.00     0.174 HD
HETATM   18  N   UNK N   1       4.080   4.489   0.567  0.00  0.00    -0.348 N 
HETATM   19  C   UNK N   1       2.782   4.074   0.540  0.00  0.00     0.116 A 
ATOM     20  HN  UNK N   1       4.291   5.474   0.723  1.00  0.00     0.167 HD
BRANCH   8  21
HETATM   21  N   UNK N   1       5.602  -0.023  -0.199  0.00  0.00    -0.383 N 
HETATM   22  H   UNK N   1       4.684  -0.349  -0.344  0.00  0.00     0.157 HD
HETATM   23  H   UNK N   1       6.351  -0.662  -0.199  0.00  0.00     0.157 HD
ENDBRANCH   8  21
ENDBRANCH   3   4
ENDBRANCH   1   3
BRANCH   1  24
HETATM   24  C   UNK N   1      -1.169   2.480  -0.472  0.00  0.00     0.028 A 
HETATM   25  C   UNK N   1      -2.168   3.295   0.061  0.00  0.00     0.030 A 
HETATM   26  C   UNK N   1      -3.411   2.748   0.386  0.00  0.00     0.019 A 
HETATM   27  C   UNK N   1      -3.685   1.388   0.150  0.00  0.00     0.032 A 
HETATM   28  C   UNK N   1      -2.706   0.597  -0.461  0.00  0.00     0.019 A 
HETATM   29  C   UNK N   1      -1.447   1.132  -0.748  0.00  0.00     0.030 A 
BRANCH  27  30
HETATM   30  C   UNK N   1      -4.877   0.769   0.797  0.00  0.00     0.252 C 
HETATM   31  N   UNK N   1      -5.330  -0.486   0.522  0.00  0.00    -0.343 N 
HETATM   32  H   UNK N   1      -5.816  -0.956   1.237  0.00  0.00     0.163 HD
HETATM   33  O   UNK N   1      -5.423   1.389   1.696  0.00  0.00    -0.268 OA
BRANCH  31  34
HETATM   34  C   UNK N   1      -5.157  -1.187  -0.731  0.00  0.00     0.183 C 
BRANCH  34  35
HETATM   35  C   UNK N   1      -6.539  -1.687  -1.096  0.00  0.00     0.163 C 
HETATM   36  O   UNK N   1      -6.763  -2.883  -1.237  0.00  0.00    -0.648 OA
BRANCH  35  37
HETATM   37  O   UNK N   1      -7.564  -0.817  -1.171  0.00  0.00    -0.775 OA
HETATM   38  H   UNK N   1      -7.396   0.103  -1.222  0.00  0.00     0.167 HD
ENDBRANCH  35  37
ENDBRANCH  34  35
BRANCH  34  39
HETATM   39  C   UNK N   1      -4.229  -2.403  -0.666  0.00  0.00     0.046 C 
BRANCH  39  40
HETATM   40  C   UNK N   1      -3.076  -2.369   0.308  0.00  0.00     0.112 C 
BRANCH  40  41
HETATM   41  C   UNK N   1      -2.869  -3.777   0.757  0.00  0.00     0.139 C 
HETATM   42  O   UNK N   1      -3.741  -4.349   1.392  0.00  0.00    -0.650 OA
BRANCH  41  43
HETATM   43  O   UNK N   1      -1.743  -4.434   0.424  0.00  0.00    -0.776 OA
HETATM   44  H   UNK N   1      -1.748  -5.342   0.192  0.00  0.00     0.167 HD
ENDBRANCH  41  43
ENDBRANCH  40  41
ENDBRANCH  39  40
ENDBRANCH  34  39
ENDBRANCH  31  34
ENDBRANCH  27  30
ENDBRANCH   1  24
TORSDOF 12
