REMARK  15 active torsions:
REMARK  status: ('A' for Active; 'I' for Inactive)
REMARK    1  A    between atoms: C_5  and  C_4 
REMARK    2  A    between atoms: C_6  and  C_4 
REMARK    3  A    between atoms: C_7  and  C_5 
REMARK    4  A    between atoms: C_8  and  C_6 
REMARK    5  A    between atoms: C_9  and  C_7 
REMARK    6  A    between atoms: C_10  and  C_8 
REMARK    7  A    between atoms: C_11  and  C_9 
REMARK    8  A    between atoms: C_12  and  C_10 
REMARK    9  A    between atoms: C_13  and  C_11 
REMARK   10  A    between atoms: C_15  and  C_12 
REMARK   11  A    between atoms: C_20  and  C_13 
REMARK   12  A    between atoms: O_23  and  C_18 
REMARK   13  A    between atoms: O_24  and  C_19 
REMARK   14  A    between atoms: C_20  and  C_25 
REMARK   15  A    between atoms: C_25  and  O_26 
ROOT
HETATM    1  C   UNK N   1       3.050  -6.940   0.715  0.00  0.00     0.043 C 
ENDROOT
BRANCH   1   2
HETATM    2  C   UNK N   1       2.755  -7.857  -0.460  0.00  0.00     0.005 C 
BRANCH   2   3
HETATM    3  C   UNK N   1       1.309  -7.676  -0.882  0.00  0.00     0.000 C 
BRANCH   3   4
HETATM    4  C   UNK N   1       1.169  -6.372  -1.650  0.00  0.00     0.000 C 
BRANCH   4   5
HETATM    5  C   UNK N   1      -0.148  -5.689  -1.332  0.00  0.00     0.000 C 
BRANCH   5   6
HETATM    6  C   UNK N   1      -0.127  -5.089   0.068  0.00  0.00     0.000 C 
BRANCH   6   7
HETATM    7  C   UNK N   1      -0.968  -5.918   1.027  0.00  0.00     0.000 C 
BRANCH   7   8
HETATM    8  C   UNK N   1      -2.430  -5.497   0.975  0.00  0.00     0.000 C 
BRANCH   8   9
HETATM    9  C   UNK N   1      -3.041  -5.856  -0.368  0.00  0.00     0.000 C 
BRANCH   9  10
HETATM   10  C   UNK N   1      -4.453  -5.327  -0.467  0.00  0.00     0.002 C 
BRANCH  10  11
HETATM   11  C   UNK N   1      -5.418  -6.359   0.072  0.00  0.00     0.026 C 
BRANCH  11  12
HETATM   12  C   UNK N   1      -6.833  -5.862  -0.117  0.00  0.00     0.164 C 
BRANCH  12  13
HETATM   13  O   UNK N   1      -7.727  -6.871   0.234  0.00  0.00    -0.401 OA
HETATM   14  H   UNK N   1      -8.647  -6.684   0.479  0.00  0.00     0.209 HD
ENDBRANCH  12  13
ENDBRANCH  11  12
ENDBRANCH  10  11
ENDBRANCH   9  10
ENDBRANCH   8   9
ENDBRANCH   7   8
ENDBRANCH   6   7
ENDBRANCH   5   6
ENDBRANCH   4   5
ENDBRANCH   3   4
ENDBRANCH   2   3
ENDBRANCH   1   2
BRANCH   1  15
HETATM   15  C   UNK N   1       4.255  -6.071   0.463  0.00  0.00     0.005 A 
HETATM   16  C   UNK N   1       4.126  -4.731   0.360  0.00  0.00     0.001 A 
HETATM   17  C   UNK N   1       2.784  -4.073   0.471  0.00  0.00     0.053 C 
HETATM   18  C   UNK N   1       5.322  -3.882   0.152  0.00  0.00     0.214 A 
HETATM   19  C   UNK N   1       6.679  -4.479   0.101  0.00  0.00     0.156 A 
HETATM   20  O   UNK N   1       5.194  -2.669   0.049  0.00  0.00    -0.285 OA
HETATM   21  C   UNK N   1       6.810  -5.841   0.182  0.00  0.00     0.156 A 
HETATM   22  C   UNK N   1       5.602  -6.687   0.358  0.00  0.00     0.214 A 
HETATM   23  O   UNK N   1       5.724  -7.902   0.423  0.00  0.00    -0.285 OA
BRANCH  19  24
HETATM   24  O   UNK N   1       7.731  -3.616  -0.001  0.00  0.00    -0.350 OA
HETATM   25  C   UNK N   1       9.038  -3.889   0.331  0.00  0.00     0.210 C 
ENDBRANCH  19  24
BRANCH  21  26
HETATM   26  O   UNK N   1       8.008  -6.471   0.105  0.00  0.00    -0.350 OA
HETATM   27  C   UNK N   1       8.778  -6.428  -1.034  0.00  0.00     0.210 C 
ENDBRANCH  21  26
ENDBRANCH   1  15
TORSDOF 15
