REMARK  0 active torsions:
REMARK  status: ('A' for Active; 'I' for Inactive)
ROOT
HETATM    1  C   UNK N   1      -2.506   0.244   1.044  0.00  0.00     0.007 A 
HETATM    2  C   UNK N   1      -1.147   0.460   1.238  0.00  0.00     0.026 A 
HETATM    3  C   UNK N   1      -2.928  -0.737   0.154  0.00  0.00     0.074 A 
HETATM    4  C   UNK N   1       1.991  -0.224  -0.552  0.00  0.00     0.020 C 
HETATM    5  C   UNK N   1       2.399  -2.599   0.061  0.00  0.00     0.120 C 
HETATM    6  C   UNK N   1       1.823  -1.060   1.793  0.00  0.00     0.124 C 
HETATM    7  C   UNK N   1       0.321  -2.001  -1.225  0.00  0.00     0.138 C 
HETATM    8  C   UNK N   1       1.807  -1.672  -1.001  0.00  0.00     0.022 C 
HETATM    9  C   UNK N   1       1.256  -0.059   0.769  0.00  0.00     0.054 C 
HETATM   10  C   UNK N   1      -0.210  -0.304   0.532  0.00  0.00     0.020 A 
HETATM   11  C   UNK N   1      -1.985  -1.481  -0.557  0.00  0.00     0.247 A 
HETATM   12  N   UNK N   1       1.694  -2.445   1.333  0.00  0.00    -0.420 N 
HETATM   13  N   UNK N   1      -0.632  -1.252  -0.375  0.00  0.00    -0.317 N 
HETATM   14  O   UNK N   1      -2.370  -2.327  -1.345  0.00  0.00    -0.268 OA
HETATM   15  H   UNK N   1       1.191  -3.185   1.822  0.00  0.00     0.153 HD
ENDROOT
TORSDOF 0
