REMARK  5 active torsions:
REMARK  status: ('A' for Active; 'I' for Inactive)
REMARK    1  A    between atoms: O_1  and  C_2 
REMARK    2  A    between atoms: C_2  and  C_3 
REMARK    3  A    between atoms: C_3  and  O_4 
REMARK    4  A    between atoms: C_3  and  C_5 
REMARK    5  A    between atoms: C_5  and  O_6 
ROOT
HETATM    1  C   UNK N   1       1.549  -0.600   0.000  0.00  0.00     0.165 C 
ENDROOT
BRANCH   1   2
HETATM    2  C   UNK N   1       3.039  -0.931  -0.000  0.00  0.00     0.198 C 
BRANCH   2   3
HETATM    3  O   UNK N   1       3.256  -2.311   0.000  0.00  0.00    -0.398 OA
HETATM    4  H   UNK N   1       2.502  -2.921   0.000  0.00  0.00     0.209 HD
ENDBRANCH   2   3
ENDBRANCH   1   2
BRANCH   1   5
HETATM    5  O   UNK N   1       0.604  -1.625  -0.000  0.00  0.00    -0.391 OA
HETATM    6  H   UNK N   1      -0.343  -1.413  -0.000  0.00  0.00     0.210 HD
ENDBRANCH   1   5
BRANCH   1   7
HETATM    7  C   UNK N   1       1.086   0.851  -0.000  0.00  0.00     0.198 C 
BRANCH   7   8
HETATM    8  O   UNK N   1      -0.308   0.930   0.000  0.00  0.00    -0.398 OA
HETATM    9  H   UNK N   1      -0.746   1.795   0.000  0.00  0.00     0.209 HD
ENDBRANCH   7   8
ENDBRANCH   1   7
TORSDOF 5
