REMARK  2 active torsions:
REMARK  status: ('A' for Active; 'I' for Inactive)
REMARK    1  A    between atoms: O_1  and  C_11 
REMARK    2  A    between atoms: N_5  and  N_7 
REMARK       I    between atoms: N_7  and  C_18 
REMARK       I    between atoms: N_8  and  C_18 
ROOT
HETATM    1  O   UNK N   1      -1.203   1.666   0.000  0.00  0.00    -0.286 OA
HETATM    2  N   UNK N   1       3.562   1.287   0.000  0.00  0.00    -0.382 N 
HETATM    3  N   UNK N   1      -1.371  -1.185   0.000  0.00  0.00    -0.293 N 
ATOM      4  HN  UNK N   1      -1.347  -2.205  -0.000  1.00  0.00     0.187 HD
HETATM    5  C   UNK N   1       2.163  -0.580  -0.000  0.00  0.00     0.001 A 
HETATM    6  C   UNK N   1       2.221   0.855  -0.000  0.00  0.00     0.042 A 
HETATM    7  C   UNK N   1       3.561  -1.051  -0.000  0.00  0.00     0.171 A 
HETATM    8  C   UNK N   1      -0.259  -0.530   0.000  0.00  0.00     0.099 A 
HETATM    9  C   UNK N   1       1.022  -1.280  -0.000  0.00  0.00     0.047 A 
HETATM   10  C   UNK N   1      -0.194   0.978   0.000  0.00  0.00     0.202 A 
HETATM   11  C   UNK N   1       1.133   1.635   0.000  0.00  0.00     0.087 A 
HETATM   12  C   UNK N   1       4.501   0.175   0.000  0.00  0.00     0.159 A 
HETATM   13  C   UNK N   1       3.970   2.668   0.000  0.00  0.00     0.150 C 
ENDROOT
BRANCH   3  14
HETATM   14  N   UNK N   1      -2.586  -0.544   0.000  0.00  0.00    -0.251 N 
HETATM   15  C   UNK N   1      -3.748  -1.230   0.000  0.00  0.00     0.332 C 
HETATM   16  O   UNK N   1      -3.749  -2.451  -0.000  0.00  0.00    -0.246 OA
HETATM   17  N   UNK N   1      -4.915  -0.559   0.000  0.00  0.00    -0.351 N 
HETATM   18  H   UNK N   1      -4.917   0.426  -0.000  0.00  0.00     0.160 HD
HETATM   19  H   UNK N   1      -5.766  -1.053   0.000  0.00  0.00     0.160 HD
HETATM   20  H   UNK N   1      -2.610   0.440   0.000  0.00  0.00     0.191 HD
ENDBRANCH   3  14
BRANCH   7  21
HETATM   21  O   UNK N   1       3.960  -2.386   0.000  0.00  0.00    -0.389 OA
HETATM   22  H   UNK N   1       3.294  -3.092   0.000  0.00  0.00     0.210 HD
ENDBRANCH   7  21
TORSDOF 2
