REMARK  8 active torsions:
REMARK  status: ('A' for Active; 'I' for Inactive)
REMARK    1  A    between atoms: B_1  and  O_17 
REMARK    2  A    between atoms: C_7  and  O_8 
REMARK    3  A    between atoms: O_8  and  C_9 
REMARK    4  A    between atoms: C_9  and  C_10 
REMARK    5  A    between atoms: C_10  and  C_11 
REMARK    6  A    between atoms: C_11  and  O_12 
REMARK    7  A    between atoms: C_13  and  C_15 
REMARK    8  A    between atoms: C_15  and  N_16 
ROOT
HETATM    1  B   UNK N   1       0.523  -1.817  -0.015  0.00  0.00     0.535 B 
HETATM    2  C   UNK N   1       0.703  -0.300  -0.028  0.00  0.00     0.010 A 
HETATM    3  C   UNK N   1      -0.563   0.155  -0.260  0.00  0.00    -0.026 A 
HETATM    4  C   UNK N   1      -0.848   1.517  -0.358  0.00  0.00     0.009 A 
HETATM    5  C   UNK N   1       0.192   2.437  -0.204  0.00  0.00     0.003 A 
HETATM    6  C   UNK N   1       1.497   1.985   0.037  0.00  0.00     0.036 A 
HETATM    7  C   UNK N   1       1.784   0.613   0.127  0.00  0.00     0.070 A 
HETATM    8  C   UNK N   1      -1.564  -0.956  -0.415  0.00  0.00     0.152 A 
HETATM    9  O   UNK N   1      -0.881  -2.202  -0.251  0.00  0.00    -0.413 OA
ENDROOT
BRANCH   7  10
HETATM   10  O   UNK N   1       3.079   0.270   0.352  0.00  0.00    -0.351 OA
BRANCH  10  11
HETATM   11  C   UNK N   1       3.606  -0.997   0.405  0.00  0.00     0.178 C 
BRANCH  11  12
HETATM   12  C   UNK N   1       4.662  -1.160  -0.680  0.00  0.00     0.053 C 
BRANCH  12  13
HETATM   13  C   UNK N   1       5.801  -0.165  -0.509  0.00  0.00     0.166 C 
BRANCH  13  14
HETATM   14  O   UNK N   1       6.776  -0.691   0.338  0.00  0.00    -0.401 OA
HETATM   15  H   UNK N   1       6.798  -1.461   0.927  0.00  0.00     0.209 HD
ENDBRANCH  13  14
ENDBRANCH  12  13
ENDBRANCH  11  12
ENDBRANCH  10  11
ENDBRANCH   7  10
BRANCH   1  16
HETATM   16  O   UNK N   1       1.577  -2.812   0.148  0.00  0.00    -0.433 OA
HETATM   17  H   UNK N   1       1.354  -3.750   0.256  0.00  0.00     0.185 HD
ENDBRANCH   1  16
BRANCH   8  18
HETATM   18  C   UNK N   1      -2.674  -0.824   0.618  0.00  0.00     0.146 C 
BRANCH  18  19
HETATM   19  N   UNK N   1      -3.747  -1.751   0.308  0.00  0.00    -0.427 N 
HETATM   20  H   UNK N   1      -4.689  -1.423   0.091  0.00  0.00     0.150 HD
HETATM   21  H   UNK N   1      -3.556  -2.753   0.308  0.00  0.00     0.150 HD
ENDBRANCH  18  19
ENDBRANCH   8  18
TORSDOF 8
