REMARK  7 active torsions:
REMARK  status: ('A' for Active; 'I' for Inactive)
REMARK    1  A    between atoms: C_2  and  C_4 
REMARK    2  A    between atoms: C_2  and  O_40 
REMARK    3  A    between atoms: C_8  and  N_11 
REMARK       I    between atoms: C_17  and  N_20 
REMARK    4  A    between atoms: N_20  and  C_21 
REMARK    5  A    between atoms: C_24  and  N_27 
REMARK    6  A    between atoms: N_36  and  C_37 
REMARK    7  A    between atoms: C_37  and  C_38 
ROOT
HETATM    1  N   UNK N   1      -0.990  -0.258   0.188  0.00  0.00    -0.217 N 
HETATM    2  C   UNK N   1       0.309   0.156   0.119  0.00  0.00     0.162 A 
HETATM    3  C   UNK N   1       0.361   1.521   0.107  0.00  0.00     0.096 A 
HETATM    4  C   UNK N   1       1.567   2.189   0.057  0.00  0.00     0.127 A 
HETATM    5  N   UNK N   1       2.702   1.438   0.043  0.00  0.00    -0.201 N 
ATOM      6  HN  UNK N   1       3.607   1.907   0.014  1.00  0.00     0.183 HD
HETATM    7  C   UNK N   1       2.661   0.066   0.067  0.00  0.00     0.684 A 
HETATM    8  N   UNK N   1       1.445  -0.591   0.100  0.00  0.00    -0.173 N 
ATOM      9  HN  UNK N   1       1.401  -1.610   0.111  1.00  0.00     0.186 HD
HETATM   10  N   UNK N   1       3.896  -0.645   0.108  0.00  0.00    -0.192 N 
HETATM   11  C   UNK N   1      -0.934   1.942   0.174  0.00  0.00     0.278 A 
HETATM   12  O   UNK N   1      -1.317   3.100   0.198  0.00  0.00    -0.265 OA
HETATM   13  N   UNK N   1      -1.750   0.854   0.226  0.00  0.00    -0.243 N 
HETATM   14  H   UNK N   1       4.717  -0.113   0.221  0.00  0.00     0.184 HD
ENDROOT
BRANCH  10  15
HETATM   15  C   UNK N   1       4.045  -2.051   0.001  0.00  0.00     0.049 A 
HETATM   16  C   UNK N   1       5.305  -2.636   0.200  0.00  0.00     0.032 A 
HETATM   17  C   UNK N   1       5.470  -4.024   0.061  0.00  0.00     0.031 A 
HETATM   18  C   UNK N   1       4.372  -4.829  -0.294  0.00  0.00     0.030 A 
HETATM   19  C   UNK N   1       3.132  -4.224  -0.490  0.00  0.00     0.031 A 
HETATM   20  C   UNK N   1       2.964  -2.858  -0.340  0.00  0.00     0.032 A 
BRANCH  18  21
HETATM   21  N   UNK N   1       4.504  -6.234  -0.502  0.00  0.00    -0.378 N 
HETATM   22  C   UNK N   1       5.745  -6.931  -0.246  0.00  0.00     0.153 C 
HETATM   23  C   UNK N   1       5.447  -8.169   0.607  0.00  0.00     0.291 C 
HETATM   24  N   UNK N   1       4.409  -8.979  -0.038  0.00  0.00     0.087 N 
HETATM   25  C   UNK N   1       3.169  -8.209  -0.093  0.00  0.00     0.291 C 
HETATM   26  C   UNK N   1       4.161 -10.138   0.799  0.00  0.00     0.310 C 
HETATM   27  C   UNK N   1       3.380  -7.005  -0.998  0.00  0.00     0.153 C 
ENDBRANCH  18  21
ENDBRANCH  10  15
BRANCH   1  28
HETATM   28  C   UNK N   1      -1.504  -1.625   0.237  0.00  0.00     0.129 A 
HETATM   29  C   UNK N   1      -2.879  -1.846   0.389  0.00  0.00     0.050 A 
HETATM   30  C   UNK N   1      -3.402  -3.128   0.411  0.00  0.00     0.006 A 
HETATM   31  C   UNK N   1      -2.549  -4.208   0.287  0.00  0.00     0.028 A 
HETATM   32  C   UNK N   1      -1.173  -3.997   0.145  0.00  0.00     0.044 A 
HETATM   33  N   UNK N   1      -0.676  -2.713   0.122  0.00  0.00    -0.342 N 
ATOM     34  HN  UNK N   1       0.328  -2.567   0.017  1.00  0.00     0.167 HD
BRANCH  32  35
HETATM   35  C   UNK N   1      -0.264  -5.193   0.012  0.00  0.00     0.092 C 
HETATM   36  C   UNK N   1       0.445  -5.142  -1.325  0.00  0.00     0.052 C 
HETATM   37  C   UNK N   1       0.736  -5.204   1.151  0.00  0.00     0.052 C 
BRANCH  35  38
HETATM   38  O   UNK N   1      -0.991  -6.387   0.064  0.00  0.00    -0.384 OA
HETATM   39  H   UNK N   1      -1.960  -6.365   0.101  0.00  0.00     0.211 HD
ENDBRANCH  35  38
ENDBRANCH  32  35
ENDBRANCH   1  28
BRANCH  13  40
HETATM   40  C   UNK N   1      -3.205   0.946   0.345  0.00  0.00     0.179 C 
BRANCH  40  41
HETATM   41  C   UNK N   1      -3.874   0.601  -0.943  0.00  0.00    -0.015 C 
HETATM   42  C   UNK N   1      -5.170   0.302  -0.948  0.00  0.00     0.008 C 
ENDBRANCH  40  41
ENDBRANCH  13  40
TORSDOF 7
