REMARK  5 active torsions:
REMARK  status: ('A' for Active; 'I' for Inactive)
REMARK    1  A    between atoms: C_3  and  C_19 
REMARK    2  A    between atoms: C_7  and  C_11 
REMARK    3  A    between atoms: C_12  and  C_11 
REMARK    4  A    between atoms: C_11  and  O_18 
REMARK    5  A    between atoms: C_19  and  C_20 
ROOT
HETATM    1  C   UNK N   1       0.974   0.884  -1.766  0.00  0.00     0.051 C 
HETATM    2  C   UNK N   1       1.715   0.612  -0.461  0.00  0.00     0.116 A 
HETATM    3  C   UNK N   1       3.201   1.038  -0.471  0.00  0.00     0.117 C 
HETATM    4  C   UNK N   1       3.841  -0.051   0.324  0.00  0.00     0.226 C 
HETATM    5  O   UNK N   1       5.024  -0.070   0.615  0.00  0.00    -0.273 OA
HETATM    6  N   UNK N   1       3.028  -1.071   0.622  0.00  0.00    -0.338 N 
HETATM    7  C   UNK N   1       1.699  -0.880   0.121  0.00  0.00     0.180 A 
HETATM    8  C   UNK N   1       0.845  -0.199   1.112  0.00  0.00     0.294 A 
HETATM    9  O   UNK N   1      -0.100  -0.626   1.757  0.00  0.00    -0.262 OA
HETATM   10  O   UNK N   1       0.948   1.018   0.623  0.00  0.00    -0.304 OA
HETATM   11  H   UNK N   1       3.311  -1.865   1.129  0.00  0.00     0.164 HD
ENDROOT
BRANCH   7  12
HETATM   12  C   UNK N   1       1.166  -1.956  -0.853  0.00  0.00     0.167 C 
BRANCH  12  13
HETATM   13  C   UNK N   1       1.703  -3.387  -0.707  0.00  0.00     0.040 C 
HETATM   14  C   UNK N   1       3.143  -3.548  -1.227  0.00  0.00     0.011 C 
HETATM   15  C   UNK N   1       4.173  -3.591  -0.103  0.00  0.00     0.004 C 
HETATM   16  C   UNK N   1       3.830  -4.716   0.865  0.00  0.00     0.027 C 
HETATM   17  C   UNK N   1       2.411  -4.612   1.357  0.00  0.00    -0.030 C 
HETATM   18  C   UNK N   1       1.443  -4.017   0.641  0.00  0.00    -0.023 C 
ENDBRANCH  12  13
BRANCH  12  19
HETATM   19  O   UNK N   1      -0.230  -1.951  -0.901  0.00  0.00    -0.392 OA
HETATM   20  H   UNK N   1      -0.712  -1.110  -0.935  0.00  0.00     0.210 HD
ENDBRANCH  12  19
ENDBRANCH   7  12
BRANCH   3  21
HETATM   21  C   UNK N   1       3.445   2.445   0.057  0.00  0.00     0.032 C 
BRANCH  21  22
HETATM   22  C   UNK N   1       4.898   2.818  -0.196  0.00  0.00     0.115 C 
HETATM   23 Cl   UNK N   1       5.183   4.524   0.204  0.00  0.00    -0.130 Cl
ENDBRANCH  21  22
ENDBRANCH   3  21
TORSDOF 5
