REMARK  17 active torsions:
REMARK  status: ('A' for Active; 'I' for Inactive)
REMARK    1  A    between atoms: C_2  and  C_3 
REMARK    2  A    between atoms: C_3  and  C_4 
REMARK    3  A    between atoms: C_4  and  O_5 
REMARK    4  A    between atoms: O_5  and  C_6 
REMARK    5  A    between atoms: C_6  and  C_7 
REMARK    6  A    between atoms: C_7  and  O_8 
REMARK    7  A    between atoms: O_8  and  C_9 
REMARK    8  A    between atoms: C_12  and  C_15 
REMARK    9  A    between atoms: C_22  and  C_31 
REMARK   10  A    between atoms: N_26  and  C_27 
REMARK   11  A    between atoms: C_27  and  C_28 
REMARK       I    between atoms: C_31  and  N_33 
REMARK   12  A    between atoms: N_33  and  C_34 
REMARK   13  A    between atoms: C_37  and  S_40 
REMARK   14  A    between atoms: S_40  and  C_41 
REMARK   15  A    between atoms: C_41  and  C_42 
REMARK   16  A    between atoms: N_47  and  C_48 
REMARK   17  A    between atoms: C_48  and  C_49 
ROOT
HETATM    1  C   UNK N   1      -0.324  -6.833   0.076  0.00  0.00    -0.025 A 
HETATM    2  C   UNK N   1      -0.469  -8.101  -0.504  0.00  0.00     0.014 A 
HETATM    3  C   UNK N   1       0.605  -9.001  -0.504  0.00  0.00     0.031 A 
HETATM    4  C   UNK N   1       1.838  -8.663   0.092  0.00  0.00     0.040 A 
HETATM    5  C   UNK N   1       1.957  -7.373   0.693  0.00  0.00    -0.008 A 
HETATM    6  C   UNK N   1       0.891  -6.490   0.674  0.00  0.00     0.026 A 
HETATM    7  C   UNK N   1       3.243  -6.944   1.244  0.00  0.00     0.026 C 
HETATM    8  C   UNK N   1       4.284  -6.722   0.420  0.00  0.00     0.011 C 
HETATM    9  C   UNK N   1       5.509  -7.464   0.830  0.00  0.00     0.046 C 
HETATM   10  C   UNK N   1       5.326  -8.950   0.437  0.00  0.00     0.025 C 
HETATM   11  C   UNK N   1       4.038  -9.571   1.020  0.00  0.00     0.123 C 
HETATM   12  N   UNK N   1       2.932  -9.617   0.063  0.00  0.00    -0.380 N 
ENDROOT
BRANCH   8  13
HETATM   13  C   UNK N   1       4.056  -6.456  -1.041  0.00  0.00     0.252 C 
HETATM   14  O   UNK N   1       4.716  -7.052  -1.875  0.00  0.00    -0.268 OA
HETATM   15  N   UNK N   1       3.161  -5.517  -1.456  0.00  0.00    -0.323 N 
HETATM   16  H   UNK N   1       2.556  -5.719  -2.206  0.00  0.00     0.169 HD
BRANCH  15  17
HETATM   17  C   UNK N   1       3.090  -4.252  -0.817  0.00  0.00     0.035 A 
HETATM   18  C   UNK N   1       1.883  -3.699  -0.368  0.00  0.00     0.031 A 
HETATM   19  C   UNK N   1       1.877  -2.420   0.220  0.00  0.00     0.023 A 
HETATM   20  C   UNK N   1       3.070  -1.683   0.303  0.00  0.00     0.032 A 
HETATM   21  C   UNK N   1       4.253  -2.218  -0.193  0.00  0.00     0.023 A 
HETATM   22  C   UNK N   1       4.263  -3.492  -0.743  0.00  0.00     0.031 A 
BRANCH  20  23
HETATM   23  S   UNK N   1       3.128  -0.072   1.088  0.00  0.00     0.055 S 
HETATM   24  O   UNK N   1       1.757   0.964   1.049  0.00  0.00    -0.252 OA
BRANCH  23  25
HETATM   25  C   UNK N   1       4.732   0.615   1.645  0.00  0.00     0.172 C 
BRANCH  25  26
HETATM   26  C   UNK N   1       5.347   1.435   0.552  0.00  0.00     0.040 A 
HETATM   27  C   UNK N   1       4.717   2.432  -0.152  0.00  0.00     0.115 A 
HETATM   28  N   UNK N   1       5.605   2.934  -1.043  0.00  0.00    -0.360 N 
HETATM   29  C   UNK N   1       6.748   2.244  -0.860  0.00  0.00     0.183 A 
ATOM     30  HN  UNK N   1       5.442   3.683  -1.716  1.00  0.00     0.166 HD
HETATM   31  N   UNK N   1       6.612   1.320   0.113  0.00  0.00    -0.344 N 
BRANCH  31  32
HETATM   32  C   UNK N   1       7.641   0.424   0.603  0.00  0.00     0.129 C 
BRANCH  32  33
HETATM   33  C   UNK N   1       7.849  -0.721  -0.369  0.00  0.00     0.016 C 
HETATM   34  C   UNK N   1       9.128  -1.453  -0.024  0.00  0.00     0.006 C 
ENDBRANCH  32  33
ENDBRANCH  31  32
ENDBRANCH  25  26
ENDBRANCH  23  25
ENDBRANCH  20  23
ENDBRANCH  15  17
ENDBRANCH   8  13
BRANCH  12  35
HETATM   35  C   UNK N   1       2.902 -10.699  -0.910  0.00  0.00     0.126 C 
BRANCH  35  36
HETATM   36  C   UNK N   1       2.686 -12.088  -0.300  0.00  0.00    -0.005 C 
HETATM   37  C   UNK N   1       3.867 -12.567   0.522  0.00  0.00     0.011 C 
HETATM   38  C   UNK N   1       1.401 -12.166   0.501  0.00  0.00     0.011 C 
ENDBRANCH  35  36
ENDBRANCH  12  35
BRANCH   1  39
HETATM   39  C   UNK N   1      -1.390  -5.811   0.008  0.00  0.00    -0.026 A 
HETATM   40  C   UNK N   1      -1.074  -4.487   0.341  0.00  0.00     0.015 A 
HETATM   41  C   UNK N   1      -2.026  -3.480   0.265  0.00  0.00     0.037 A 
HETATM   42  C   UNK N   1      -3.324  -3.773  -0.136  0.00  0.00     0.068 A 
HETATM   43  C   UNK N   1      -3.657  -5.099  -0.481  0.00  0.00     0.037 A 
HETATM   44  C   UNK N   1      -2.693  -6.114  -0.415  0.00  0.00     0.015 A 
BRANCH  42  45
HETATM   45  O   UNK N   1      -4.224  -2.761  -0.174  0.00  0.00    -0.349 OA
BRANCH  45  46
HETATM   46  C   UNK N   1      -5.525  -2.880  -0.608  0.00  0.00     0.201 C 
BRANCH  46  47
HETATM   47  C   UNK N   1      -6.443  -3.422   0.490  0.00  0.00     0.194 C 
BRANCH  47  48
HETATM   48  O   UNK N   1      -6.280  -4.804   0.675  0.00  0.00    -0.389 OA
BRANCH  48  49
HETATM   49  C   UNK N   1      -6.829  -5.424  -0.458  0.00  0.00     0.167 C 
BRANCH  49  50
HETATM   50  C   UNK N   1      -8.128  -6.128  -0.126  0.00  0.00     0.026 C 
BRANCH  50  51
HETATM   51  C   UNK N   1      -9.236  -5.115   0.063  0.00  0.00    -0.002 C 
HETATM   52  C   UNK N   1     -10.555  -5.842   0.201  0.00  0.00     0.005 C 
ENDBRANCH  50  51
ENDBRANCH  49  50
ENDBRANCH  48  49
ENDBRANCH  47  48
ENDBRANCH  46  47
ENDBRANCH  45  46
ENDBRANCH  42  45
ENDBRANCH   1  39
TORSDOF 17
