REMARK  6 active torsions:
REMARK  status: ('A' for Active; 'I' for Inactive)
REMARK    1  A    between atoms: C_2  and  C_3 
REMARK    2  A    between atoms: C_2  and  O_7 
REMARK    3  A    between atoms: O_7  and  C_8 
REMARK    4  A    between atoms: C_11  and  C_18 
REMARK    5  A    between atoms: C_13  and  C_14 
REMARK    6  A    between atoms: C_21  and  C_25 
ROOT
HETATM    1  C   UNK N   1       4.878   3.565  -0.137  0.00  0.00     0.182 A 
HETATM    2  N   UNK N   1       4.071   2.506  -0.144  0.00  0.00    -0.319 N 
ATOM      3  HN  UNK N   1       4.316   1.533  -0.329  1.00  0.00     0.169 HD
HETATM    4  C   UNK N   1       2.875   3.005   0.144  0.00  0.00     0.138 A 
HETATM    5  N   UNK N   1       2.937   4.344   0.320  0.00  0.00    -0.242 N 
ATOM      6  HN  UNK N   1       2.166   4.977   0.534  1.00  0.00     0.196 HD
HETATM    7  O   UNK N   1       4.201   4.656   0.155  0.00  0.00    -0.217 OA
ENDROOT
BRANCH   1   8
HETATM    8  C   UNK N   1       6.312   3.363  -0.360  0.00  0.00     0.018 A 
HETATM    9  C   UNK N   1       6.665   2.070  -0.739  0.00  0.00     0.018 A 
HETATM   10  C   UNK N   1       7.974   1.679  -0.811  0.00  0.00     0.038 A 
HETATM   11  C   UNK N   1       8.994   2.567  -0.495  0.00  0.00     0.084 A 
HETATM   12  C   UNK N   1       8.677   3.909  -0.167  0.00  0.00     0.082 A 
HETATM   13  C   UNK N   1       7.316   4.307  -0.097  0.00  0.00     0.035 A 
BRANCH  11  14
HETATM   14  O   UNK N   1      10.273   2.119  -0.451  0.00  0.00    -0.337 OA
BRANCH  14  15
HETATM   15  C   UNK N   1      10.614   0.919   0.170  0.00  0.00     0.232 C 
HETATM   16  C   UNK N   1       9.944  -0.314  -0.440  0.00  0.00     0.049 C 
BRANCH  15  17
HETATM   17  C   UNK N   1      12.118   0.721   0.185  0.00  0.00     0.413 C 
HETATM   18  F   UNK N   1      12.426  -0.348   1.007  0.00  0.00    -0.168 F 
HETATM   19  F   UNK N   1      12.733   1.856   0.676  0.00  0.00    -0.168 F 
HETATM   20  F   UNK N   1      12.578   0.466  -1.095  0.00  0.00    -0.168 F 
ENDBRANCH  15  17
ENDBRANCH  14  15
ENDBRANCH  11  14
BRANCH  12  21
HETATM   21  C   UNK N   1       9.776   4.872   0.194  0.00  0.00     0.420 C 
HETATM   22  F   UNK N   1      10.637   5.021  -0.877  0.00  0.00    -0.166 F 
HETATM   23  F   UNK N   1      10.482   4.372   1.275  0.00  0.00    -0.166 F 
HETATM   24  F   UNK N   1       9.266   6.112   0.536  0.00  0.00    -0.166 F 
ENDBRANCH  12  21
ENDBRANCH   1   8
BRANCH   4  25
HETATM   25  C   UNK N   1       1.716   2.108   0.209  0.00  0.00     0.012 A 
HETATM   26  C   UNK N   1       1.992   0.713   0.166  0.00  0.00     0.017 A 
HETATM   27  C   UNK N   1       0.966  -0.235   0.146  0.00  0.00     0.033 A 
HETATM   28  C   UNK N   1      -0.328   0.247   0.148  0.00  0.00     0.060 A 
HETATM   29  C   UNK N   1      -0.614   1.576   0.192  0.00  0.00     0.060 A 
HETATM   30  N   UNK N   1      -1.462  -0.460   0.091  0.00  0.00    -0.351 N 
HETATM   31  C   UNK N   1       0.381   2.559   0.236  0.00  0.00     0.047 A 
HETATM   32  N   UNK N   1      -1.942   1.744   0.162  0.00  0.00    -0.350 N 
HETATM   33  C   UNK N   1      -2.442   0.479   0.099  0.00  0.00     0.181 A 
ATOM     34  HN  UNK N   1      -2.462   2.621   0.182  1.00  0.00     0.166 HD
HETATM   35  H   UNK N   1      -1.562  -1.439   0.053  0.00  0.00     0.166 HD
ENDBRANCH   4  25
TORSDOF 6
