REMARK  16 active torsions:
REMARK  status: ('A' for Active; 'I' for Inactive)
REMARK    1  A    between atoms: C_5  and  C_2 
REMARK    2  A    between atoms: C_6  and  C_2 
REMARK    3  A    between atoms: C_7  and  C_3 
REMARK    4  A    between atoms: O_14  and  C_3 
REMARK    5  A    between atoms: O_15  and  C_4 
REMARK    6  A    between atoms: C_8  and  C_5 
REMARK    7  A    between atoms: C_5  and  O_16 
REMARK    8  A    between atoms: C_11  and  C_6 
REMARK    9  A    between atoms: C_9  and  C_7 
REMARK   10  A    between atoms: C_7  and  O_18 
REMARK   11  A    between atoms: C_10  and  C_8 
REMARK   12  A    between atoms: C_8  and  N_12 
REMARK   13  A    between atoms: C_10  and  C_9 
REMARK   14  A    between atoms: C_9  and  O_19 
REMARK   15  A    between atoms: C_10  and  O_20 
REMARK   16  A    between atoms: O_21  and  C_11 
ROOT
HETATM    1  C   UNK N   1       7.950   2.912   0.003  0.00  0.00     0.143 C 
ENDROOT
BRANCH   1   2
HETATM    2  C   UNK N   1       9.159   3.507  -0.784  0.00  0.00     0.151 C 
BRANCH   2   3
HETATM    3  C   UNK N   1      10.475   2.750  -0.508  0.00  0.00     0.124 C 
BRANCH   3   4
HETATM    4  C   UNK N   1      11.664   3.453   0.108  0.00  0.00     0.224 C 
HETATM    5  O   UNK N   1      11.654   4.654   0.323  0.00  0.00    -0.286 OA
BRANCH   4   6
HETATM    6  C   UNK N   1      12.866   2.666   0.444  0.00  0.00     0.213 C 
HETATM    7  O   UNK N   1      12.891   1.462   0.246  0.00  0.00    -0.644 OA
BRANCH   6   8
HETATM    8  O   UNK N   1      13.943   3.275   0.978  0.00  0.00    -0.771 OA
HETATM    9  H   UNK N   1      14.684   2.838   1.350  0.00  0.00     0.167 HD
ENDBRANCH   6   8
ENDBRANCH   4   6
ENDBRANCH   3   4
ENDBRANCH   2   3
BRANCH   2  10
HETATM   10  O   UNK N   1       9.285   4.878  -0.543  0.00  0.00    -0.393 OA
HETATM   11  H   UNK N   1      10.152   5.278  -0.375  0.00  0.00     0.210 HD
ENDBRANCH   2  10
ENDBRANCH   1   2
BRANCH   1  12
HETATM   12  C   UNK N   1       6.631   3.611  -0.456  0.00  0.00     0.174 C 
BRANCH  12  13
HETATM   13  C   UNK N   1       5.318   3.046   0.157  0.00  0.00     0.179 C 
BRANCH  13  14
HETATM   14  C   UNK N   1       4.078   3.717  -0.485  0.00  0.00     0.173 C 
BRANCH  14  15
HETATM   15  C   UNK N   1       2.766   3.092  -0.017  0.00  0.00     0.198 C 
BRANCH  15  16
HETATM   16  O   UNK N   1       2.569   3.302   1.349  0.00  0.00    -0.398 OA
HETATM   17  H   UNK N   1       2.627   3.494   2.298  0.00  0.00     0.209 HD
ENDBRANCH  15  16
ENDBRANCH  14  15
BRANCH  14  18
HETATM   18  O   UNK N   1       4.049   5.088  -0.218  0.00  0.00    -0.391 OA
HETATM   19  H   UNK N   1       4.864   5.581  -0.032  0.00  0.00     0.210 HD
ENDBRANCH  14  18
ENDBRANCH  13  14
BRANCH  13  20
HETATM   20  O   UNK N   1       5.231   1.670  -0.079  0.00  0.00    -0.390 OA
HETATM   21  H   UNK N   1       4.374   1.245  -0.242  0.00  0.00     0.210 HD
ENDBRANCH  13  20
ENDBRANCH  12  13
BRANCH  12  22
HETATM   22  O   UNK N   1       6.707   4.977  -0.164  0.00  0.00    -0.391 OA
HETATM   23  H   UNK N   1       7.554   5.405   0.038  0.00  0.00     0.210 HD
ENDBRANCH  12  22
ENDBRANCH   1  12
BRANCH   1  24
HETATM   24  N   UNK N   1       7.849   1.486  -0.276  0.00  0.00    -0.365 N 
HETATM   25  C   UNK N   1       8.512   0.569   0.349  0.00  0.00     0.107 C 
HETATM   26  C   UNK N   1       8.327  -0.857  -0.036  0.00  0.00     0.097 C 
ATOM     27  HN  UNK N   1       7.212   1.190  -1.015  1.00  0.00     0.161 HD
BRANCH  25  28
HETATM   28  O   UNK N   1       9.363   0.879   1.348  0.00  0.00    -0.350 OA
HETATM   29  H   UNK N   1       9.845   0.474   2.043  0.00  0.00     0.219 HD
ENDBRANCH  25  28
ENDBRANCH   1  24
TORSDOF 16
