REMARK  10 active torsions:
REMARK  status: ('A' for Active; 'I' for Inactive)
REMARK    1  A    between atoms: C_2  and  C_3 
REMARK    2  A    between atoms: C_2  and  O_29 
REMARK    3  A    between atoms: C_3  and  C_4 
REMARK    4  A    between atoms: C_3  and  N_28 
REMARK       I    between atoms: C_4  and  N_6 
REMARK    5  A    between atoms: C_10  and  C_11 
REMARK       I    between atoms: C_11  and  N_13 
REMARK    6  A    between atoms: C_17  and  C_18 
REMARK       I    between atoms: C_18  and  N_20 
REMARK    7  A    between atoms: C_21  and  N_20 
REMARK    8  A    between atoms: C_21  and  C_22 
REMARK    9  A    between atoms: C_21  and  C_25 
REMARK   10  A    between atoms: C_22  and  O_24 
REMARK       I    between atoms: C_25  and  N_27 
ROOT
HETATM    1  C   UNK N   1       0.192   0.202   0.230  0.00  0.00     0.243 C 
HETATM    2  O   UNK N   1       0.924  -0.625   0.752  0.00  0.00    -0.271 OA
HETATM    3  N   UNK N   1       0.636   1.484   0.062  0.00  0.00    -0.337 N 
HETATM    4  C   UNK N   1      -0.205   2.560  -0.380  0.00  0.00     0.127 C 
HETATM    5  C   UNK N   1       0.587   3.820  -0.047  0.00  0.00     0.022 C 
HETATM    6  C   UNK N   1       1.771   3.354   0.808  0.00  0.00     0.037 C 
HETATM    7  C   UNK N   1       1.959   1.888   0.448  0.00  0.00     0.179 C 
ENDROOT
BRANCH   1   8
HETATM    8  C   UNK N   1      -1.199  -0.217  -0.227  0.00  0.00     0.179 C 
HETATM    9  C   UNK N   1      -2.257   0.547   0.554  0.00  0.00     0.037 C 
HETATM   10  C   UNK N   1      -3.324  -0.466   0.936  0.00  0.00     0.022 C 
HETATM   11  C   UNK N   1      -2.676  -1.829   0.802  0.00  0.00     0.127 C 
HETATM   12  N   UNK N   1      -1.500  -1.618   0.006  0.00  0.00    -0.337 N 
HETATM   13  C   UNK N   1      -0.752  -2.643  -0.530  0.00  0.00     0.245 C 
HETATM   14  O   UNK N   1       0.230  -2.374  -1.208  0.00  0.00    -0.271 OA
BRANCH  13  15
HETATM   15  C   UNK N   1      -1.075  -4.125  -0.345  0.00  0.00     0.196 C 
BRANCH  15  16
HETATM   16  C   UNK N   1      -0.105  -4.845   0.598  0.00  0.00     0.145 C 
HETATM   17  C   UNK N   1      -0.344  -6.345   0.551  0.00  0.00     0.042 C 
BRANCH  16  18
HETATM   18  O   UNK N   1       1.219  -4.598   0.236  0.00  0.00    -0.393 OA
HETATM   19  H   UNK N   1       1.828  -5.309  -0.015  0.00  0.00     0.210 HD
ENDBRANCH  16  18
ENDBRANCH  15  16
BRANCH  15  20
HETATM   20  N   UNK N   1      -2.455  -4.399   0.029  0.00  0.00    -0.416 N 
HETATM   21  H   UNK N   1      -3.105  -3.657   0.291  0.00  0.00     0.150 HD
HETATM   22  H   UNK N   1      -2.783  -5.364   0.029  0.00  0.00     0.150 HD
ENDBRANCH  15  20
ENDBRANCH  13  15
ENDBRANCH   1   8
BRANCH   7  23
HETATM   23  C   UNK N   1       2.885   1.773  -0.755  0.00  0.00     0.241 C 
HETATM   24  O   UNK N   1       2.803   2.585  -1.665  0.00  0.00    -0.271 OA
HETATM   25  N   UNK N   1       3.773   0.756  -0.869  0.00  0.00    -0.344 N 
HETATM   26  H   UNK N   1       4.367   0.734  -1.653  0.00  0.00     0.163 HD
BRANCH  25  27
HETATM   27  C   UNK N   1       3.884  -0.296   0.111  0.00  0.00     0.204 C 
BRANCH  27  28
HETATM   28  C   UNK N   1       3.431  -1.627  -0.513  0.00  0.00     0.146 C 
HETATM   29  C   UNK N   1       4.277  -2.064  -1.699  0.00  0.00     0.042 C 
BRANCH  28  30
HETATM   30  O   UNK N   1       3.394  -2.635   0.451  0.00  0.00    -0.393 OA
HETATM   31  H   UNK N   1       2.774  -2.963   1.121  0.00  0.00     0.210 HD
ENDBRANCH  28  30
ENDBRANCH  27  28
BRANCH  27  32
HETATM   32  C   UNK N   1       5.270  -0.298   0.708  0.00  0.00     0.240 C 
HETATM   33  O   UNK N   1       5.677   0.702   1.275  0.00  0.00    -0.271 OA
HETATM   34  N   UNK N   1       6.061  -1.388   0.637  0.00  0.00    -0.368 N 
HETATM   35  H   UNK N   1       5.661  -2.286   0.586  0.00  0.00     0.159 HD
HETATM   36  H   UNK N   1       7.040  -1.286   0.637  0.00  0.00     0.159 HD
ENDBRANCH  27  32
ENDBRANCH  25  27
ENDBRANCH   7  23
TORSDOF 10
