REMARK  7 active torsions:
REMARK  status: ('A' for Active; 'I' for Inactive)
REMARK    1  A    between atoms: C_19  and  C_13 
REMARK    2  A    between atoms: N_26  and  C_13 
REMARK    3  A    between atoms: N_26  and  C_15 
REMARK    4  A    between atoms: C_19  and  C_17 
REMARK    5  A    between atoms: C_19  and  C_24 
REMARK    6  A    between atoms: C_20  and  O_33 
REMARK    7  A    between atoms: N_31  and  C_23 
REMARK       I    between atoms: N_32  and  C_24 
ROOT
HETATM    1  C   UNK N   1      -0.357   6.789   0.932  0.00  0.00     0.144 C 
HETATM    2  C   UNK N   1       1.957   6.684  -0.006  0.00  0.00     0.144 C 
HETATM    3  C   UNK N   1      -0.722   5.554   0.148  0.00  0.00     0.145 C 
HETATM    4  C   UNK N   1       1.570   5.369  -0.696  0.00  0.00     0.145 C 
HETATM    5  C   UNK N   1       0.654   3.725   0.903  0.00  0.00     0.230 C 
HETATM    6  N   UNK N   1       0.759   7.451   0.283  0.00  0.00    -0.364 N 
HETATM    7  N   UNK N   1       0.492   4.794   0.073  0.00  0.00    -0.348 N 
HETATM    8  O   UNK N   1      -0.285   3.387   1.618  0.00  0.00    -0.273 OA
ENDROOT
BRANCH   5   9
HETATM    9  C   UNK N   1       1.937   2.916   1.017  0.00  0.00     0.128 C 
BRANCH   9  10
HETATM   10  C   UNK N   1       3.275   3.676   1.035  0.00  0.00     0.133 C 
BRANCH  10  11
HETATM   11  N   UNK N   1       3.889   3.862  -0.271  0.00  0.00    -0.417 N 
HETATM   12  H   UNK N   1       3.463   3.699  -1.183  0.00  0.00     0.153 HD
BRANCH  11  13
HETATM   13  C   UNK N   1       5.240   4.329   0.003  0.00  0.00     0.068 C 
HETATM   14  C   UNK N   1       5.495   5.652  -0.691  0.00  0.00     0.031 C 
HETATM   15  C   UNK N   1       6.243   3.299  -0.469  0.00  0.00     0.031 C 
ENDBRANCH  11  13
ENDBRANCH  10  11
ENDBRANCH   9  10
BRANCH   9  16
HETATM   16  C   UNK N   1       1.866   1.609   0.265  0.00  0.00    -0.043 A 
HETATM   17  C   UNK N   1       0.731   1.286  -0.502  0.00  0.00     0.010 A 
HETATM   18  C   UNK N   1       0.571   0.004  -1.026  0.00  0.00     0.024 A 
HETATM   19  C   UNK N   1       1.543  -0.968  -0.790  0.00  0.00     0.034 A 
HETATM   20  C   UNK N   1       2.690  -0.649  -0.056  0.00  0.00     0.024 A 
HETATM   21 Cl   UNK N   1       1.301  -2.598  -1.373  0.00  0.00    -0.084 Cl
HETATM   22  C   UNK N   1       2.848   0.633   0.476  0.00  0.00     0.010 A 
ENDBRANCH   9  16
ENDBRANCH   5   9
BRANCH   6  23
HETATM   23  C   UNK N   1       0.720   8.850   0.040  0.00  0.00     0.113 A 
HETATM   24  C   UNK N   1      -0.485   9.578  -0.008  0.00  0.00     0.015 A 
HETATM   25  C   UNK N   1      -1.894   9.089   0.077  0.00  0.00     0.023 A 
HETATM   26  C   UNK N   1      -0.441  10.919  -0.214  0.00  0.00     0.049 A 
HETATM   27  C   UNK N   1      -2.220   8.204  -1.116  0.00  0.00     0.015 C 
HETATM   28  C   UNK N   1      -2.729  10.375  -0.003  0.00  0.00     0.047 A 
HETATM   29  C   UNK N   1      -1.773  11.543  -0.289  0.00  0.00     0.169 A 
HETATM   30  N   UNK N   1       0.738  11.576  -0.376  0.00  0.00    -0.353 N 
HETATM   31  C   UNK N   1       1.905  10.878  -0.337  0.00  0.00     0.182 A 
ATOM     32  HN  UNK N   1       0.748  12.585  -0.525  1.00  0.00     0.166 HD
HETATM   33  N   UNK N   1       1.895   9.531  -0.139  0.00  0.00    -0.338 N 
ATOM     34  HN  UNK N   1       2.777   9.019  -0.125  1.00  0.00     0.168 HD
BRANCH  29  35
HETATM   35  O   UNK N   1      -1.914  12.525   0.690  0.00  0.00    -0.389 OA
HETATM   36  H   UNK N   1      -1.372  12.952   1.371  0.00  0.00     0.210 HD
ENDBRANCH  29  35
ENDBRANCH   6  23
TORSDOF 7
