REMARK  6 active torsions:
REMARK  status: ('A' for Active; 'I' for Inactive)
REMARK    1  A    between atoms: C_3  and  C_4 
REMARK       I    between atoms: C_4  and  N_6 
REMARK    2  A    between atoms: C_10  and  C_11 
REMARK    3  A    between atoms: C_14  and  C_23 
REMARK    4  A    between atoms: C_21  and  N_22 
REMARK    5  A    between atoms: C_26  and  C_29 
REMARK       I    between atoms: C_29  and  N_31 
REMARK    6  A    between atoms: N_31  and  C_32 
ROOT
HETATM    1  C   UNK N   1      -6.592   3.542   0.226  0.00  0.00     0.112 C 
HETATM    2  C   UNK N   1      -5.186   3.158   0.089  0.00  0.00    -0.101 C 
HETATM    3  C   UNK N   1      -4.040   2.815  -0.065  0.00  0.00    -0.006 C 
ENDROOT
BRANCH   3   4
HETATM    4  C   UNK N   1      -2.701   2.342  -0.345  0.00  0.00     0.299 C 
HETATM    5  O   UNK N   1      -2.592   1.256  -0.885  0.00  0.00    -0.258 OA
HETATM    6  N   UNK N   1      -1.595   3.107  -0.062  0.00  0.00    -0.330 N 
HETATM    7  C   UNK N   1      -1.736   4.432   0.480  0.00  0.00     0.128 C 
HETATM    8  C   UNK N   1      -0.218   2.780  -0.417  0.00  0.00     0.156 C 
HETATM    9  C   UNK N   1      -0.368   5.071   0.310  0.00  0.00     0.022 C 
HETATM   10  C   UNK N   1       0.600   3.906   0.190  0.00  0.00     0.035 C 
BRANCH   8  11
HETATM   11  C   UNK N   1       0.320   1.394  -0.073  0.00  0.00     0.112 A 
HETATM   12  N   UNK N   1      -0.466   0.309   0.028  0.00  0.00    -0.341 N 
HETATM   13  C   UNK N   1       0.354  -0.760   0.100  0.00  0.00     0.075 A 
ATOM     14  HN  UNK N   1      -1.486   0.296   0.047  1.00  0.00     0.167 HD
HETATM   15  C   UNK N   1       1.678  -0.295   0.057  0.00  0.00     0.112 A 
HETATM   16  N   UNK N   1       1.629   1.048  -0.053  0.00  0.00    -0.303 N 
HETATM   17  C   UNK N   1       2.942  -0.933   0.067  0.00  0.00     0.129 A 
HETATM   18  C   UNK N   1       2.736   1.824  -0.163  0.00  0.00     0.116 A 
HETATM   19  C   UNK N   1       3.986   1.199  -0.134  0.00  0.00     0.107 A 
HETATM   20  N   UNK N   1       4.060  -0.158  -0.023  0.00  0.00    -0.349 N 
ATOM     21  HN  UNK N   1       4.976  -0.606  -0.006  1.00  0.00     0.167 HD
BRANCH  13  22
HETATM   22  C   UNK N   1      -0.220  -2.125   0.119  0.00  0.00    -0.007 A 
HETATM   23  C   UNK N   1       0.583  -3.256   0.083  0.00  0.00     0.015 A 
HETATM   24  C   UNK N   1       0.021  -4.522   0.049  0.00  0.00     0.018 A 
HETATM   25  C   UNK N   1      -1.368  -4.691   0.044  0.00  0.00     0.032 A 
HETATM   26  C   UNK N   1      -2.197  -3.563   0.073  0.00  0.00     0.018 A 
HETATM   27  C   UNK N   1      -1.621  -2.285   0.106  0.00  0.00     0.015 A 
BRANCH  25  28
HETATM   28  C   UNK N   1      -1.895  -6.066   0.018  0.00  0.00     0.257 C 
HETATM   29  O   UNK N   1      -3.100  -6.282   0.010  0.00  0.00    -0.267 OA
HETATM   30  N   UNK N   1      -0.993  -7.080   0.014  0.00  0.00    -0.309 N 
HETATM   31  H   UNK N   1      -0.046  -6.811   0.020  0.00  0.00     0.170 HD
BRANCH  30  32
HETATM   32  C   UNK N   1      -1.238  -8.471   0.005  0.00  0.00     0.107 A 
HETATM   33  C   UNK N   1      -0.137  -9.330   0.031  0.00  0.00     0.048 A 
HETATM   34  C   UNK N   1      -0.337 -10.706   0.027  0.00  0.00     0.005 A 
HETATM   35  C   UNK N   1      -1.635 -11.212  -0.004  0.00  0.00     0.017 A 
HETATM   36  C   UNK N   1      -2.716 -10.325  -0.031  0.00  0.00     0.089 A 
HETATM   37  N   UNK N   1      -2.501  -8.980  -0.025  0.00  0.00    -0.352 N 
ATOM     38  HN  UNK N   1      -3.298  -8.344  -0.043  1.00  0.00     0.166 HD
ENDBRANCH  30  32
ENDBRANCH  25  28
ENDBRANCH  13  22
BRANCH  17  39
HETATM   39  N   UNK N   1       3.091  -2.329   0.155  0.00  0.00    -0.384 N 
HETATM   40  H   UNK N   1       2.297  -2.907   0.218  0.00  0.00     0.157 HD
HETATM   41  H   UNK N   1       3.991  -2.728   0.155  0.00  0.00     0.157 HD
ENDBRANCH  17  39
ENDBRANCH   8  11
ENDBRANCH   3   4
TORSDOF 6
