REMARK  8 active torsions:
REMARK  status: ('A' for Active; 'I' for Inactive)
REMARK    1  A    between atoms: C_2  and  O_5 
REMARK    2  A    between atoms: O_5  and  C_6 
REMARK       I    between atoms: C_6  and  N_8 
REMARK    3  A    between atoms: C_9  and  N_8 
REMARK    4  A    between atoms: C_19  and  C_43 
REMARK    5  A    between atoms: C_25  and  O_30 
REMARK    6  A    between atoms: O_30  and  C_31 
REMARK       I    between atoms: C_31  and  N_33 
REMARK       I    between atoms: C_43  and  N_45 
REMARK    7  A    between atoms: N_45  and  S_46 
REMARK    8  A    between atoms: S_46  and  C_49 
ROOT
HETATM    1  C   UNK N   1       1.841  -6.152  -0.128  0.00  0.00     0.179 C 
HETATM    2  C   UNK N   1       1.738  -7.521   0.535  0.00  0.00     0.035 C 
HETATM    3  C   UNK N   1       2.692  -8.501  -0.134  0.00  0.00     0.002 C 
HETATM    4  C   UNK N   1       3.368  -9.387   0.909  0.00  0.00     0.000 C 
HETATM    5  C   UNK N   1       3.812 -10.727   0.309  0.00  0.00     0.004 C 
HETATM    6  C   UNK N   1       2.678 -11.761   0.290  0.00  0.00     0.027 C 
HETATM    7  C   UNK N   1       1.593 -11.221  -0.567  0.00  0.00    -0.030 C 
HETATM    8  C   UNK N   1       0.380 -10.957  -0.091  0.00  0.00    -0.023 C 
HETATM    9  C   UNK N   1      -0.390  -9.980  -0.889  0.00  0.00     0.048 A 
HETATM   10  C   UNK N   1      -1.579 -10.363  -1.521  0.00  0.00     0.053 A 
HETATM   11  C   UNK N   1      -1.707  -9.511  -0.196  0.00  0.00     0.122 A 
HETATM   12  N   UNK N   1      -1.327  -8.108  -0.178  0.00  0.00    -0.341 N 
HETATM   13  C   UNK N   1      -1.813  -7.118   0.614  0.00  0.00     0.241 C 
HETATM   14  O   UNK N   1      -2.835  -7.282   1.267  0.00  0.00    -0.271 OA
HETATM   15  C   UNK N   1      -1.003  -5.833   0.745  0.00  0.00     0.181 C 
HETATM   16  C   UNK N   1      -1.872  -4.663   1.198  0.00  0.00     0.069 C 
HETATM   17  C   UNK N   1      -2.461  -4.167  -0.120  0.00  0.00     0.154 C 
HETATM   18  C   UNK N   1      -1.480  -4.533  -1.229  0.00  0.00     0.159 C 
HETATM   19  N   UNK N   1      -0.548  -5.401  -0.551  0.00  0.00    -0.334 N 
HETATM   20  C   UNK N   1       0.751  -5.520  -0.975  0.00  0.00     0.243 C 
HETATM   21  O   UNK N   1       1.078  -5.037  -2.048  0.00  0.00    -0.271 OA
HETATM   22  H   UNK N   1      -0.631  -7.843  -0.821  0.00  0.00     0.163 HD
ENDROOT
BRANCH  17  23
HETATM   23  O   UNK N   1      -2.919  -2.856  -0.118  0.00  0.00    -0.297 OA
BRANCH  23  24
HETATM   24  C   UNK N   1      -2.304  -1.629  -0.055  0.00  0.00     0.363 C 
HETATM   25  O   UNK N   1      -3.021  -0.644  -0.144  0.00  0.00    -0.238 OA
HETATM   26  N   UNK N   1      -0.950  -1.444   0.070  0.00  0.00    -0.319 N 
HETATM   27  C   UNK N   1       0.030  -2.502   0.209  0.00  0.00     0.167 A 
HETATM   28  C   UNK N   1      -0.372  -0.105   0.029  0.00  0.00     0.170 A 
HETATM   29  C   UNK N   1       1.298  -1.743   0.193  0.00  0.00    -0.029 A 
HETATM   30  C   UNK N   1       2.589  -2.260   0.255  0.00  0.00     0.009 A 
HETATM   31  C   UNK N   1       1.075  -0.400   0.085  0.00  0.00     0.006 A 
HETATM   32  C   UNK N   1       3.675  -1.373   0.203  0.00  0.00     0.004 A 
HETATM   33  C   UNK N   1       3.450   0.011   0.087  0.00  0.00     0.043 A 
HETATM   34  C   UNK N   1       2.138   0.506   0.028  0.00  0.00     0.124 A 
HETATM   35  F   UNK N   1       1.914   1.837  -0.092  0.00  0.00    -0.205 F 
ENDBRANCH  23  24
ENDBRANCH  17  23
BRANCH   1  36
HETATM   36  N   UNK N   1       2.782  -5.208   0.436  0.00  0.00    -0.324 N 
HETATM   37  C   UNK N   1       4.131  -5.368   0.425  0.00  0.00     0.362 C 
HETATM   38  O   UNK N   1       4.837  -4.467   0.855  0.00  0.00    -0.238 OA
HETATM   39  H   UNK N   1       2.420  -4.394   0.855  0.00  0.00     0.165 HD
BRANCH  37  40
HETATM   40  O   UNK N   1       4.693  -6.521  -0.036  0.00  0.00    -0.294 OA
BRANCH  40  41
HETATM   41  C   UNK N   1       6.055  -6.783  -0.104  0.00  0.00     0.061 C 
HETATM   42  C   UNK N   1       6.719  -6.634   1.258  0.00  0.00     0.046 C 
HETATM   43  C   UNK N   1       6.255  -8.211  -0.564  0.00  0.00     0.046 C 
HETATM   44  C   UNK N   1       6.728  -5.862  -1.107  0.00  0.00     0.046 C 
ENDBRANCH  40  41
ENDBRANCH  37  40
ENDBRANCH   1  36
BRANCH  11  45
HETATM   45  C   UNK N   1      -3.229  -9.641  -0.251  0.00  0.00     0.260 C 
HETATM   46  O   UNK N   1      -3.859  -9.129  -1.172  0.00  0.00    -0.270 OA
HETATM   47  N   UNK N   1      -3.887 -10.321   0.720  0.00  0.00    -0.252 N 
HETATM   48  H   UNK N   1      -3.373 -10.670   1.483  0.00  0.00     0.181 HD
BRANCH  47  49
HETATM   49  S   UNK N   1      -5.631 -10.605   0.672  0.00  0.00     0.237 S 
HETATM   50  O   UNK N   1      -5.879 -11.378   1.975  0.00  0.00    -0.205 OA
HETATM   51  O   UNK N   1      -5.845 -11.738  -0.345  0.00  0.00    -0.205 OA
BRANCH  49  52
HETATM   52  C   UNK N   1      -6.856  -9.251   0.570  0.00  0.00     0.130 A 
HETATM   53  C   UNK N   1      -7.683  -9.405  -0.695  0.00  0.00     0.023 A 
HETATM   54  C   UNK N   1      -6.593  -8.363  -0.629  0.00  0.00     0.023 A 
ENDBRANCH  49  52
ENDBRANCH  47  49
ENDBRANCH  11  45
TORSDOF 8
