REMARK  14 active torsions:
REMARK  status: ('A' for Active; 'I' for Inactive)
REMARK    1  A    between atoms: C_2  and  O_1 
REMARK    2  A    between atoms: C_50  and  O_1 
REMARK    3  A    between atoms: C_5  and  O_58 
REMARK    4  A    between atoms: C_6  and  O_14 
REMARK    5  A    between atoms: C_8  and  O_58 
REMARK    6  A    between atoms: C_27  and  O_28 
REMARK    7  A    between atoms: C_32  and  O_33 
REMARK    8  A    between atoms: C_37  and  O_55 
REMARK    9  A    between atoms: C_38  and  C_44 
REMARK   10  A    between atoms: C_39  and  C_41 
REMARK   11  A    between atoms: C_39  and  O_40 
REMARK   12  A    between atoms: C_44  and  O_45 
REMARK   13  A    between atoms: C_47  and  O_55 
REMARK   14  A    between atoms: C_51  and  N_53 
ROOT
HETATM    1  C   UNK N   1      -6.673   3.758  -0.176  0.00  0.00     0.017 A 
HETATM    2  C   UNK N   1      -7.780   2.911  -0.153  0.00  0.00     0.004 A 
HETATM    3  C   UNK N   1      -7.602   1.530  -0.206  0.00  0.00     0.037 A 
HETATM    4  C   UNK N   1      -5.375   3.233  -0.244  0.00  0.00     0.032 A 
HETATM    5  C   UNK N   1      -5.184   1.834  -0.297  0.00  0.00     0.062 A 
HETATM    6  C   UNK N   1      -4.211   4.146  -0.228  0.00  0.00     0.194 C 
HETATM    7  O   UNK N   1      -4.386   5.359  -0.222  0.00  0.00    -0.287 OA
HETATM    8  C   UNK N   1      -3.798   1.290  -0.334  0.00  0.00     0.199 C 
HETATM    9  O   UNK N   1      -3.620   0.084  -0.448  0.00  0.00    -0.286 OA
HETATM   10  C   UNK N   1      -6.318   0.985  -0.282  0.00  0.00     0.080 A 
HETATM   11  C   UNK N   1      -2.842   3.598  -0.125  0.00  0.00     0.032 A 
HETATM   12  C   UNK N   1      -2.629   2.204  -0.157  0.00  0.00     0.063 A 
HETATM   13  C   UNK N   1      -1.763   4.467   0.070  0.00  0.00     0.025 A 
HETATM   14  C   UNK N   1      -1.325   1.701   0.054  0.00  0.00     0.090 A 
HETATM   15  C   UNK N   1      -0.476   3.978   0.304  0.00  0.00    -0.029 A 
HETATM   16  C   UNK N   1      -0.256   2.579   0.337  0.00  0.00     0.012 A 
HETATM   17  C   UNK N   1       1.949   3.067   1.470  0.00  0.00     0.076 C 
HETATM   18  C   UNK N   1       1.106   2.020   0.725  0.00  0.00     0.163 C 
HETATM   19  C   UNK N   1       0.665   4.943   0.582  0.00  0.00     0.153 C 
HETATM   20  C   UNK N   1       2.083   4.377   0.735  0.00  0.00     0.077 C 
ENDROOT
BRANCH  18  21
HETATM   21  O   UNK N   1       0.958   0.938   1.616  0.00  0.00    -0.351 OA
BRANCH  21  22
HETATM   22  C   UNK N   1       2.008  -0.000   1.443  0.00  0.00     0.263 C 
HETATM   23  C   UNK N   1       3.460   0.539   1.412  0.00  0.00     0.099 C 
HETATM   24  C   UNK N   1       3.800   0.895  -0.034  0.00  0.00     0.258 C 
HETATM   25  C   UNK N   1       3.438  -0.233  -1.036  0.00  0.00     0.186 C 
HETATM   26  C   UNK N   1       1.949  -0.514  -0.805  0.00  0.00     0.151 C 
HETATM   27  O   UNK N   1       1.725  -1.015   0.494  0.00  0.00    -0.354 OA
HETATM   28  C   UNK N   1       1.407  -1.487  -1.836  0.00  0.00     0.042 C 
BRANCH  24  29
HETATM   29  N   UNK N   1       5.024   1.689  -0.233  0.00  0.00     0.087 N 
HETATM   30  C   UNK N   1       5.161   2.067  -1.631  0.00  0.00     0.310 C 
HETATM   31  C   UNK N   1       6.237   1.006   0.182  0.00  0.00     0.310 C 
ENDBRANCH  24  29
BRANCH  25  32
HETATM   32  O   UNK N   1       4.160  -1.460  -1.032  0.00  0.00    -0.351 OA
BRANCH  32  33
HETATM   33  C   UNK N   1       5.064  -1.612   0.037  0.00  0.00     0.263 C 
HETATM   34  C   UNK N   1       6.258  -2.446  -0.412  0.00  0.00     0.095 C 
HETATM   35  C   UNK N   1       5.841  -3.895  -0.674  0.00  0.00     0.154 C 
HETATM   36  C   UNK N   1       4.388  -4.187  -0.275  0.00  0.00     0.182 C 
HETATM   37  C   UNK N   1       4.169  -3.547   1.126  0.00  0.00     0.152 C 
HETATM   38  O   UNK N   1       4.445  -2.152   1.195  0.00  0.00    -0.354 OA
HETATM   39  C   UNK N   1       2.778  -3.759   1.694  0.00  0.00     0.042 C 
BRANCH  35  40
HETATM   40  O   UNK N   1       6.057  -4.217  -2.013  0.00  0.00    -0.393 OA
HETATM   41  H   UNK N   1       5.938  -4.459  -2.945  0.00  0.00     0.210 HD
ENDBRANCH  35  40
BRANCH  36  42
HETATM   42  O   UNK N   1       4.207  -5.589  -0.295  0.00  0.00    -0.351 OA
BRANCH  42  43
HETATM   43  C   UNK N   1       2.852  -6.002  -0.419  0.00  0.00     0.261 C 
HETATM   44  C   UNK N   1       2.497  -6.713   0.877  0.00  0.00     0.068 C 
HETATM   45  C   UNK N   1       1.135  -7.363   0.791  0.00  0.00     0.086 C 
HETATM   46  C   UNK N   1       0.183  -6.595  -0.070  0.00  0.00     0.155 C 
HETATM   47  C   UNK N   1       0.614  -5.366  -0.853  0.00  0.00     0.190 C 
HETATM   48  O   UNK N   1      -0.963  -7.003  -0.180  0.00  0.00    -0.295 OA
HETATM   49  O   UNK N   1       1.949  -4.932  -0.648  0.00  0.00    -0.349 OA
HETATM   50  C   UNK N   1      -0.298  -4.214  -0.466  0.00  0.00     0.048 C 
ENDBRANCH  42  43
ENDBRANCH  36  42
ENDBRANCH  32  33
ENDBRANCH  25  32
ENDBRANCH  21  22
ENDBRANCH  18  21
BRANCH  14  51
HETATM   51  O   UNK N   1      -1.108   0.370   0.046  0.00  0.00    -0.359 OA
HETATM   52  H   UNK N   1      -1.834  -0.223   0.040  0.00  0.00     0.217 HD
ENDBRANCH  14  51
BRANCH  20  53
HETATM   53  C   UNK N   1       2.790   4.115  -0.601  0.00  0.00     0.034 C 
HETATM   54  C   UNK N   1       3.330   5.365  -1.272  0.00  0.00     0.008 C 
ENDBRANCH  20  53
BRANCH  20  55
HETATM   55  O   UNK N   1       2.858   5.225   1.529  0.00  0.00    -0.389 OA
HETATM   56  H   UNK N   1       3.638   5.054   2.081  0.00  0.00     0.210 HD
ENDBRANCH  20  55
BRANCH  19  57
HETATM   57  C   UNK N   1       0.485   6.428   0.417  0.00  0.00     0.270 C 
HETATM   58  O   UNK N   1      -0.297   7.023   1.145  0.00  0.00    -0.264 OA
BRANCH  57  59
HETATM   59  O   UNK N   1       1.235   7.101  -0.488  0.00  0.00    -0.326 OA
HETATM   60  C   UNK N   1       1.231   8.473  -0.579  0.00  0.00     0.213 C 
ENDBRANCH  57  59
ENDBRANCH  19  57
BRANCH  10  61
HETATM   61  O   UNK N   1      -6.186  -0.353  -0.321  0.00  0.00    -0.360 OA
HETATM   62  H   UNK N   1      -6.947  -0.899  -0.349  0.00  0.00     0.217 HD
ENDBRANCH  10  61
TORSDOF 14
