REMARK  7 active torsions:
REMARK  status: ('A' for Active; 'I' for Inactive)
REMARK    1  A    between atoms: C_12  and  C_9 
REMARK    2  A    between atoms: C_16  and  C_9 
REMARK    3  A    between atoms: C_18  and  C_11 
REMARK    4  A    between atoms: C_19  and  C_16 
REMARK    5  A    between atoms: N_23  and  C_16 
REMARK    6  A    between atoms: O_24  and  C_17 
REMARK       I    between atoms: N_23  and  C_18 
REMARK    7  A    between atoms: O_27  and  C_19 
ROOT
HETATM    1  C   UNK N   1      -0.205  -1.777  -0.811  0.00  0.00     0.186 C 
ENDROOT
BRANCH   1   2
HETATM    2  C   UNK N   1      -0.721  -1.693   0.624  0.00  0.00     0.075 C 
BRANCH   2   3
HETATM    3  C   UNK N   1      -2.169  -2.047   0.672  0.00  0.00    -0.039 A 
HETATM    4  C   UNK N   1      -2.514  -3.334   1.075  0.00  0.00     0.064 A 
HETATM    5  C   UNK N   1      -3.850  -3.725   1.079  0.00  0.00     0.140 A 
HETATM    6  N   UNK N   1      -4.820  -2.850   0.697  0.00  0.00    -0.336 N 
HETATM    7  C   UNK N   1      -4.522  -1.584   0.306  0.00  0.00     0.044 A 
ATOM      8  HN  UNK N   1      -5.794  -3.153   0.704  1.00  0.00     0.168 HD
HETATM    9  C   UNK N   1      -5.546  -0.714  -0.082  0.00  0.00     0.030 A 
HETATM   10  C   UNK N   1      -3.178  -1.146   0.281  0.00  0.00    -0.003 A 
HETATM   11  C   UNK N   1      -5.244   0.588  -0.490  0.00  0.00     0.002 A 
HETATM   12  C   UNK N   1      -3.916   1.027  -0.513  0.00  0.00     0.001 A 
HETATM   13  C   UNK N   1      -2.884   0.163  -0.131  0.00  0.00     0.014 A 
BRANCH   5  14
HETATM   14  O   UNK N   1      -4.176  -4.971   1.451  0.00  0.00    -0.346 OA
HETATM   15  H   UNK N   1      -5.045  -5.209   1.711  0.00  0.00     0.219 HD
ENDBRANCH   5  14
ENDBRANCH   2   3
ENDBRANCH   1   2
BRANCH   1  16
HETATM   16  C   UNK N   1      -0.343  -3.163  -1.400  0.00  0.00     0.163 C 
HETATM   17  O   UNK N   1       0.181  -4.129  -0.867  0.00  0.00    -0.648 OA
BRANCH  16  18
HETATM   18  O   UNK N   1      -1.134  -3.349  -2.472  0.00  0.00    -0.775 OA
HETATM   19  H   UNK N   1      -1.522  -2.936  -3.219  0.00  0.00     0.167 HD
ENDBRANCH  16  18
ENDBRANCH   1  16
BRANCH   1  20
HETATM   20  N   UNK N   1       1.130  -1.214  -0.886  0.00  0.00    -0.342 N 
HETATM   21  C   UNK N   1       2.251  -1.761  -0.345  0.00  0.00     0.252 C 
HETATM   22  O   UNK N   1       2.231  -2.886   0.135  0.00  0.00    -0.268 OA
HETATM   23  H   UNK N   1       1.233  -0.364  -1.371  0.00  0.00     0.163 HD
BRANCH  21  24
HETATM   24  C   UNK N   1       3.481  -0.953  -0.250  0.00  0.00     0.032 A 
HETATM   25  C   UNK N   1       4.646  -1.498   0.310  0.00  0.00     0.018 A 
HETATM   26  C   UNK N   1       5.775  -0.699   0.501  0.00  0.00     0.025 A 
HETATM   27  C   UNK N   1       5.743   0.652   0.145  0.00  0.00     0.034 A 
HETATM   28  C   UNK N   1       4.589   1.200  -0.423  0.00  0.00     0.025 A 
HETATM   29 Cl   UNK N   1       7.138   1.666   0.435  0.00  0.00    -0.084 Cl
HETATM   30  C   UNK N   1       3.462   0.400  -0.621  0.00  0.00     0.018 A 
ENDBRANCH  21  24
ENDBRANCH   1  20
TORSDOF 7
