REMARK  4 active torsions:
REMARK  status: ('A' for Active; 'I' for Inactive)
REMARK    1  A    between atoms: C_6  and  O_9 
REMARK    2  A    between atoms: C_22  and  C_23 
REMARK    3  A    between atoms: C_22  and  O_27 
REMARK    4  A    between atoms: C_23  and  C_24 
ROOT
HETATM    1  C   UNK N   1       9.089  -3.867  -0.673  0.00  0.00     0.001 C 
HETATM    2  C   UNK N   1       8.992  -5.407  -0.697  0.00  0.00     0.005 C 
HETATM    3  C   UNK N   1       7.718  -3.178  -0.725  0.00  0.00     0.048 C 
HETATM    4  C   UNK N   1       9.829  -3.405  -1.934  0.00  0.00     0.019 C 
HETATM    5  C   UNK N   1       7.851  -6.010   0.166  0.00  0.00     0.035 C 
HETATM    6  C   UNK N   1       6.660  -3.807   0.181  0.00  0.00     0.160 C 
HETATM    7  C   UNK N   1       6.489  -5.313  -0.157  0.00  0.00     0.147 C 
HETATM    8  C   UNK N   1       7.792  -7.527  -0.114  0.00  0.00     0.013 C 
HETATM    9  C   UNK N   1       5.313  -6.005   0.619  0.00  0.00     0.036 A 
HETATM   10  F   UNK N   1       6.228  -5.441  -1.517  0.00  0.00    -0.238 F 
HETATM   11  C   UNK N   1       6.651  -8.217   0.623  0.00  0.00     0.036 C 
HETATM   12  C   UNK N   1       5.386  -7.497   0.296  0.00  0.00    -0.061 A 
HETATM   13  C   UNK N   1       3.979  -5.380   0.231  0.00  0.00    -0.006 A 
HETATM   14  C   UNK N   1       5.465  -5.833   2.128  0.00  0.00     0.028 C 
HETATM   15  C   UNK N   1       4.402  -8.158  -0.330  0.00  0.00     0.058 A 
HETATM   16  C   UNK N   1       2.997  -6.050  -0.385  0.00  0.00     0.052 A 
HETATM   17  C   UNK N   1       3.167  -7.467  -0.720  0.00  0.00     0.172 A 
HETATM   18  O   UNK N   1       2.292  -8.064  -1.323  0.00  0.00    -0.289 OA
HETATM   19  C   UNK N   1      10.344  -5.886  -0.145  0.00  0.00     0.013 C 
HETATM   20  C   UNK N   1      11.041  -4.675   0.497  0.00  0.00     0.025 C 
HETATM   21  C   UNK N   1       9.947  -3.571   0.577  0.00  0.00     0.130 C 
HETATM   22  C   UNK N   1      12.229  -4.370  -0.409  0.00  0.00     0.013 C 
ENDROOT
BRANCH  21  23
HETATM   23  C   UNK N   1      10.415  -2.118   0.651  0.00  0.00     0.175 C 
HETATM   24  O   UNK N   1       9.582  -1.224   0.677  0.00  0.00    -0.293 OA
BRANCH  23  25
HETATM   25  C   UNK N   1      11.864  -1.743   0.712  0.00  0.00     0.196 C 
HETATM   26 Cl   UNK N   1      12.331  -0.858  -0.763  0.00  0.00    -0.122 Cl
ENDBRANCH  23  25
ENDBRANCH  21  23
BRANCH  21  27
HETATM   27  O   UNK N   1       9.200  -3.812   1.734  0.00  0.00    -0.381 OA
HETATM   28  H   UNK N   1       8.795  -3.447   2.536  0.00  0.00     0.211 HD
ENDBRANCH  21  27
BRANCH   6  29
HETATM   29  O   UNK N   1       5.474  -3.092   0.014  0.00  0.00    -0.392 OA
HETATM   30  H   UNK N   1       5.492  -2.129  -0.102  0.00  0.00     0.210 HD
ENDBRANCH   6  29
TORSDOF 4
