REMARK  11 active torsions:
REMARK  status: ('A' for Active; 'I' for Inactive)
REMARK    1  A    between atoms: C_3  and  O_16 
REMARK    2  A    between atoms: C_6  and  N_7 
REMARK    3  A    between atoms: C_9  and  C_13 
REMARK    4  A    between atoms: C_13  and  O_14 
REMARK    5  A    between atoms: O_16  and  C_17 
REMARK    6  A    between atoms: C_17  and  C_18 
REMARK    7  A    between atoms: C_18  and  O_42 
REMARK    8  A    between atoms: N_21  and  C_24 
REMARK    9  A    between atoms: C_33  and  C_39 
REMARK   10  A    between atoms: N_35  and  C_36 
REMARK   11  A    between atoms: C_39  and  O_41 
ROOT
HETATM    1  C   UNK N   1      -4.736  -0.967   0.615  0.00  0.00     0.083 C 
HETATM    2  C   UNK N   1      -4.332   0.391   0.002  0.00  0.00     0.060 C 
HETATM    3  C   UNK N   1      -3.083   0.324  -0.888  0.00  0.00     0.126 C 
HETATM    4  N   UNK N   1      -2.030  -0.447  -0.253  0.00  0.00    -0.378 N 
HETATM    5  C   UNK N   1      -2.365  -1.751   0.264  0.00  0.00     0.126 C 
HETATM    6  C   UNK N   1      -3.496  -1.590   1.286  0.00  0.00     0.060 C 
ENDROOT
BRANCH   1   7
HETATM    7  C   UNK N   1      -5.398  -1.917  -0.416  0.00  0.00     0.213 C 
BRANCH   7   8
HETATM    8  O   UNK N   1      -4.636  -3.052  -0.605  0.00  0.00    -0.345 OA
BRANCH   8   9
HETATM    9  C   UNK N   1      -5.033  -4.333  -0.408  0.00  0.00     0.107 A 
HETATM   10  C   UNK N   1      -6.385  -4.696  -0.263  0.00  0.00     0.042 A 
HETATM   11  C   UNK N   1      -6.738  -6.051  -0.121  0.00  0.00     0.032 A 
HETATM   12  C   UNK N   1      -5.743  -7.050  -0.115  0.00  0.00     0.042 A 
HETATM   13  C   UNK N   1      -4.402  -6.664  -0.225  0.00  0.00     0.075 A 
HETATM   14  C   UNK N   1      -4.050  -5.326  -0.365  0.00  0.00     0.151 A 
HETATM   15  F   UNK N   1      -2.741  -4.991  -0.473  0.00  0.00    -0.203 F 
BRANCH  12  16
HETATM   16  N   UNK N   1      -6.061  -8.448  -0.093  0.00  0.00    -0.291 N 
HETATM   17  C   UNK N   1      -5.070  -9.480  -0.244  0.00  0.00     0.169 A 
HETATM   18  C   UNK N   1      -5.935 -10.762  -0.358  0.00  0.00     0.175 A 
HETATM   19  O   UNK N   1      -7.236 -10.338  -0.127  0.00  0.00    -0.294 OA
HETATM   20  C   UNK N   1      -7.272  -9.007  -0.014  0.00  0.00     0.368 A 
HETATM   21  O   UNK N   1      -8.310  -8.380   0.112  0.00  0.00    -0.238 OA
BRANCH  18  22
HETATM   22  C   UNK N   1      -5.500 -11.805   0.652  0.00  0.00     0.198 C 
BRANCH  22  23
HETATM   23  O   UNK N   1      -6.093 -13.029   0.339  0.00  0.00    -0.398 OA
HETATM   24  H   UNK N   1      -7.036 -13.097   0.121  0.00  0.00     0.209 HD
ENDBRANCH  22  23
ENDBRANCH  18  22
ENDBRANCH  12  16
ENDBRANCH   8   9
ENDBRANCH   7   8
ENDBRANCH   1   7
BRANCH   1  25
HETATM   25  O   UNK N   1      -5.685  -0.709   1.602  0.00  0.00    -0.388 OA
HETATM   26  H   UNK N   1      -5.860  -0.047   2.289  0.00  0.00     0.210 HD
ENDBRANCH   1  25
BRANCH   4  27
HETATM   27  C   UNK N   1      -0.675   0.007  -0.193  0.00  0.00     0.071 A 
HETATM   28  C   UNK N   1       0.358  -0.941  -0.190  0.00  0.00     0.063 A 
HETATM   29  C   UNK N   1       1.708  -0.566  -0.139  0.00  0.00     0.051 A 
HETATM   30  C   UNK N   1       2.031   0.807  -0.046  0.00  0.00     0.045 A 
HETATM   31  N   UNK N   1       2.708  -1.509  -0.196  0.00  0.00    -0.350 N 
HETATM   32  C   UNK N   1       1.001   1.763  -0.043  0.00  0.00     0.062 A 
HETATM   33  C   UNK N   1       3.380   1.196   0.023  0.00  0.00     0.202 A 
HETATM   34  C   UNK N   1      -0.341   1.375  -0.137  0.00  0.00     0.143 A 
HETATM   35  F   UNK N   1      -1.304   2.329  -0.118  0.00  0.00    -0.204 F 
HETATM   36  O   UNK N   1       3.670   2.378   0.118  0.00  0.00    -0.286 OA
HETATM   37  C   UNK N   1       4.390   0.213  -0.029  0.00  0.00     0.104 A 
HETATM   38  C   UNK N   1       4.017  -1.128  -0.155  0.00  0.00     0.114 A 
BRANCH  37  39
HETATM   39  C   UNK N   1       5.839   0.541   0.029  0.00  0.00     0.181 C 
HETATM   40  O   UNK N   1       6.217   1.697   0.147  0.00  0.00    -0.646 OA
BRANCH  39  41
HETATM   41  O   UNK N   1       6.756  -0.445  -0.047  0.00  0.00    -0.772 OA
HETATM   42  H   UNK N   1       6.481  -1.339  -0.100  0.00  0.00     0.167 HD
ENDBRANCH  39  41
ENDBRANCH  37  39
BRANCH  31  43
HETATM   43  C   UNK N   1       2.415  -2.941  -0.381  0.00  0.00     0.090 A 
HETATM   44  C   UNK N   1       3.088  -3.782   0.697  0.00  0.00     0.028 A 
HETATM   45  C   UNK N   1       1.611  -3.495   0.789  0.00  0.00     0.028 A 
ENDBRANCH  31  43
ENDBRANCH   4  27
TORSDOF 11
