REMARK  2 active torsions:
REMARK  status: ('A' for Active; 'I' for Inactive)
REMARK    1  A    between atoms: C_2  and  O_18 
REMARK    2  A    between atoms: C_17  and  C_20 
ROOT
HETATM    1  C   UNK N   1      11.137 -12.714  -1.542  0.00  0.00     0.032 C 
HETATM    2  C   UNK N   1      10.865 -13.564  -0.304  0.00  0.00     0.118 C 
HETATM    3  C   UNK N   1      12.004 -14.551  -0.020  0.00  0.00     0.037 C 
HETATM    4  C   UNK N   1      13.404 -13.966  -0.290  0.00  0.00    -0.004 C 
HETATM    5  C   UNK N   1      13.405 -12.409  -0.312  0.00  0.00    -0.036 C 
HETATM    6  C   UNK N   1      12.469 -11.942  -1.449  0.00  0.00     0.012 C 
HETATM    7  C   UNK N   1      14.390 -14.526   0.743  0.00  0.00     0.006 C 
HETATM    8  C   UNK N   1      15.804 -13.986   0.516  0.00  0.00     0.006 C 
HETATM    9  C   UNK N   1      15.797 -12.455   0.554  0.00  0.00    -0.005 C 
HETATM   10  C   UNK N   1      14.855 -11.899  -0.554  0.00  0.00    -0.002 C 
HETATM   11  C   UNK N   1      17.210 -11.849   0.457  0.00  0.00    -0.001 C 
HETATM   12  C   UNK N   1      17.184 -10.291   0.476  0.00  0.00    -0.030 C 
HETATM   13  C   UNK N   1      15.765  -9.701   0.432  0.00  0.00     0.011 C 
HETATM   14  C   UNK N   1      14.911 -10.357  -0.657  0.00  0.00     0.006 C 
HETATM   15  C   UNK N   1      17.977 -12.232  -0.807  0.00  0.00     0.006 C 
HETATM   16  C   UNK N   1      18.899 -11.054  -1.051  0.00  0.00     0.013 C 
HETATM   17  C   UNK N   1      17.959  -9.901  -0.789  0.00  0.00     0.063 C 
HETATM   18  C   UNK N   1      17.871  -9.783   1.743  0.00  0.00     0.016 C 
HETATM   19  C   UNK N   1      12.877 -11.837   1.014  0.00  0.00     0.016 C 
ENDROOT
BRANCH  17  20
HETATM   20  C   UNK N   1      18.550  -8.512  -0.807  0.00  0.00     0.128 C 
HETATM   21  C   UNK N   1      20.022  -8.297  -0.944  0.00  0.00     0.091 C 
HETATM   22  O   UNK N   1      17.814  -7.543  -0.711  0.00  0.00    -0.298 OA
ENDBRANCH  17  20
BRANCH   2  23
HETATM   23  O   UNK N   1       9.655 -14.244  -0.427  0.00  0.00    -0.396 OA
HETATM   24  H   UNK N   1       8.824 -13.751  -0.513  0.00  0.00     0.210 HD
ENDBRANCH   2  23
TORSDOF 2
