REMARK  11 active torsions:
REMARK  status: ('A' for Active; 'I' for Inactive)
REMARK    1  A    between atoms: O_29  and  C_4 
REMARK    2  A    between atoms: C_11  and  C_10 
REMARK    3  A    between atoms: C_14  and  C_10 
REMARK    4  A    between atoms: C_15  and  C_11 
REMARK    5  A    between atoms: C_17  and  C_13 
REMARK    6  A    between atoms: N_21  and  C_13 
REMARK    7  A    between atoms: C_19  and  C_15 
REMARK    8  A    between atoms: C_15  and  N_21 
REMARK    9  A    between atoms: C_16  and  C_18 
REMARK       I    between atoms: N_23  and  C_17 
REMARK   10  A    between atoms: O_26  and  C_18 
REMARK   11  A    between atoms: O_29  and  C_19 
ROOT
HETATM    1  N   UNK N   1       6.540   1.611   0.204  0.00  0.00    -0.397 N 
HETATM    2  H   UNK N   1       6.821   1.913   1.136  0.00  0.00     0.154 HD
ENDROOT
BRANCH   1   3
HETATM    3  C   UNK N   1       7.437   0.924  -0.750  0.00  0.00     0.166 C 
HETATM    4  C   UNK N   1       6.783  -0.276  -1.435  0.00  0.00     0.042 C 
BRANCH   3   5
HETATM    5  C   UNK N   1       8.845   0.745  -0.160  0.00  0.00     0.250 C 
HETATM    6  N   UNK N   1       9.498  -0.468   0.050  0.00  0.00    -0.251 N 
HETATM    7  C   UNK N   1      10.925  -0.617   0.389  0.00  0.00     0.213 C 
HETATM    8  C   UNK N   1       8.955  -1.709   0.069  0.00  0.00     0.327 C 
HETATM    9  C   UNK N   1      11.201  -2.120   0.092  0.00  0.00     0.164 C 
HETATM   10  N   UNK N   1       9.876  -2.670   0.108  0.00  0.00    -0.336 N 
HETATM   11  C   UNK N   1       9.582  -4.081   0.096  0.00  0.00     0.154 C 
HETATM   12  O   UNK N   1       7.765  -1.954   0.119  0.00  0.00    -0.247 OA
HETATM   13  O   UNK N   1       9.455   1.782   0.043  0.00  0.00    -0.271 OA
BRANCH   7  14
HETATM   14  C   UNK N   1      11.953   0.326  -0.209  0.00  0.00     0.166 C 
HETATM   15  O   UNK N   1      11.956   1.506   0.104  0.00  0.00    -0.648 OA
BRANCH  14  16
HETATM   16  O   UNK N   1      12.968  -0.152  -0.955  0.00  0.00    -0.775 OA
HETATM   17  H   UNK N   1      13.033  -0.930  -1.474  0.00  0.00     0.167 HD
ENDBRANCH  14  16
ENDBRANCH   7  14
ENDBRANCH   3   5
ENDBRANCH   1   3
BRANCH   1  18
HETATM   18  C   UNK N   1       5.188   1.806  -0.357  0.00  0.00     0.178 C 
BRANCH  18  19
HETATM   19  C   UNK N   1       4.738   3.252  -0.296  0.00  0.00     0.039 C 
BRANCH  19  20
HETATM   20  C   UNK N   1       4.483   3.874   1.064  0.00  0.00     0.041 C 
BRANCH  20  21
HETATM   21  C   UNK N   1       4.010   5.249   0.746  0.00  0.00    -0.058 A 
HETATM   22  C   UNK N   1       2.705   5.451   0.272  0.00  0.00     0.007 A 
HETATM   23  C   UNK N   1       2.313   6.713  -0.183  0.00  0.00     0.001 A 
HETATM   24  C   UNK N   1       3.228   7.769  -0.185  0.00  0.00     0.000 A 
HETATM   25  C   UNK N   1       4.530   7.569   0.283  0.00  0.00     0.001 A 
HETATM   26  C   UNK N   1       4.923   6.308   0.742  0.00  0.00     0.007 A 
ENDBRANCH  20  21
ENDBRANCH  19  20
ENDBRANCH  18  19
BRANCH  18  27
HETATM   27  C   UNK N   1       4.208   0.851   0.260  0.00  0.00     0.281 C 
HETATM   28  O   UNK N   1       4.550   0.129   1.189  0.00  0.00    -0.263 OA
BRANCH  27  29
HETATM   29  O   UNK N   1       2.973   0.736  -0.284  0.00  0.00    -0.320 OA
BRANCH  29  30
HETATM   30  C   UNK N   1       2.085  -0.237   0.108  0.00  0.00     0.174 C 
HETATM   31  C   UNK N   1       0.693   0.347   0.173  0.00  0.00     0.034 C 
ENDBRANCH  29  30
ENDBRANCH  27  29
ENDBRANCH  18  27
ENDBRANCH   1  18
TORSDOF 11
