REMARK  7 active torsions:
REMARK  status: ('A' for Active; 'I' for Inactive)
REMARK       I    between atoms: N_2  and  C_3 
REMARK       I    between atoms: C_3  and  N_6 
REMARK    1  A    between atoms: N_6  and  C_7 
REMARK    2  A    between atoms: C_7  and  C_8 
REMARK    3  A    between atoms: C_8  and  C_9 
REMARK    4  A    between atoms: C_9  and  C_10 
REMARK    5  A    between atoms: C_10  and  N_11 
REMARK    6  A    between atoms: C_10  and  C_12 
REMARK    7  A    between atoms: C_12  and  O_13 
ROOT
HETATM    1  C   UNK N   1       5.077   1.430  -0.626  0.00  0.00     0.138 C 
ENDROOT
BRANCH   1   2
HETATM    2  N   UNK N   1       3.769   1.099  -0.105  0.00  0.00    -0.227 N 
HETATM    3  C   UNK N   1       2.702   2.038  -0.052  0.00  0.00     0.667 C 
HETATM    4  N   UNK N   1       1.386   1.572   0.204  0.00  0.00    -0.231 N 
HETATM    5  N   UNK N   1       2.913   3.278  -0.309  0.00  0.00    -0.235 N 
HETATM    6  C   UNK N   1       0.244   2.450   0.134  0.00  0.00     0.165 C 
HETATM    7  H   UNK N   1       1.249   0.625   0.434  0.00  0.00     0.177 HD
HETATM    8  H   UNK N   1       3.817   3.613  -0.507  0.00  0.00     0.174 HD
ATOM      9  HN  UNK N   1       2.127   3.928  -0.309  1.00  0.00     0.174 HD
HETATM   10  H   UNK N   1       3.610   0.185   0.226  0.00  0.00     0.177 HD
ENDBRANCH   1   2
BRANCH   1  11
HETATM   11  C   UNK N   1       5.800   2.436   0.258  0.00  0.00     0.023 C 
BRANCH  11  12
HETATM   12  C   UNK N   1       7.042   1.808   0.870  0.00  0.00     0.037 C 
BRANCH  12  13
HETATM   13  C   UNK N   1       8.094   1.525  -0.196  0.00  0.00     0.173 C 
BRANCH  13  14
HETATM   14  N   UNK N   1       8.532   0.145  -0.073  0.00  0.00    -0.418 N 
HETATM   15  H   UNK N   1       7.847  -0.606   0.014  0.00  0.00     0.150 HD
HETATM   16  H   UNK N   1       9.528  -0.074  -0.073  0.00  0.00     0.150 HD
ENDBRANCH  13  14
BRANCH  13  17
HETATM   17  C   UNK N   1       9.258   2.467  -0.070  0.00  0.00     0.163 C 
HETATM   18  O   UNK N   1       9.084   3.670  -0.186  0.00  0.00    -0.648 OA
BRANCH  17  19
HETATM   19  O   UNK N   1      10.501   1.994   0.151  0.00  0.00    -0.775 OA
HETATM   20  H   UNK N   1      10.648   1.081   0.305  0.00  0.00     0.167 HD
ENDBRANCH  17  19
ENDBRANCH  13  17
ENDBRANCH  12  13
ENDBRANCH  11  12
ENDBRANCH   1  11
TORSDOF 7
