REMARK  5 active torsions:
REMARK  status: ('A' for Active; 'I' for Inactive)
REMARK    1  A    between atoms: C_1  and  C_4 
REMARK    2  A    between atoms: C_2  and  C_6 
REMARK    3  A    between atoms: C_3  and  O_8 
REMARK    4  A    between atoms: C_4  and  N_9 
REMARK    5  A    between atoms: C_6  and  O_12 
ROOT
HETATM    1  C   UNK N   1      -0.122   0.513  -0.000  0.00  0.00     0.004 A 
HETATM    2  C   UNK N   1       1.048  -0.341  -0.000  0.00  0.00    -0.009 A 
HETATM    3  C   UNK N   1      -1.394  -0.111   0.000  0.00  0.00     0.096 A 
HETATM    4  C   UNK N   1       0.842  -1.727   0.000  0.00  0.00     0.098 A 
HETATM    5  C   UNK N   1      -1.508  -1.503   0.000  0.00  0.00     0.039 A 
HETATM    6  N   UNK N   1      -0.398  -2.272   0.000  0.00  0.00    -0.367 N 
ATOM      7  HN  UNK N   1      -0.496  -3.287   0.000  1.00  0.00     0.165 HD
HETATM    8  C   UNK N   1      -2.850  -2.156   0.000  0.00  0.00     0.071 C 
ENDROOT
BRANCH   1   9
HETATM    9  C   UNK N   1      -0.205   2.037  -0.000  0.00  0.00     0.153 C 
BRANCH   9  10
HETATM   10  N   UNK N   1       1.008   2.817  -0.000  0.00  0.00    -0.426 N 
HETATM   11  H   UNK N   1       1.915   2.350  -0.000  0.00  0.00     0.150 HD
HETATM   12  H   UNK N   1       0.959   3.836  -0.000  0.00  0.00     0.150 HD
ENDBRANCH   9  10
ENDBRANCH   1   9
BRANCH   2  13
HETATM   13  C   UNK N   1       2.528   0.005  -0.000  0.00  0.00     0.205 C 
BRANCH  13  14
HETATM   14  O   UNK N   1       2.914   1.335   0.000  0.00  0.00    -0.396 OA
HETATM   15  H   UNK N   1       3.856   1.566   0.000  0.00  0.00     0.209 HD
ENDBRANCH  13  14
ENDBRANCH   2  13
BRANCH   3  16
HETATM   16  O   UNK N   1      -2.515   0.639  -0.000  0.00  0.00    -0.358 OA
HETATM   17  H   UNK N   1      -2.454   1.574  -0.000  0.00  0.00     0.217 HD
ENDBRANCH   3  16
TORSDOF 5
