REMARK  4 active torsions:
REMARK  status: ('A' for Active; 'I' for Inactive)
REMARK    1  A    between atoms: C_4  and  C_22 
REMARK    2  A    between atoms: C_7  and  C_8 
REMARK    3  A    between atoms: C_8  and  N_9 
REMARK       I    between atoms: N_9  and  C_10 
REMARK       I    between atoms: C_10  and  N_12 
REMARK    4  A    between atoms: C_16  and  C_17 
REMARK       I    between atoms: C_17  and  N_19 
REMARK       I    between atoms: C_22  and  N_24 
ROOT
HETATM    1  C   UNK N   1       7.799   1.634  -0.256  0.00  0.00     0.049 C 
HETATM    2  C   UNK N   1       6.481   2.306  -0.447  0.00  0.00    -0.053 A 
HETATM    3  C   UNK N   1       5.329   1.594  -0.173  0.00  0.00     0.024 A 
HETATM    4  C   UNK N   1       4.058   2.160  -0.295  0.00  0.00     0.033 A 
HETATM    5  C   UNK N   1       3.961   3.484  -0.756  0.00  0.00     0.017 A 
HETATM    6  C   UNK N   1       5.121   4.227  -1.020  0.00  0.00     0.010 A 
HETATM    7  C   UNK N   1       6.385   3.637  -0.864  0.00  0.00    -0.034 A 
ENDROOT
BRANCH   7   8
HETATM    8  C   UNK N   1       7.622   4.466  -0.977  0.00  0.00     0.163 C 
BRANCH   8   9
HETATM    9  N   UNK N   1       7.978   4.787   0.385  0.00  0.00    -0.339 N 
HETATM   10  C   UNK N   1       7.298   5.717   1.114  0.00  0.00     0.319 C 
HETATM   11  O   UNK N   1       7.285   5.605   2.329  0.00  0.00    -0.247 OA
HETATM   12  N   UNK N   1       6.605   6.742   0.520  0.00  0.00    -0.321 N 
HETATM   13  C   UNK N   1       5.701   7.570   1.268  0.00  0.00     0.129 C 
HETATM   14  C   UNK N   1       6.777   7.150  -0.854  0.00  0.00     0.181 C 
HETATM   15  C   UNK N   1       5.031   8.457   0.230  0.00  0.00     0.022 C 
HETATM   16  C   UNK N   1       5.865   8.349  -1.043  0.00  0.00     0.037 C 
HETATM   17  H   UNK N   1       8.737   4.319   0.802  0.00  0.00     0.164 HD
BRANCH  14  18
HETATM   18  C   UNK N   1       8.231   7.526  -1.128  0.00  0.00     0.242 C 
HETATM   19  O   UNK N   1       8.806   6.954  -2.044  0.00  0.00    -0.271 OA
HETATM   20  N   UNK N   1       8.912   8.447  -0.375  0.00  0.00    -0.359 N 
HETATM   21  C   UNK N   1      10.301   8.723  -0.646  0.00  0.00     0.152 C 
HETATM   22  C   UNK N   1       8.295   9.151   0.721  0.00  0.00     0.152 C 
ENDBRANCH  14  18
ENDBRANCH   8   9
ENDBRANCH   7   8
BRANCH   4  23
HETATM   23  C   UNK N   1       2.825   1.330  -0.094  0.00  0.00     0.258 C 
HETATM   24  O   UNK N   1       1.778   1.782  -0.536  0.00  0.00    -0.267 OA
HETATM   25  N   UNK N   1       2.855   0.059   0.471  0.00  0.00    -0.313 N 
HETATM   26  C   UNK N   1       4.040  -0.380   1.198  0.00  0.00     0.132 C 
HETATM   27  C   UNK N   1       1.720  -0.846   0.387  0.00  0.00     0.043 A 
HETATM   28  C   UNK N   1       4.962  -1.272   0.367  0.00  0.00     0.021 C 
HETATM   29  C   UNK N   1       4.228  -2.428  -0.280  0.00  0.00     0.006 C 
HETATM   30  C   UNK N   1       3.190  -2.956   0.689  0.00  0.00     0.041 C 
HETATM   31  C   UNK N   1       1.876  -2.270   0.475  0.00  0.00    -0.031 A 
HETATM   32  C   UNK N   1       0.770  -3.105   0.294  0.00  0.00     0.009 A 
HETATM   33  C   UNK N   1      -0.493  -2.576   0.047  0.00  0.00     0.001 A 
HETATM   34  C   UNK N   1      -0.667  -1.199  -0.028  0.00  0.00     0.002 A 
HETATM   35  C   UNK N   1       0.427  -0.349   0.128  0.00  0.00     0.030 A 
ENDBRANCH   4  23
TORSDOF 4
