REMARK  10 active torsions:
REMARK  status: ('A' for Active; 'I' for Inactive)
REMARK    1  A    between atoms: C_2  and  C_3 
REMARK    2  A    between atoms: C_2  and  O_24 
REMARK    3  A    between atoms: C_12  and  C_13 
REMARK    4  A    between atoms: C_16  and  O_22 
REMARK    5  A    between atoms: C_18  and  O_21 
REMARK    6  A    between atoms: O_24  and  C_25 
REMARK    7  A    between atoms: C_25  and  C_26 
REMARK       I    between atoms: C_26  and  N_28 
REMARK    8  A    between atoms: N_28  and  C_29 
REMARK    9  A    between atoms: C_29  and  C_30 
REMARK   10  A    between atoms: C_30  and  C_31 
ROOT
HETATM    1  C   UNK N   1      -2.818   1.295   0.135  0.00  0.00    -0.046 C 
HETATM    2  C   UNK N   1      -4.083   1.571   0.402  0.00  0.00    -0.020 C 
HETATM    3  C   UNK N   1      -5.010   0.839  -0.496  0.00  0.00     0.037 C 
HETATM    4  C   UNK N   1      -4.099  -0.206  -1.152  0.00  0.00     0.030 C 
HETATM    5  C   UNK N   1      -2.680   0.384  -1.053  0.00  0.00    -0.011 C 
HETATM    6  C   UNK N   1      -1.566  -0.684  -0.988  0.00  0.00     0.015 C 
HETATM    7  C   UNK N   1      -1.917  -2.073  -0.431  0.00  0.00     0.005 C 
HETATM    8  C   UNK N   1      -3.166  -2.066   0.425  0.00  0.00     0.034 C 
HETATM    9  C   UNK N   1      -4.285  -1.490  -0.382  0.00  0.00    -0.074 C 
HETATM   10  C   UNK N   1      -5.483  -2.055  -0.470  0.00  0.00     0.004 C 
HETATM   11  C   UNK N   1      -2.410   1.246  -2.276  0.00  0.00     0.021 C 
ENDROOT
BRANCH   1  12
HETATM   12  C   UNK N   1      -1.723   2.117   0.763  0.00  0.00     0.147 C 
HETATM   13  C   UNK N   1      -1.669   3.497   0.126  0.00  0.00     0.044 C 
BRANCH  12  14
HETATM   14  O   UNK N   1      -0.475   1.510   0.649  0.00  0.00    -0.373 OA
BRANCH  14  15
HETATM   15  C   UNK N   1      -0.330   0.733   1.802  0.00  0.00     0.271 C 
BRANCH  15  16
HETATM   16  C   UNK N   1       0.520  -0.499   1.587  0.00  0.00     0.241 C 
HETATM   17  O   UNK N   1       0.529  -1.343   2.473  0.00  0.00    -0.271 OA
HETATM   18  N   UNK N   1       1.277  -0.717   0.476  0.00  0.00    -0.353 N 
HETATM   19  H   UNK N   1       1.802  -1.549   0.437  0.00  0.00     0.162 HD
BRANCH  18  20
HETATM   20  C   UNK N   1       1.363   0.188  -0.650  0.00  0.00     0.211 C 
BRANCH  20  21
HETATM   21  C   UNK N   1       2.795   0.613  -0.953  0.00  0.00     0.354 C 
HETATM   22  F   UNK N   1       3.563  -0.513  -1.188  0.00  0.00    -0.194 F 
HETATM   23  F   UNK N   1       2.768   1.376  -2.107  0.00  0.00    -0.194 F 
BRANCH  21  24
HETATM   24  C   UNK N   1       3.418   1.446   0.172  0.00  0.00     0.456 C 
HETATM   25  F   UNK N   1       4.693   1.831  -0.199  0.00  0.00    -0.165 F 
HETATM   26  F   UNK N   1       3.502   0.710   1.340  0.00  0.00    -0.165 F 
HETATM   27  F   UNK N   1       2.659   2.581   0.403  0.00  0.00    -0.165 F 
ENDBRANCH  21  24
ENDBRANCH  20  21
ENDBRANCH  18  20
ENDBRANCH  15  16
ENDBRANCH  14  15
ENDBRANCH  12  14
ENDBRANCH   1  12
BRANCH  10  28
HETATM   28  C   UNK N   1      -5.989  -3.310   0.095  0.00  0.00     0.008 C 
HETATM   29  C   UNK N   1      -7.317  -3.474   0.281  0.00  0.00    -0.048 C 
HETATM   30  C   UNK N   1      -7.810  -4.876   0.539  0.00  0.00     0.071 C 
HETATM   31  C   UNK N   1      -8.318  -2.346   0.140  0.00  0.00    -0.033 C 
HETATM   32  C   UNK N   1      -9.334  -4.990   0.650  0.00  0.00     0.125 C 
HETATM   33  C   UNK N   1     -10.027  -4.110  -0.377  0.00  0.00     0.068 C 
HETATM   34  C   UNK N   1      -9.775  -2.641  -0.071  0.00  0.00     0.153 C 
HETATM   35  C   UNK N   1      -7.967  -1.062   0.275  0.00  0.00     0.022 C 
BRANCH  32  36
HETATM   36  O   UNK N   1      -9.710  -6.315   0.436  0.00  0.00    -0.395 OA
HETATM   37  H   UNK N   1     -10.640  -6.549   0.286  0.00  0.00     0.210 HD
ENDBRANCH  32  36
BRANCH  34  38
HETATM   38  O   UNK N   1     -10.518  -2.239   1.041  0.00  0.00    -0.391 OA
HETATM   39  H   UNK N   1     -10.533  -1.652   1.813  0.00  0.00     0.210 HD
ENDBRANCH  34  38
ENDBRANCH  10  28
TORSDOF 10
