REMARK  7 active torsions:
REMARK  status: ('A' for Active; 'I' for Inactive)
REMARK    1  A    between atoms: C_2  and  N_3 
REMARK    2  A    between atoms: N_3  and  C_4 
REMARK    3  A    between atoms: N_3  and  C_6 
REMARK    4  A    between atoms: C_6  and  C_7 
REMARK    5  A    between atoms: C_7  and  N_8 
REMARK    6  A    between atoms: C_14  and  C_16 
REMARK    7  A    between atoms: C_16  and  C_17 
ROOT
HETATM    1  N   UNK N   1      -3.843   1.524  -0.285  0.00  0.00    -0.346 N 
HETATM    2  C   UNK N   1      -3.638   0.082  -0.306  0.00  0.00     0.132 C 
HETATM    3  C   UNK N   1      -2.750  -0.335   0.854  0.00  0.00     0.078 C 
HETATM    4  C   UNK N   1      -1.514   0.477   0.743  0.00  0.00     0.027 A 
HETATM    5  C   UNK N   1      -1.480   1.752   0.233  0.00  0.00     0.062 A 
HETATM    6  C   UNK N   1      -0.151   2.138   0.239  0.00  0.00    -0.018 A 
HETATM    7  C   UNK N   1       0.546   1.030   0.704  0.00  0.00     0.040 A 
HETATM    8  N   UNK N   1      -0.299   0.041   1.041  0.00  0.00    -0.358 N 
HETATM    9  C   UNK N   1       0.433   3.407  -0.286  0.00  0.00     0.052 C 
HETATM   10  C   UNK N   1      -2.755   2.360  -0.169  0.00  0.00     0.256 C 
HETATM   11  O   UNK N   1      -2.863   3.579  -0.285  0.00  0.00    -0.267 OA
HETATM   12  H   UNK N   1      -0.063  -0.832   1.431  0.00  0.00     0.166 HD
ENDROOT
BRANCH   7  13
HETATM   13  C   UNK N   1       1.976   0.779   0.646  0.00  0.00     0.048 C 
BRANCH  13  14
HETATM   14  C   UNK N   1       2.374  -0.361   0.042  0.00  0.00     0.047 A 
HETATM   15  C   UNK N   1       3.724  -0.877  -0.049  0.00  0.00     0.009 A 
HETATM   16  C   UNK N   1       4.925  -0.383   0.441  0.00  0.00     0.057 A 
HETATM   17  C   UNK N   1       3.665  -2.055  -0.769  0.00  0.00     0.046 A 
HETATM   18  C   UNK N   1       6.090  -1.122   0.176  0.00  0.00     0.117 A 
HETATM   19  C   UNK N   1       6.026  -2.325  -0.562  0.00  0.00     0.044 A 
HETATM   20  F   UNK N   1       7.283  -0.672   0.624  0.00  0.00    -0.206 F 
HETATM   21  C   UNK N   1       4.798  -2.803  -1.043  0.00  0.00     0.033 A 
HETATM   22  N   UNK N   1       2.356  -2.351  -1.182  0.00  0.00    -0.322 N 
HETATM   23  C   UNK N   1       1.570  -1.362  -0.727  0.00  0.00     0.257 A 
HETATM   24  H   UNK N   1       2.069  -3.134  -1.706  0.00  0.00     0.169 HD
HETATM   25  O   UNK N   1       0.382  -1.302  -0.998  0.00  0.00    -0.267 OA
ENDBRANCH  13  14
ENDBRANCH   7  13
BRANCH   1  26
HETATM   26  C   UNK N   1      -5.210   1.949  -0.163  0.00  0.00     0.156 C 
BRANCH  26  27
HETATM   27  C   UNK N   1      -5.634   3.119  -1.004  0.00  0.00     0.292 C 
BRANCH  27  28
HETATM   28  N   UNK N   1      -6.232   4.088  -0.093  0.00  0.00     0.089 N 
BRANCH  28  29
HETATM   29  C   UNK N   1      -7.503   3.633   0.493  0.00  0.00     0.268 C 
HETATM   30  C   UNK N   1      -8.574   3.326  -0.548  0.00  0.00     0.037 C 
ENDBRANCH  28  29
BRANCH  28  31
HETATM   31  C   UNK N   1      -6.389   5.359  -0.770  0.00  0.00     0.268 C 
HETATM   32  C   UNK N   1      -5.782   6.443   0.094  0.00  0.00     0.037 C 
ENDBRANCH  28  31
ENDBRANCH  27  28
ENDBRANCH  26  27
ENDBRANCH   1  26
TORSDOF 7
