REMARK  24 active torsions:
REMARK  status: ('A' for Active; 'I' for Inactive)
REMARK    1  A    between atoms: C_3  and  N_39 
REMARK    2  A    between atoms: C_6  and  C_7 
REMARK       I    between atoms: C_7  and  N_9 
REMARK    3  A    between atoms: C_10  and  N_9 
REMARK    4  A    between atoms: C_10  and  C_11 
REMARK    5  A    between atoms: C_10  and  C_36 
REMARK    6  A    between atoms: C_11  and  C_12 
REMARK    7  A    between atoms: C_12  and  C_13 
REMARK       I    between atoms: C_13  and  N_15 
REMARK    8  A    between atoms: N_15  and  C_16 
REMARK    9  A    between atoms: C_16  and  C_17 
REMARK   10  A    between atoms: C_17  and  C_18 
REMARK   11  A    between atoms: C_17  and  N_35 
REMARK       I    between atoms: C_18  and  N_20 
REMARK   12  A    between atoms: C_21  and  N_20 
REMARK   13  A    between atoms: C_21  and  C_22 
REMARK   14  A    between atoms: C_21  and  C_26 
REMARK   15  A    between atoms: C_22  and  C_23 
REMARK   16  A    between atoms: C_23  and  O_25 
REMARK       I    between atoms: C_26  and  N_28 
REMARK   17  A    between atoms: C_29  and  N_28 
REMARK   18  A    between atoms: C_29  and  C_30 
REMARK   19  A    between atoms: C_29  and  C_32 
REMARK   20  A    between atoms: C_30  and  S_31 
REMARK   21  A    between atoms: C_32  and  O_34 
REMARK   22  A    between atoms: C_36  and  O_38 
REMARK   23  A    between atoms: N_39  and  C_40 
REMARK   24  A    between atoms: C_40  and  C_41 
ROOT
HETATM    1  C   UNK N   1       9.384  -4.354   0.592  0.00  0.00     0.183 C 
ENDROOT
BRANCH   1   2
HETATM    2  N   UNK N   1       7.999  -4.015   0.844  0.00  0.00    -0.343 N 
HETATM    3  C   UNK N   1       7.162  -3.919  -0.208  0.00  0.00     0.252 C 
HETATM    4  O   UNK N   1       7.491  -4.368  -1.301  0.00  0.00    -0.268 OA
HETATM    5  H   UNK N   1       7.676  -3.858   1.761  0.00  0.00     0.163 HD
BRANCH   3   6
HETATM    6  C   UNK N   1       6.069  -2.997  -0.181  0.00  0.00     0.032 C 
HETATM    7  C   UNK N   1       6.016  -2.112  -1.257  0.00  0.00     0.019 C 
HETATM    8  C   UNK N   1       4.855  -1.464  -1.567  0.00  0.00     0.030 C 
HETATM    9  C   UNK N   1       3.727  -1.745  -0.830  0.00  0.00     0.028 C 
HETATM   10  C   UNK N   1       3.794  -2.538   0.336  0.00  0.00     0.030 C 
HETATM   11  C   UNK N   1       4.992  -3.152   0.684  0.00  0.00     0.019 C 
BRANCH   9  12
HETATM   12  N   UNK N   1       2.515  -1.578  -1.490  0.00  0.00    -0.384 N 
HETATM   13  H   UNK N   1       2.341  -0.769  -2.025  0.00  0.00     0.160 HD
BRANCH  12  14
HETATM   14  C   UNK N   1       1.522  -2.610  -1.376  0.00  0.00     0.178 C 
BRANCH  14  15
HETATM   15  C   UNK N   1       0.357  -2.038  -0.712  0.00  0.00     0.043 A 
HETATM   16  C   UNK N   1      -0.810  -2.779  -0.548  0.00  0.00     0.116 A 
HETATM   17  N   UNK N   1      -1.907  -2.172  -0.020  0.00  0.00    -0.348 N 
HETATM   18  C   UNK N   1      -1.867  -0.858   0.332  0.00  0.00     0.139 A 
HETATM   19  H   UNK N   1      -2.737  -2.686   0.107  0.00  0.00     0.167 HD
HETATM   20  N   UNK N   1      -2.971  -0.234   0.811  0.00  0.00    -0.337 N 
HETATM   21  C   UNK N   1      -0.679  -0.135   0.185  0.00  0.00     0.146 A 
HETATM   22  C   UNK N   1      -2.930   1.086   1.145  0.00  0.00     0.185 A 
ATOM     23  HN  UNK N   1      -3.840  -0.757   0.922  1.00  0.00     0.168 HD
HETATM   24  N   UNK N   1      -1.776   1.798   1.016  0.00  0.00    -0.318 N 
HETATM   25  C   UNK N   1      -0.638   1.205   0.541  0.00  0.00     0.277 A 
ATOM     26  HN  UNK N   1      -1.760   2.784   1.277  1.00  0.00     0.169 HD
HETATM   27  O   UNK N   1       0.388   1.851   0.424  0.00  0.00    -0.266 OA
HETATM   28  N   UNK N   1       0.402  -0.742  -0.327  0.00  0.00    -0.350 N 
ATOM     29  HN  UNK N   1       1.272  -0.218  -0.429  1.00  0.00     0.166 HD
ENDBRANCH  14  15
ENDBRANCH  12  14
ENDBRANCH   9  12
ENDBRANCH   3   6
ENDBRANCH   1   2
BRANCH   1  30
HETATM   30  C   UNK N   1       9.944  -3.355  -0.456  0.00  0.00     0.045 C 
BRANCH  30  31
HETATM   31  C   UNK N   1       9.401  -1.919  -0.348  0.00  0.00     0.105 C 
BRANCH  31  32
HETATM   32  C   UNK N   1       9.948  -0.961   0.687  0.00  0.00     0.217 C 
HETATM   33  O   UNK N   1       9.506   0.177   0.685  0.00  0.00    -0.274 OA
HETATM   34  N   UNK N   1      10.902  -1.279   1.601  0.00  0.00    -0.359 N 
HETATM   35  H   UNK N   1      11.248  -0.548   2.163  0.00  0.00     0.162 HD
BRANCH  34  36
HETATM   36  C   UNK N   1      11.453  -2.595   1.820  0.00  0.00     0.156 C 
BRANCH  36  37
HETATM   37  C   UNK N   1      12.739  -2.880   1.042  0.00  0.00     0.185 C 
BRANCH  37  38
HETATM   38  C   UNK N   1      13.509  -1.728   0.481  0.00  0.00     0.242 C 
HETATM   39  O   UNK N   1      14.036  -0.941   1.248  0.00  0.00    -0.271 OA
HETATM   40  N   UNK N   1      13.758  -1.681  -0.854  0.00  0.00    -0.345 N 
HETATM   41  H   UNK N   1      13.160  -2.182  -1.454  0.00  0.00     0.163 HD
BRANCH  40  42
HETATM   42  C   UNK N   1      14.847  -0.939  -1.449  0.00  0.00     0.186 C 
BRANCH  42  43
HETATM   43  C   UNK N   1      14.763   0.598  -1.488  0.00  0.00     0.144 C 
BRANCH  43  44
HETATM   44  C   UNK N   1      14.874   1.310  -0.173  0.00  0.00     0.141 C 
HETATM   45  O   UNK N   1      13.943   1.990   0.223  0.00  0.00    -0.650 OA
BRANCH  44  46
HETATM   46  O   UNK N   1      16.005   1.244   0.553  0.00  0.00    -0.776 OA
HETATM   47  H   UNK N   1      16.359   0.539   1.059  0.00  0.00     0.167 HD
ENDBRANCH  44  46
ENDBRANCH  43  44
ENDBRANCH  42  43
BRANCH  42  48
HETATM   48  C   UNK N   1      16.153  -1.635  -1.191  0.00  0.00     0.241 C 
HETATM   49  O   UNK N   1      16.373  -2.687  -1.772  0.00  0.00    -0.271 OA
HETATM   50  N   UNK N   1      17.013  -1.164  -0.249  0.00  0.00    -0.344 N 
HETATM   51  H   UNK N   1      16.783  -0.304   0.173  0.00  0.00     0.163 HD
BRANCH  50  52
HETATM   52  C   UNK N   1      18.242  -1.809   0.198  0.00  0.00     0.191 C 
BRANCH  52  53
HETATM   53  C   UNK N   1      19.462  -1.158  -0.437  0.00  0.00     0.106 C 
BRANCH  53  54
HETATM   54  S   UNK N   1      19.722   0.492   0.276  0.00  0.00    -0.180 SA
HETATM   55  H   UNK N   1      20.890   0.941   0.811  0.00  0.00     0.101 HD
ENDBRANCH  53  54
ENDBRANCH  52  53
BRANCH  52  56
HETATM   56  C   UNK N   1      18.232  -3.316   0.104  0.00  0.00     0.164 C 
HETATM   57  O   UNK N   1      19.091  -3.909  -0.530  0.00  0.00    -0.648 OA
BRANCH  56  58
HETATM   58  O   UNK N   1      17.270  -4.016   0.735  0.00  0.00    -0.775 OA
HETATM   59  H   UNK N   1      16.513  -3.680   1.174  0.00  0.00     0.167 HD
ENDBRANCH  56  58
ENDBRANCH  52  56
ENDBRANCH  50  52
ENDBRANCH  42  48
ENDBRANCH  40  42
ENDBRANCH  37  38
BRANCH  37  60
HETATM   60  N   UNK N   1      12.576  -3.948   0.068  0.00  0.00    -0.417 N 
HETATM   61  H   UNK N   1      11.871  -4.224  -0.615  0.00  0.00     0.150 HD
HETATM   62  H   UNK N   1      13.373  -4.585   0.068  0.00  0.00     0.150 HD
ENDBRANCH  37  60
ENDBRANCH  36  37
ENDBRANCH  34  36
ENDBRANCH  31  32
ENDBRANCH  30  31
ENDBRANCH   1  30
BRANCH   1  63
HETATM   63  C   UNK N   1       9.559  -5.771   0.087  0.00  0.00     0.163 C 
HETATM   64  O   UNK N   1       8.607  -6.533   0.010  0.00  0.00    -0.648 OA
BRANCH  63  65
HETATM   65  O   UNK N   1      10.775  -6.197  -0.302  0.00  0.00    -0.775 OA
HETATM   66  H   UNK N   1      10.942  -7.078  -0.573  0.00  0.00     0.167 HD
ENDBRANCH  63  65
ENDBRANCH   1  63
TORSDOF 24
