REMARK  5 active torsions:
REMARK  status: ('A' for Active; 'I' for Inactive)
REMARK    1  A    between atoms: C_2  and  C_7 
REMARK    2  A    between atoms: C_3  and  C_4 
REMARK    3  A    between atoms: C_4  and  O_6 
REMARK    4  A    between atoms: C_9  and  C_8 
REMARK    5  A    between atoms: C_11  and  C_13 
ROOT
HETATM    1  C   UNK N   1      -0.768   0.494   0.123  0.00  0.00    -0.049 A 
HETATM    2  C   UNK N   1      -0.926  -0.885   0.258  0.00  0.00     0.008 A 
HETATM    3  C   UNK N   1       0.172  -1.733   0.171  0.00  0.00     0.009 A 
HETATM    4  C   UNK N   1       1.463  -1.220  -0.025  0.00  0.00    -0.043 A 
HETATM    5  C   UNK N   1       1.643   0.187  -0.121  0.00  0.00    -0.043 A 
HETATM    6  C   UNK N   1       0.513   1.028  -0.064  0.00  0.00     0.016 A 
HETATM    7  C   UNK N   1       3.031   0.805  -0.225  0.00  0.00    -0.020 C 
HETATM    8  C   UNK N   1       4.137  -0.199   0.104  0.00  0.00     0.015 C 
HETATM    9  C   UNK N   1       3.911  -1.513  -0.610  0.00  0.00     0.015 C 
HETATM   10  C   UNK N   1       2.629  -2.190  -0.127  0.00  0.00    -0.020 C 
HETATM   11  C   UNK N   1       2.862  -2.849   1.224  0.00  0.00     0.020 C 
HETATM   12  C   UNK N   1       2.321  -3.277  -1.144  0.00  0.00     0.020 C 
HETATM   13  C   UNK N   1       3.183   1.928   0.789  0.00  0.00     0.020 C 
HETATM   14  C   UNK N   1       3.240   1.383  -1.615  0.00  0.00     0.020 C 
ENDROOT
BRANCH   1  15
HETATM   15  C   UNK N   1      -1.953   1.394   0.331  0.00  0.00    -0.009 A 
HETATM   16  C   UNK N   1      -2.327   2.265  -0.843  0.00  0.00     0.024 A 
HETATM   17  C   UNK N   1      -3.279   1.161  -0.397  0.00  0.00     0.022 A 
HETATM   18  C   UNK N   1      -1.996   2.222   1.600  0.00  0.00     0.021 C 
BRANCH  17  19
HETATM   19  C   UNK N   1      -3.295   0.209  -1.557  0.00  0.00    -0.020 C 
HETATM   20  C   UNK N   1      -3.851  -1.014  -1.557  0.00  0.00     0.003 C 
BRANCH  20  21
HETATM   21  C   UNK N   1      -4.368  -1.774  -0.394  0.00  0.00    -0.056 C 
HETATM   22  C   UNK N   1      -4.011  -1.385   1.009  0.00  0.00     0.048 C 
HETATM   23  C   UNK N   1      -5.118  -2.860  -0.652  0.00  0.00     0.087 C 
BRANCH  23  24
HETATM   24  C   UNK N   1      -5.641  -3.818   0.348  0.00  0.00     0.165 C 
HETATM   25  O   UNK N   1      -6.499  -4.621   0.011  0.00  0.00    -0.647 OA
BRANCH  24  26
HETATM   26  O   UNK N   1      -5.151  -3.862   1.600  0.00  0.00    -0.773 OA
HETATM   27  H   UNK N   1      -5.008  -4.173   2.472  0.00  0.00     0.167 HD
ENDBRANCH  24  26
ENDBRANCH  23  24
ENDBRANCH  20  21
ENDBRANCH  17  19
ENDBRANCH   1  15
TORSDOF 5
