REMARK  19 active torsions:
REMARK  status: ('A' for Active; 'I' for Inactive)
REMARK    1  A    between atoms: C_21  and  C_8 
REMARK    2  A    between atoms: C_33  and  C_20 
REMARK    3  A    between atoms: O_61  and  C_22 
REMARK    4  A    between atoms: C_23  and  O_60 
REMARK    5  A    between atoms: C_26  and  C_25 
REMARK    6  A    between atoms: C_27  and  C_34 
REMARK    7  A    between atoms: O_59  and  C_28 
REMARK    8  A    between atoms: O_60  and  C_29 
REMARK    9  A    between atoms: C_35  and  C_32 
REMARK   10  A    between atoms: C_39  and  C_32 
REMARK   11  A    between atoms: C_32  and  N_46 
REMARK   12  A    between atoms: O_53  and  C_33 
REMARK   13  A    between atoms: C_34  and  O_54 
REMARK       I    between atoms: N_52  and  C_35 
REMARK   14  A    between atoms: C_40  and  C_36 
REMARK   15  A    between atoms: O_57  and  C_36 
REMARK   16  A    between atoms: N_48  and  C_37 
REMARK   17  A    between atoms: C_38  and  O_58 
REMARK   18  A    between atoms: O_61  and  C_38 
REMARK   19  A    between atoms: C_40  and  N_50 
ROOT
HETATM    1  C   UNK N   1       2.586  -2.280  -0.011  0.00  0.00     0.068 C 
HETATM    2  C   UNK N   1       3.330  -1.217   2.074  0.00  0.00     0.159 C 
HETATM    3  C   UNK N   1       2.112  -1.795   1.357  0.00  0.00     0.149 C 
HETATM    4  C   UNK N   1       4.077  -2.014  -0.084  0.00  0.00     0.164 C 
HETATM    5  C   UNK N   1       5.570  -0.572   1.302  0.00  0.00     0.244 C 
HETATM    6  N   UNK N   1       4.377  -1.218   1.088  0.00  0.00    -0.336 N 
HETATM    7  O   UNK N   1       5.765  -0.037   2.391  0.00  0.00    -0.271 OA
ENDROOT
BRANCH   3   8
HETATM    8  O   UNK N   1       1.072  -0.881   1.205  0.00  0.00    -0.343 OA
BRANCH   8   9
HETATM    9  C   UNK N   1       1.157   0.410   0.763  0.00  0.00     0.084 A 
HETATM   10  C   UNK N   1       2.338   1.145   0.881  0.00  0.00     0.069 A 
HETATM   11  C   UNK N   1       2.404   2.470   0.449  0.00  0.00     0.062 A 
HETATM   12  N   UNK N   1       1.306   3.054  -0.102  0.00  0.00    -0.352 N 
HETATM   13  C   UNK N   1       0.121   2.385  -0.217  0.00  0.00     0.066 A 
ATOM     14  HN  UNK N   1       1.368   4.015  -0.437  1.00  0.00     0.166 HD
HETATM   15  C   UNK N   1       0.030   1.040   0.217  0.00  0.00     0.026 A 
HETATM   16  C   UNK N   1      -1.014   3.038  -0.738  0.00  0.00     0.071 A 
HETATM   17  C   UNK N   1      -1.176   0.352   0.097  0.00  0.00     0.019 A 
HETATM   18  C   UNK N   1      -2.298   0.993  -0.415  0.00  0.00     0.039 A 
HETATM   19  C   UNK N   1      -2.252   2.332  -0.815  0.00  0.00     0.087 A 
HETATM   20 Br   UNK N   1      -0.802   4.866  -1.323  0.00  0.00    -0.046 Br
BRANCH  11  21
HETATM   21  C   UNK N   1       3.650   3.234   0.636  0.00  0.00     0.067 A 
HETATM   22  C   UNK N   1       4.707   2.741   1.428  0.00  0.00     0.085 A 
HETATM   23  S   UNK N   1       5.878   3.899   1.349  0.00  0.00    -0.063 SA
HETATM   24  C   UNK N   1       5.095   4.958   0.351  0.00  0.00     0.150 A 
HETATM   25  N   UNK N   1       3.865   4.470   0.054  0.00  0.00    -0.334 N 
ATOM     26  HN  UNK N   1       3.182   4.955  -0.528  1.00  0.00     0.168 HD
BRANCH  24  27
HETATM   27  N   UNK N   1       5.603   6.182  -0.175  0.00  0.00    -0.321 N 
HETATM   28  C   UNK N   1       6.855   6.515  -0.184  0.00  0.00     0.120 C 
ATOM     29  HN  UNK N   1       4.934   6.841  -0.573  1.00  0.00     0.169 HD
BRANCH  28  30
HETATM   30  C   UNK N   1       7.266   7.842  -0.753  0.00  0.00     0.052 C 
HETATM   31  C   UNK N   1       8.778   7.974  -0.856  0.00  0.00     0.018 C 
HETATM   32  C   UNK N   1       6.736   8.961   0.122  0.00  0.00     0.018 C 
ENDBRANCH  28  30
BRANCH  28  33
HETATM   33  O   UNK N   1       7.801   5.674   0.281  0.00  0.00    -0.349 OA
HETATM   34  H   UNK N   1       7.624   4.813   0.604  0.00  0.00     0.219 HD
ENDBRANCH  28  33
ENDBRANCH  24  27
ENDBRANCH  11  21
BRANCH  19  35
HETATM   35  O   UNK N   1      -3.420   2.878  -1.240  0.00  0.00    -0.355 OA
HETATM   36  C   UNK N   1      -3.730   4.216  -1.221  0.00  0.00     0.210 C 
ENDBRANCH  19  35
ENDBRANCH   8   9
ENDBRANCH   3   8
BRANCH   4  37
HETATM   37  C   UNK N   1       4.842  -3.304   0.056  0.00  0.00     0.136 C 
HETATM   38  N   UNK N   1       5.681  -3.667  -0.863  0.00  0.00    -0.353 N 
ATOM     39  HN  UNK N   1       5.667  -3.116  -1.721  1.00  0.00     0.162 HD
BRANCH  38  40
HETATM   40  C   UNK N   1       6.647  -4.771  -0.825  0.00  0.00     0.125 A 
HETATM   41  C   UNK N   1       6.845  -5.420   0.533  0.00  0.00     0.054 A 
HETATM   42  C   UNK N   1       6.221  -6.228  -0.592  0.00  0.00     0.049 A 
BRANCH  42  43
HETATM   43  C   UNK N   1       4.827  -6.540  -0.164  0.00  0.00    -0.029 C 
HETATM   44  C   UNK N   1       4.063  -7.337  -0.902  0.00  0.00     0.007 C 
ENDBRANCH  42  43
BRANCH  40  45
HETATM   45  C   UNK N   1       7.948  -4.502  -1.534  0.00  0.00     0.170 C 
HETATM   46  O   UNK N   1       9.019  -4.771  -1.009  0.00  0.00    -0.648 OA
BRANCH  45  47
HETATM   47  O   UNK N   1       7.932  -3.932  -2.753  0.00  0.00    -0.774 OA
HETATM   48  H   UNK N   1       8.270  -3.723  -3.601  0.00  0.00     0.167 HD
ENDBRANCH  45  47
ENDBRANCH  40  45
ENDBRANCH  38  40
BRANCH  37  49
HETATM   49  O   UNK N   1       4.685  -4.020   1.190  0.00  0.00    -0.348 OA
HETATM   50  H   UNK N   1       4.200  -4.174   1.977  0.00  0.00     0.219 HD
ENDBRANCH  37  49
ENDBRANCH   4  37
BRANCH   5  51
HETATM   51  C   UNK N   1       6.644  -0.420   0.223  0.00  0.00     0.185 C 
BRANCH  51  52
HETATM   52  C   UNK N   1       8.016  -1.060   0.617  0.00  0.00    -0.022 C 
HETATM   53  C   UNK N   1       8.993  -1.014  -0.550  0.00  0.00     0.017 C 
HETATM   54  C   UNK N   1       7.870  -2.506   1.018  0.00  0.00     0.017 C 
HETATM   55  C   UNK N   1       8.665  -0.332   1.784  0.00  0.00     0.017 C 
ENDBRANCH  51  52
BRANCH  51  56
HETATM   56  N   UNK N   1       6.859   1.002   0.038  0.00  0.00    -0.337 N 
HETATM   57  C   UNK N   1       7.313   1.557  -1.029  0.00  0.00     0.259 C 
ATOM     58  HN  UNK N   1       6.632   1.614   0.822  1.00  0.00     0.164 HD
BRANCH  57  59
HETATM   59  O   UNK N   1       7.515   0.843  -2.158  0.00  0.00    -0.327 OA
HETATM   60  H   UNK N   1       7.156   0.474  -2.940  0.00  0.00     0.221 HD
ENDBRANCH  57  59
BRANCH  57  61
HETATM   61  O   UNK N   1       7.748   2.825  -0.951  0.00  0.00    -0.311 OA
BRANCH  61  62
HETATM   62  C   UNK N   1       9.096   3.053  -1.082  0.00  0.00     0.132 C 
HETATM   63  C   UNK N   1       9.700   3.382   0.267  0.00  0.00     0.032 C 
HETATM   64  C   UNK N   1      10.862   4.311  -0.024  0.00  0.00     0.002 C 
HETATM   65  C   UNK N   1      10.766   4.676  -1.498  0.00  0.00     0.002 C 
HETATM   66  C   UNK N   1       9.386   4.244  -1.949  0.00  0.00     0.032 C 
ENDBRANCH  61  62
ENDBRANCH  57  61
ENDBRANCH  51  56
ENDBRANCH   5  51
TORSDOF 19
