REMARK  17 active torsions:
REMARK  status: ('A' for Active; 'I' for Inactive)
REMARK    1  A    between atoms: C_2  and  C_3 
REMARK    2  A    between atoms: C_3  and  C_4 
REMARK    3  A    between atoms: C_3  and  N_52 
REMARK       I    between atoms: C_4  and  N_6 
REMARK    4  A    between atoms: C_8  and  O_51 
REMARK    5  A    between atoms: C_10  and  C_11 
REMARK    6  A    between atoms: C_11  and  C_12 
REMARK    7  A    between atoms: C_20  and  C_21 
REMARK    8  A    between atoms: C_22  and  C_31 
REMARK    9  A    between atoms: C_32  and  C_31 
REMARK   10  A    between atoms: C_34  and  O_49 
REMARK       I    between atoms: N_36  and  C_37 
REMARK   11  A    between atoms: C_37  and  C_39 
REMARK   12  A    between atoms: C_39  and  C_40 
REMARK   13  A    between atoms: C_39  and  N_42 
REMARK       I    between atoms: N_42  and  C_43 
REMARK   14  A    between atoms: C_43  and  C_45 
REMARK   15  A    between atoms: C_45  and  N_47 
REMARK       I    between atoms: N_52  and  C_53 
REMARK   16  A    between atoms: C_53  and  C_55 
REMARK   17  A    between atoms: C_55  and  N_57 
ROOT
HETATM    1  C   UNK N   1      -1.214  -1.363  -0.596  0.00  0.00    -0.015 A 
HETATM    2  C   UNK N   1      -2.381  -0.697  -0.272  0.00  0.00    -0.001 A 
HETATM    3  C   UNK N   1      -3.701  -0.877  -0.685  0.00  0.00     0.017 A 
HETATM    4  C   UNK N   1      -4.699  -0.097  -0.081  0.00  0.00     0.043 A 
HETATM    5  C   UNK N   1      -4.360   0.844   0.913  0.00  0.00     0.118 A 
HETATM    6  C   UNK N   1      -3.016   1.038   1.276  0.00  0.00     0.072 A 
HETATM    7  C   UNK N   1      -2.054   0.253   0.651  0.00  0.00     0.046 A 
HETATM    8  N   UNK N   1      -0.734   0.270   0.887  0.00  0.00    -0.353 N 
HETATM    9  C   UNK N   1      -0.202  -0.722   0.133  0.00  0.00     0.067 A 
HETATM   10  F   UNK N   1      -5.332   1.565   1.520  0.00  0.00    -0.206 F 
HETATM   11  H   UNK N   1      -0.249   0.880   1.489  0.00  0.00     0.166 HD
ENDROOT
BRANCH   9  12
HETATM   12  C   UNK N   1       1.235  -1.052   0.236  0.00  0.00     0.067 A 
HETATM   13  C   UNK N   1       2.225  -0.151   0.625  0.00  0.00    -0.015 A 
HETATM   14  C   UNK N   1       3.376  -0.874   0.736  0.00  0.00    -0.001 A 
HETATM   15  C   UNK N   1       4.657  -0.482   1.117  0.00  0.00     0.017 A 
HETATM   16  C   UNK N   1       3.071  -2.166   0.410  0.00  0.00     0.046 A 
HETATM   17  C   UNK N   1       5.649  -1.472   1.187  0.00  0.00     0.043 A 
HETATM   18  C   UNK N   1       5.339  -2.813   0.874  0.00  0.00     0.118 A 
HETATM   19  C   UNK N   1       4.034  -3.169   0.471  0.00  0.00     0.072 A 
HETATM   20  F   UNK N   1       6.302  -3.760   0.977  0.00  0.00    -0.206 F 
HETATM   21  N   UNK N   1       1.763  -2.295   0.083  0.00  0.00    -0.353 N 
HETATM   22  H   UNK N   1       1.296  -3.113  -0.204  0.00  0.00     0.166 HD
BRANCH  13  23
HETATM   23  C   UNK N   1       2.098   1.320   0.859  0.00  0.00     0.067 C 
BRANCH  23  24
HETATM   24  C   UNK N   1       2.260   2.063  -0.472  0.00  0.00     0.094 C 
HETATM   25  C   UNK N   1       3.678   1.933  -1.019  0.00  0.00     0.059 C 
HETATM   26  C   UNK N   1       4.381   3.204  -0.569  0.00  0.00     0.138 C 
HETATM   27  C   UNK N   1       3.287   4.252  -0.491  0.00  0.00     0.158 C 
HETATM   28  N   UNK N   1       2.088   3.479  -0.294  0.00  0.00    -0.343 N 
HETATM   29  C   UNK N   1       0.887   4.067  -0.021  0.00  0.00     0.243 C 
HETATM   30  O   UNK N   1       0.803   5.280   0.068  0.00  0.00    -0.271 OA
BRANCH  26  31
HETATM   31  O   UNK N   1       5.363   3.578  -1.485  0.00  0.00    -0.394 OA
HETATM   32  H   UNK N   1       5.930   3.116  -2.122  0.00  0.00     0.210 HD
ENDBRANCH  26  31
BRANCH  29  33
HETATM   33  C   UNK N   1      -0.352   3.230   0.168  0.00  0.00     0.176 C 
BRANCH  33  34
HETATM   34  C   UNK N   1      -1.192   3.037  -1.085  0.00  0.00     0.030 C 
HETATM   35  C   UNK N   1      -0.505   2.100  -2.060  0.00  0.00     0.007 C 
ENDBRANCH  33  34
BRANCH  33  36
HETATM   36  N   UNK N   1      -1.047   3.579   1.400  0.00  0.00    -0.346 N 
HETATM   37  C   UNK N   1      -2.214   4.267   1.591  0.00  0.00     0.240 C 
HETATM   38  O   UNK N   1      -2.566   4.491   2.737  0.00  0.00    -0.271 OA
HETATM   39  H   UNK N   1      -0.608   3.270   2.225  0.00  0.00     0.163 HD
BRANCH  37  40
HETATM   40  C   UNK N   1      -3.093   4.800   0.486  0.00  0.00     0.165 C 
HETATM   41  C   UNK N   1      -3.869   3.722  -0.256  0.00  0.00     0.042 C 
BRANCH  40  42
HETATM   42  N   UNK N   1      -2.367   5.678  -0.420  0.00  0.00    -0.414 N 
HETATM   43  C   UNK N   1      -3.333   6.587  -1.016  0.00  0.00     0.140 C 
HETATM   44  H   UNK N   1      -1.364   5.659  -0.604  0.00  0.00     0.153 HD
ENDBRANCH  40  42
ENDBRANCH  37  40
ENDBRANCH  33  36
ENDBRANCH  29  33
ENDBRANCH  23  24
ENDBRANCH  13  23
ENDBRANCH   9  12
BRANCH   1  45
HETATM   45  C   UNK N   1      -1.083  -2.552  -1.512  0.00  0.00     0.067 C 
BRANCH  45  46
HETATM   46  C   UNK N   1      -1.780  -3.827  -0.985  0.00  0.00     0.094 C 
HETATM   47  C   UNK N   1      -3.300  -3.716  -0.934  0.00  0.00     0.059 C 
HETATM   48  C   UNK N   1      -3.680  -3.692   0.562  0.00  0.00     0.138 C 
HETATM   49  C   UNK N   1      -2.363  -3.514   1.310  0.00  0.00     0.158 C 
HETATM   50  N   UNK N   1      -1.424  -4.065   0.382  0.00  0.00    -0.343 N 
HETATM   51  C   UNK N   1      -0.598  -5.079   0.743  0.00  0.00     0.243 C 
HETATM   52  O   UNK N   1      -0.437  -5.346   1.925  0.00  0.00    -0.271 OA
BRANCH  48  53
HETATM   53  O   UNK N   1      -4.232  -4.928   0.901  0.00  0.00    -0.394 OA
HETATM   54  H   UNK N   1      -5.168  -5.025   1.137  0.00  0.00     0.210 HD
ENDBRANCH  48  53
BRANCH  51  55
HETATM   55  C   UNK N   1      -0.029  -5.979  -0.328  0.00  0.00     0.176 C 
BRANCH  55  56
HETATM   56  C   UNK N   1      -0.745  -7.326  -0.346  0.00  0.00     0.030 C 
HETATM   57  C   UNK N   1      -2.192  -7.165  -0.779  0.00  0.00     0.007 C 
ENDBRANCH  55  56
BRANCH  55  58
HETATM   58  N   UNK N   1       1.406  -6.177  -0.316  0.00  0.00    -0.346 N 
HETATM   59  C   UNK N   1       2.091  -6.810   0.673  0.00  0.00     0.240 C 
HETATM   60  O   UNK N   1       1.548  -7.102   1.727  0.00  0.00    -0.271 OA
HETATM   61  H   UNK N   1       1.923  -5.828  -1.078  0.00  0.00     0.163 HD
BRANCH  59  62
HETATM   62  C   UNK N   1       3.487  -7.279   0.420  0.00  0.00     0.165 C 
HETATM   63  C   UNK N   1       4.414  -6.133   0.080  0.00  0.00     0.042 C 
BRANCH  62  64
HETATM   64  N   UNK N   1       3.468  -8.229  -0.681  0.00  0.00    -0.414 N 
HETATM   65  C   UNK N   1       4.382  -9.304  -0.343  0.00  0.00     0.140 C 
HETATM   66  H   UNK N   1       2.914  -8.153  -1.534  0.00  0.00     0.153 HD
ENDBRANCH  62  64
ENDBRANCH  59  62
ENDBRANCH  55  58
ENDBRANCH  51  55
ENDBRANCH  45  46
ENDBRANCH   1  45
TORSDOF 17
