REMARK  8 active torsions:
REMARK  status: ('A' for Active; 'I' for Inactive)
REMARK    1  A    between atoms: C_3  and  N_8 
REMARK       I    between atoms: N_8  and  C_9 
REMARK       I    between atoms: C_9  and  N_11 
REMARK    2  A    between atoms: N_11  and  C_12 
REMARK    3  A    between atoms: C_15  and  C_18 
REMARK    4  A    between atoms: C_23  and  N_37 
REMARK    5  A    between atoms: C_27  and  C_28 
REMARK    6  A    between atoms: N_32  and  C_34 
REMARK    7  A    between atoms: C_34  and  C_35 
REMARK    8  A    between atoms: C_35  and  O_36 
ROOT
HETATM    1  C   UNK N   1       0.110  -0.104  -0.249  0.00  0.00    -0.004 A 
HETATM    2  C   UNK N   1      -0.877  -1.112  -0.232  0.00  0.00     0.063 A 
HETATM    3  S   UNK N   1      -0.075  -2.542  -0.027  0.00  0.00    -0.099 SA
HETATM    4  C   UNK N   1       1.481  -1.987   0.100  0.00  0.00     0.032 A 
HETATM    5  C   UNK N   1       1.462  -0.602  -0.040  0.00  0.00     0.037 A 
HETATM    6  C   UNK N   1       2.713   0.085   0.092  0.00  0.00     0.111 A 
HETATM    7  N   UNK N   1       3.838  -0.629   0.353  0.00  0.00    -0.351 N 
ATOM      8  HN  UNK N   1       4.720  -0.128   0.460  1.00  0.00     0.166 HD
HETATM    9  C   UNK N   1       3.839  -1.977   0.478  0.00  0.00     0.103 A 
HETATM   10  C   UNK N   1       2.658  -2.701   0.341  0.00  0.00     0.010 A 
ENDROOT
BRANCH   1  11
HETATM   11  C   UNK N   1      -0.285   1.307  -0.293  0.00  0.00    -0.024 A 
HETATM   12  C   UNK N   1       0.577   2.297  -0.767  0.00  0.00     0.014 A 
HETATM   13  C   UNK N   1       0.378   3.636  -0.459  0.00  0.00     0.030 A 
HETATM   14  C   UNK N   1      -0.714   3.981   0.317  0.00  0.00     0.036 A 
HETATM   15  C   UNK N   1      -1.663   3.008   0.679  0.00  0.00     0.030 A 
HETATM   16  C   UNK N   1      -1.447   1.675   0.382  0.00  0.00     0.014 A 
BRANCH  14  17
HETATM   17  N   UNK N   1      -0.943   5.311   0.718  0.00  0.00    -0.309 N 
HETATM   18  C   UNK N   1      -2.100   5.842   0.305  0.00  0.00     0.325 C 
HETATM   19  N   UNK N   1      -2.936   6.376   1.222  0.00  0.00    -0.309 N 
HETATM   20  O   UNK N   1      -2.533   5.529  -0.799  0.00  0.00    -0.247 OA
HETATM   21  H   UNK N   1      -2.609   6.877   2.004  0.00  0.00     0.170 HD
HETATM   22  H   UNK N   1      -0.297   5.816   1.264  0.00  0.00     0.170 HD
BRANCH  19  23
HETATM   23  C   UNK N   1      -4.310   6.166   0.982  0.00  0.00     0.039 A 
HETATM   24  C   UNK N   1      -5.078   7.161   0.384  0.00  0.00     0.030 A 
HETATM   25  C   UNK N   1      -6.337   6.841  -0.135  0.00  0.00     0.005 A 
HETATM   26  C   UNK N   1      -6.807   5.522  -0.090  0.00  0.00     0.042 A 
HETATM   27  C   UNK N   1      -6.031   4.522   0.497  0.00  0.00     0.118 A 
HETATM   28  C   UNK N   1      -4.783   4.842   1.017  0.00  0.00     0.071 A 
HETATM   29  F   UNK N   1      -6.462   3.236   0.517  0.00  0.00    -0.206 F 
ENDBRANCH  19  23
ENDBRANCH  14  17
ENDBRANCH   1  11
BRANCH   6  30
HETATM   30  N   UNK N   1       2.853   1.476  -0.002  0.00  0.00    -0.385 N 
HETATM   31  H   UNK N   1       3.749   1.879  -0.068  0.00  0.00     0.157 HD
HETATM   32  H   UNK N   1       2.055   2.051  -0.002  0.00  0.00     0.157 HD
ENDBRANCH   6  30
BRANCH  10  33
HETATM   33  C   UNK N   1       2.711  -4.162   0.376  0.00  0.00     0.011 A 
HETATM   34  C   UNK N   1       3.817  -4.942   0.664  0.00  0.00     0.121 A 
HETATM   35  N   UNK N   1       3.490  -6.223   0.412  0.00  0.00    -0.309 N 
HETATM   36  N   UNK N   1       2.242  -6.254  -0.025  0.00  0.00    -0.301 N 
ATOM     37  HN  UNK N   1       4.100  -7.032   0.537  1.00  0.00     0.186 HD
HETATM   38  C   UNK N   1       1.731  -5.018  -0.061  0.00  0.00     0.124 A 
BRANCH  36  39
HETATM   39  C   UNK N   1       1.574  -7.450  -0.505  0.00  0.00     0.174 C 
BRANCH  39  40
HETATM   40  C   UNK N   1       0.281  -7.683   0.250  0.00  0.00     0.185 C 
BRANCH  40  41
HETATM   41  O   UNK N   1       0.566  -7.986   1.579  0.00  0.00    -0.399 OA
HETATM   42  H   UNK N   1       0.482  -8.264   2.505  0.00  0.00     0.209 HD
ENDBRANCH  40  41
ENDBRANCH  39  40
ENDBRANCH  36  39
ENDBRANCH  10  33
TORSDOF 8
