REMARK  18 active torsions:
REMARK  status: ('A' for Active; 'I' for Inactive)
REMARK    1  A    between atoms: C_2  and  C_3 
REMARK    2  A    between atoms: C_3  and  C_4 
REMARK    3  A    between atoms: C_4  and  C_5 
REMARK    4  A    between atoms: C_5  and  C_6 
REMARK    5  A    between atoms: C_5  and  N_73 
REMARK       I    between atoms: C_6  and  N_8 
REMARK    6  A    between atoms: C_9  and  N_8 
REMARK    7  A    between atoms: C_18  and  C_70 
REMARK    8  A    between atoms: C_22  and  C_60 
REMARK    9  A    between atoms: C_26  and  C_52 
REMARK   10  A    between atoms: C_30  and  C_45 
REMARK   11  A    between atoms: C_34  and  C_38 
REMARK   12  A    between atoms: C_38  and  C_39 
REMARK   13  A    between atoms: C_45  and  C_46 
REMARK   14  A    between atoms: C_52  and  C_53 
REMARK   15  A    between atoms: C_53  and  C_54 
REMARK   16  A    between atoms: C_54  and  N_55 
REMARK       I    between atoms: N_55  and  C_56 
REMARK       I    between atoms: C_56  and  N_59 
REMARK   17  A    between atoms: C_60  and  C_61 
REMARK   18  A    between atoms: C_70  and  O_72 
REMARK       I    between atoms: N_73  and  C_74 
ROOT
HETATM    1  C   UNK N   1      -1.489  -4.235   0.440  0.00  0.00     0.185 C 
HETATM    2  C   UNK N   1      -0.265  -4.545   1.296  0.00  0.00     0.137 C 
HETATM    3  C   UNK N   1       0.783  -5.323   0.547  0.00  0.00     0.220 C 
HETATM    4  O   UNK N   1       1.934  -4.921   0.570  0.00  0.00    -0.274 OA
HETATM    5  N   UNK N   1       0.492  -6.459  -0.141  0.00  0.00    -0.361 N 
HETATM    6  C   UNK N   1      -0.839  -7.025  -0.269  0.00  0.00     0.122 C 
HETATM    7  C   UNK N   1      -1.438  -7.427   1.082  0.00  0.00     0.020 C 
HETATM    8  C   UNK N   1      -0.423  -8.151   1.963  0.00  0.00     0.004 C 
HETATM    9  C   UNK N   1      -0.265  -9.632   1.635  0.00  0.00     0.036 C 
HETATM   10  C   UNK N   1      -0.061  -9.879   0.143  0.00  0.00     0.182 C 
HETATM   11  N   UNK N   1      -1.255 -10.469  -0.432  0.00  0.00    -0.345 N 
HETATM   12  C   UNK N   1      -1.751 -11.684  -0.086  0.00  0.00     0.241 C 
HETATM   13  O   UNK N   1      -1.132 -12.426   0.663  0.00  0.00    -0.271 OA
HETATM   14  C   UNK N   1      -3.140 -12.044  -0.496  0.00  0.00     0.181 C 
HETATM   15  N   UNK N   1      -3.926 -12.097   0.720  0.00  0.00    -0.346 N 
HETATM   16  C   UNK N   1      -4.983 -11.278   0.957  0.00  0.00     0.241 C 
HETATM   17  O   UNK N   1      -5.482 -11.265   2.070  0.00  0.00    -0.271 OA
HETATM   18  C   UNK N   1      -5.604 -10.415  -0.121  0.00  0.00     0.176 C 
HETATM   19  N   UNK N   1      -4.600  -9.803  -0.962  0.00  0.00    -0.346 N 
HETATM   20  C   UNK N   1      -4.580  -8.491  -1.296  0.00  0.00     0.241 C 
HETATM   21  O   UNK N   1      -3.684  -8.073  -2.011  0.00  0.00    -0.271 OA
HETATM   22  C   UNK N   1      -5.649  -7.541  -0.854  0.00  0.00     0.180 C 
HETATM   23  N   UNK N   1      -5.614  -7.331   0.575  0.00  0.00    -0.346 N 
HETATM   24  C   UNK N   1      -5.054  -6.227   1.142  0.00  0.00     0.241 C 
HETATM   25  O   UNK N   1      -5.170  -6.067   2.348  0.00  0.00    -0.271 OA
HETATM   26  C   UNK N   1      -4.243  -5.221   0.331  0.00  0.00     0.182 C 
HETATM   27  N   UNK N   1      -3.869  -4.074   1.136  0.00  0.00    -0.346 N 
HETATM   28  C   UNK N   1      -2.609  -3.585   1.198  0.00  0.00     0.241 C 
HETATM   29  O   UNK N   1      -2.380  -2.618   1.907  0.00  0.00    -0.271 OA
HETATM   30  H   UNK N   1       1.234  -6.931  -0.583  0.00  0.00     0.162 HD
HETATM   31  H   UNK N   1      -1.738  -9.954  -1.118  0.00  0.00     0.163 HD
HETATM   32  H   UNK N   1      -3.682 -12.759   1.407  0.00  0.00     0.163 HD
HETATM   33  H   UNK N   1      -3.883 -10.378  -1.315  0.00  0.00     0.163 HD
HETATM   34  H   UNK N   1      -6.011  -8.013   1.162  0.00  0.00     0.163 HD
HETATM   35  H   UNK N   1      -4.569  -3.627   1.665  0.00  0.00     0.163 HD
ENDROOT
BRANCH   1  36
HETATM   36  N   UNK N   1      -1.185  -3.683  -0.868  0.00  0.00    -0.346 N 
HETATM   37  C   UNK N   1      -0.811  -2.412  -1.160  0.00  0.00     0.241 C 
HETATM   38  O   UNK N   1      -0.504  -2.141  -2.311  0.00  0.00    -0.271 OA
HETATM   39  H   UNK N   1      -1.259  -4.302  -1.631  0.00  0.00     0.163 HD
BRANCH  37  40
HETATM   40  C   UNK N   1      -0.787  -1.322  -0.124  0.00  0.00     0.176 C 
BRANCH  40  41
HETATM   41  C   UNK N   1      -1.716  -0.185  -0.568  0.00  0.00     0.035 C 
BRANCH  41  42
HETATM   42  C   UNK N   1      -3.175  -0.617  -0.625  0.00  0.00     0.002 C 
BRANCH  42  43
HETATM   43  C   UNK N   1      -3.887  -0.304   0.679  0.00  0.00    -0.004 C 
HETATM   44  C   UNK N   1      -4.198   1.177   0.765  0.00  0.00     0.005 C 
ENDBRANCH  42  43
ENDBRANCH  41  42
ENDBRANCH  40  41
BRANCH  40  45
HETATM   45  N   UNK N   1       0.566  -0.825   0.012  0.00  0.00    -0.348 N 
HETATM   46  C   UNK N   1       0.935   0.112   0.922  0.00  0.00     0.214 C 
HETATM   47  O   UNK N   1       2.095   0.486   0.958  0.00  0.00    -0.274 OA
HETATM   48  C   UNK N   1      -0.049   0.700   1.884  0.00  0.00     0.117 C 
HETATM   49  H   UNK N   1       1.257  -1.188  -0.589  0.00  0.00     0.163 HD
ENDBRANCH  40  45
ENDBRANCH  37  40
ENDBRANCH   1  36
BRANCH  26  50
HETATM   50  C   UNK N   1      -4.901  -4.761  -0.975  0.00  0.00     0.093 C 
BRANCH  50  51
HETATM   51  C   UNK N   1      -5.858  -3.630  -0.829  0.00  0.00     0.028 A 
HETATM   52  C   UNK N   1      -6.990  -3.603  -0.054  0.00  0.00     0.114 A 
HETATM   53  N   UNK N   1      -7.563  -2.395  -0.216  0.00  0.00    -0.360 N 
HETATM   54  C   UNK N   1      -6.774  -1.722  -1.081  0.00  0.00     0.180 A 
ATOM     55  HN  UNK N   1      -8.418  -2.057   0.226  1.00  0.00     0.166 HD
HETATM   56  N   UNK N   1      -5.720  -2.463  -1.473  0.00  0.00    -0.354 N 
HETATM   57  H   UNK N   1      -5.004  -2.203  -2.097  0.00  0.00     0.166 HD
ENDBRANCH  50  51
ENDBRANCH  26  50
BRANCH  22  58
HETATM   58  C   UNK N   1      -7.018  -8.001  -1.382  0.00  0.00     0.073 C 
BRANCH  58  59
HETATM   59  C   UNK N   1      -8.212  -7.652  -0.550  0.00  0.00    -0.056 A 
HETATM   60  C   UNK N   1      -8.416  -8.272   0.691  0.00  0.00     0.007 A 
HETATM   61  C   UNK N   1      -9.564  -7.989   1.436  0.00  0.00     0.001 A 
HETATM   62  C   UNK N   1     -10.516  -7.094   0.939  0.00  0.00     0.000 A 
HETATM   63  C   UNK N   1     -10.319  -6.484  -0.304  0.00  0.00     0.001 A 
HETATM   64  C   UNK N   1      -9.171  -6.767  -1.050  0.00  0.00     0.007 A 
ENDBRANCH  58  59
ENDBRANCH  22  58
BRANCH  10  65
HETATM   65  C   UNK N   1       1.214 -10.607  -0.152  0.00  0.00     0.163 C 
HETATM   66  O   UNK N   1       2.068 -10.063  -0.832  0.00  0.00    -0.648 OA
BRANCH  65  67
HETATM   67  O   UNK N   1       1.454 -11.826   0.367  0.00  0.00    -0.775 OA
HETATM   68  H   UNK N   1       0.803 -12.395   0.729  0.00  0.00     0.167 HD
ENDBRANCH  65  67
ENDBRANCH  10  65
BRANCH  18  69
HETATM   69  C   UNK N   1      -6.576 -11.229  -0.965  0.00  0.00     0.036 C 
BRANCH  69  70
HETATM   70  C   UNK N   1      -7.727 -11.705  -0.093  0.00  0.00     0.023 C 
BRANCH  70  71
HETATM   71  C   UNK N   1      -8.885 -12.193  -0.933  0.00  0.00     0.138 C 
BRANCH  71  72
HETATM   72  N   UNK N   1     -10.013 -11.320  -0.725  0.00  0.00    -0.227 N 
HETATM   73  C   UNK N   1     -11.177 -11.751  -0.037  0.00  0.00     0.665 C 
HETATM   74  N   UNK N   1     -11.248 -12.935   0.453  0.00  0.00    -0.235 N 
HETATM   75  N   UNK N   1     -12.249 -10.852   0.151  0.00  0.00    -0.235 N 
HETATM   76  H   UNK N   1     -12.061 -13.342   0.829  0.00  0.00     0.174 HD
ATOM     77  HN  UNK N   1     -10.396 -13.496   0.453  1.00  0.00     0.174 HD
HETATM   78  H   UNK N   1     -12.079  -9.891   0.282  0.00  0.00     0.174 HD
HETATM   79  H   UNK N   1     -13.174 -11.189   0.151  0.00  0.00     0.174 HD
HETATM   80  H   UNK N   1      -9.974 -10.399  -1.069  0.00  0.00     0.177 HD
ENDBRANCH  71  72
ENDBRANCH  70  71
ENDBRANCH  69  70
ENDBRANCH  18  69
BRANCH  14  81
HETATM   81  C   UNK N   1      -3.162 -13.325  -1.332  0.00  0.00     0.075 C 
BRANCH  81  82
HETATM   82  C   UNK N   1      -4.313 -14.227  -1.039  0.00  0.00    -0.028 A 
HETATM   83  C   UNK N   1      -5.574 -14.241  -1.629  0.00  0.00     0.096 A 
HETATM   84  N   UNK N   1      -6.317 -15.236  -1.075  0.00  0.00    -0.365 N 
HETATM   85  C   UNK N   1      -5.523 -15.829  -0.161  0.00  0.00     0.042 A 
HETATM   86  H   UNK N   1      -7.246 -15.475  -1.296  0.00  0.00     0.165 HD
HETATM   87  C   UNK N   1      -4.299 -15.234  -0.121  0.00  0.00    -0.002 A 
HETATM   88  C   UNK N   1      -5.838 -16.908   0.659  0.00  0.00     0.030 A 
HETATM   89  C   UNK N   1      -3.290 -15.661   0.738  0.00  0.00     0.014 A 
HETATM   90  C   UNK N   1      -3.572 -16.747   1.582  0.00  0.00     0.001 A 
HETATM   91  C   UNK N   1      -4.841 -17.370   1.543  0.00  0.00     0.002 A 
ENDBRANCH  81  82
ENDBRANCH  14  81
TORSDOF 18
