REMARK  2 active torsions:
REMARK  status: ('A' for Active; 'I' for Inactive)
REMARK    1  A    between atoms: C_7  and  N_9 
REMARK    2  A    between atoms: N_9  and  C_10 
ROOT
HETATM    1  C   UNK N   1      -2.204   0.369   0.009  0.00  0.00     0.018 C 
HETATM    2  C   UNK N   1      -1.178   1.000   0.002  0.00  0.00    -0.078 C 
HETATM    3  C   UNK N   1       0.086   1.673  -0.014  0.00  0.00     0.019 A 
HETATM    4  C   UNK N   1       0.193   3.068   0.021  0.00  0.00     0.021 A 
HETATM    5  C   UNK N   1       1.463   3.665  -0.002  0.00  0.00     0.004 A 
HETATM    6  C   UNK N   1       2.615   2.867  -0.061  0.00  0.00     0.029 A 
HETATM    7  C   UNK N   1       2.494   1.471  -0.096  0.00  0.00     0.035 A 
HETATM    8  C   UNK N   1       1.227   0.898  -0.070  0.00  0.00     0.050 A 
ENDROOT
BRANCH   7   9
HETATM    9  N   UNK N   1       3.652   0.653  -0.137  0.00  0.00    -0.342 N 
HETATM   10  H   UNK N   1       4.527   1.101  -0.196  0.00  0.00     0.167 HD
BRANCH   9  11
HETATM   11  C   UNK N   1       3.638  -0.779  -0.099  0.00  0.00     0.119 A 
HETATM   12  C   UNK N   1       4.839  -1.473  -0.013  0.00  0.00     0.038 A 
HETATM   13  C   UNK N   1       6.050  -0.798   0.006  0.00  0.00     0.057 A 
HETATM   14  C   UNK N   1       4.806  -2.880   0.081  0.00  0.00     0.050 A 
HETATM   15  C   UNK N   1       7.244  -1.503   0.151  0.00  0.00     0.103 A 
HETATM   16  C   UNK N   1       7.220  -2.897   0.278  0.00  0.00     0.104 A 
HETATM   17  O   UNK N   1       8.429  -0.863   0.161  0.00  0.00    -0.346 OA
HETATM   18  C   UNK N   1       6.002  -3.592   0.223  0.00  0.00     0.070 A 
HETATM   19  O   UNK N   1       8.380  -3.543   0.501  0.00  0.00    -0.346 OA
HETATM   20  C   UNK N   1       8.868  -4.517  -0.328  0.00  0.00     0.201 C 
HETATM   21  C   UNK N   1      10.343  -4.216  -0.589  0.00  0.00     0.194 C 
HETATM   22  O   UNK N   1      10.527  -2.869  -0.937  0.00  0.00    -0.387 OA
HETATM   23  C   UNK N   1      11.118  -2.272   0.185  0.00  0.00     0.193 C 
HETATM   24  C   UNK N   1      11.483  -0.826  -0.122  0.00  0.00     0.193 C 
HETATM   25  O   UNK N   1      10.823   0.044   0.754  0.00  0.00    -0.387 OA
HETATM   26  C   UNK N   1      10.035   0.855  -0.072  0.00  0.00     0.194 C 
HETATM   27  C   UNK N   1       8.564   0.504   0.079  0.00  0.00     0.201 C 
HETATM   28  N   UNK N   1       3.617  -3.530   0.068  0.00  0.00    -0.351 N 
HETATM   29  C   UNK N   1       2.452  -2.836  -0.028  0.00  0.00     0.182 A 
ATOM     30  HN  UNK N   1       3.596  -4.548   0.132  1.00  0.00     0.166 HD
HETATM   31  N   UNK N   1       2.471  -1.478  -0.102  0.00  0.00    -0.338 N 
ATOM     32  HN  UNK N   1       1.588  -0.971  -0.162  1.00  0.00     0.168 HD
ENDBRANCH   9  11
ENDBRANCH   7   9
TORSDOF 2
