REMARK  6 active torsions:
REMARK  status: ('A' for Active; 'I' for Inactive)
REMARK    1  A    between atoms: O_2  and  C_3 
REMARK    2  A    between atoms: C_3  and  N_4 
REMARK    3  A    between atoms: C_7  and  C_16 
REMARK    4  A    between atoms: C_7  and  C_22 
REMARK    5  A    between atoms: N_10  and  C_13 
REMARK    6  A    between atoms: C_13  and  O_14 
ROOT
HETATM    1  N   UNK N   1       0.350  -3.136   0.723  0.00  0.00    -0.246 N 
HETATM    2  C   UNK N   1       0.461  -1.785   0.897  0.00  0.00     0.257 C 
HETATM    3  O   UNK N   1      -0.233  -1.231   1.742  0.00  0.00    -0.271 OA
HETATM    4  C   UNK N   1       1.299  -0.929  -0.055  0.00  0.00     0.177 C 
HETATM    5  C   UNK N   1       2.214  -1.823  -0.902  0.00  0.00     0.257 C 
HETATM    6  O   UNK N   1       3.045  -1.299  -1.636  0.00  0.00    -0.271 OA
HETATM    7  N   UNK N   1       2.109  -3.185  -0.881  0.00  0.00    -0.246 N 
HETATM    8  C   UNK N   1       1.151  -3.819  -0.144  0.00  0.00     0.337 C 
HETATM    9  O   UNK N   1       1.017  -5.033  -0.252  0.00  0.00    -0.246 OA
ENDROOT
BRANCH   4  10
HETATM   10  C   UNK N   1       0.250  -0.207  -0.903  0.00  0.00    -0.026 A 
HETATM   11  C   UNK N   1      -0.670   0.663  -0.282  0.00  0.00     0.009 A 
HETATM   12  C   UNK N   1      -1.677   1.283  -1.019  0.00  0.00     0.001 A 
HETATM   13  C   UNK N   1      -1.777   1.049  -2.390  0.00  0.00     0.000 A 
HETATM   14  C   UNK N   1      -0.867   0.199  -3.024  0.00  0.00     0.001 A 
HETATM   15  C   UNK N   1       0.140  -0.430  -2.286  0.00  0.00     0.009 A 
ENDBRANCH   4  10
BRANCH   4  16
HETATM   16  C   UNK N   1       2.170   0.154   0.604  0.00  0.00    -0.026 A 
HETATM   17  C   UNK N   1       2.786   1.117  -0.226  0.00  0.00     0.009 A 
HETATM   18  C   UNK N   1       3.545   2.156   0.310  0.00  0.00     0.001 A 
HETATM   19  C   UNK N   1       3.707   2.251   1.691  0.00  0.00     0.000 A 
HETATM   20  C   UNK N   1       3.108   1.306   2.531  0.00  0.00     0.001 A 
HETATM   21  C   UNK N   1       2.336   0.264   1.994  0.00  0.00     0.009 A 
ENDBRANCH   4  16
BRANCH   1  22
HETATM   22  C   UNK N   1      -0.677  -3.860   1.451  0.00  0.00     0.305 C 
BRANCH  22  23
HETATM   23  O   UNK N   1      -1.815  -3.988   0.638  0.00  0.00    -0.376 OA
HETATM   24  C   UNK N   1      -1.903  -5.344   0.314  0.00  0.00     0.203 C 
ENDBRANCH  22  23
ENDBRANCH   1  22
BRANCH   7  25
HETATM   25  C   UNK N   1       3.020  -3.977  -1.691  0.00  0.00     0.305 C 
BRANCH  25  26
HETATM   26  O   UNK N   1       3.994  -4.559  -0.868  0.00  0.00    -0.376 OA
HETATM   27  C   UNK N   1       3.699  -5.923  -0.831  0.00  0.00     0.203 C 
ENDBRANCH  25  26
ENDBRANCH   7  25
TORSDOF 6
