REMARK  6 active torsions:
REMARK  status: ('A' for Active; 'I' for Inactive)
REMARK    1  A    between atoms: C_10  and  N_13 
REMARK    2  A    between atoms: N_13  and  C_14 
REMARK       I    between atoms: N_21  and  C_23 
REMARK       I    between atoms: C_23  and  N_25 
REMARK    3  A    between atoms: C_26  and  N_25 
REMARK    4  A    between atoms: C_26  and  C_27 
REMARK    5  A    between atoms: C_26  and  C_31 
REMARK    6  A    between atoms: C_27  and  N_28 
ROOT
HETATM    1  C   UNK N   1       2.408   0.753   0.081  0.00  0.00     0.131 A 
HETATM    2  C   UNK N   1       3.654   0.228   0.143  0.00  0.00     0.032 A 
HETATM    3  C   UNK N   1       3.520  -1.070  -0.075  0.00  0.00     0.065 A 
HETATM    4  N   UNK N   1       2.225  -1.385  -0.271  0.00  0.00    -0.300 N 
HETATM    5  N   UNK N   1       1.530  -0.249  -0.174  0.00  0.00    -0.285 N 
ATOM      6  HN  UNK N   1       0.520  -0.152  -0.274  1.00  0.00     0.188 HD
HETATM    7  C   UNK N   1       4.807  -1.792  -0.060  0.00  0.00     0.074 A 
HETATM    8  N   UNK N   1       5.706  -0.656   0.199  0.00  0.00    -0.315 N 
HETATM    9  C   UNK N   1       5.034   0.635   0.352  0.00  0.00     0.173 A 
HETATM   10  C   UNK N   1       7.061  -0.721   0.250  0.00  0.00     0.320 C 
HETATM   11  O   UNK N   1       7.639  -1.786   0.092  0.00  0.00    -0.247 OA
HETATM   12  N   UNK N   1       7.748   0.435   0.422  0.00  0.00    -0.333 N 
HETATM   13  C   UNK N   1       5.079  -2.432  -1.413  0.00  0.00     0.045 C 
HETATM   14  C   UNK N   1       4.861  -2.823   1.055  0.00  0.00     0.045 C 
HETATM   15  H   UNK N   1       1.861  -2.281  -0.451  0.00  0.00     0.186 HD
HETATM   16  H   UNK N   1       7.189   1.232   0.573  0.00  0.00     0.165 HD
ENDROOT
BRANCH  12  17
HETATM   17  C   UNK N   1       9.173   0.683   0.420  0.00  0.00     0.147 C 
BRANCH  17  18
HETATM   18  C   UNK N   1       9.867  -0.175  -0.648  0.00  0.00     0.301 C 
BRANCH  18  19
HETATM   19  N   UNK N   1      10.748  -1.220  -0.105  0.00  0.00     0.082 N 
HETATM   20  C   UNK N   1      10.279  -1.776   1.160  0.00  0.00     0.309 C 
HETATM   21  C   UNK N   1      10.722  -2.313  -1.061  0.00  0.00     0.309 C 
ENDBRANCH  18  19
ENDBRANCH  17  18
BRANCH  17  22
HETATM   22  C   UNK N   1       9.370   2.164   0.149  0.00  0.00    -0.034 A 
HETATM   23  C   UNK N   1       8.257   3.009  -0.053  0.00  0.00     0.009 A 
HETATM   24  C   UNK N   1       8.423   4.373  -0.291  0.00  0.00     0.001 A 
HETATM   25  C   UNK N   1       9.706   4.916  -0.331  0.00  0.00     0.000 A 
HETATM   26  C   UNK N   1      10.820   4.093  -0.130  0.00  0.00     0.001 A 
HETATM   27  C   UNK N   1      10.654   2.722   0.111  0.00  0.00     0.009 A 
ENDBRANCH  17  22
ENDBRANCH  12  17
BRANCH   1  28
HETATM   28  N   UNK N   1       2.095   2.123   0.260  0.00  0.00    -0.326 N 
HETATM   29  H   UNK N   1       2.821   2.730   0.533  0.00  0.00     0.169 HD
BRANCH  28  30
HETATM   30  C   UNK N   1       0.807   2.674   0.071  0.00  0.00     0.127 A 
HETATM   31  C   UNK N   1       0.552   3.995   0.402  0.00  0.00     0.075 A 
HETATM   32  S   UNK N   1       1.509   5.181   1.034  0.00  0.00    -0.096 SA
HETATM   33  C   UNK N   1      -0.704   4.531   0.221  0.00  0.00     0.054 A 
HETATM   34  C   UNK N   1       0.387   6.420   1.110  0.00  0.00     0.053 A 
HETATM   35  C   UNK N   1      -0.822   5.890   0.612  0.00  0.00     0.038 A 
HETATM   36  N   UNK N   1      -1.706   3.774  -0.290  0.00  0.00    -0.345 N 
HETATM   37  C   UNK N   1      -1.459   2.470  -0.624  0.00  0.00     0.079 A 
ATOM     38  HN  UNK N   1      -2.636   4.172  -0.424  1.00  0.00     0.167 HD
HETATM   39  C   UNK N   1      -2.547   1.631  -1.188  0.00  0.00     0.089 C 
HETATM   40  N   UNK N   1      -0.215   1.931  -0.441  0.00  0.00    -0.331 N 
ATOM     41  HN  UNK N   1      -0.049   0.957  -0.693  1.00  0.00     0.168 HD
ENDBRANCH  28  30
ENDBRANCH   1  28
TORSDOF 6
