REMARK  2 active torsions:
REMARK  status: ('A' for Active; 'I' for Inactive)
REMARK    1  A    between atoms: C_13  and  C_10 
REMARK    2  A    between atoms: C_13  and  N_15 
ROOT
HETATM    1  C   UNK N   1      -1.044  -0.285  -0.147  0.00  0.00     0.008 C 
HETATM    2  C   UNK N   1      -0.222  -0.295  -1.449  0.00  0.00     0.004 C 
HETATM    3  C   UNK N   1      -1.038   1.067   0.556  0.00  0.00     0.081 C 
HETATM    4  C   UNK N   1       0.639   0.963  -1.673  0.00  0.00     0.044 C 
HETATM    5  C   UNK N   1       0.380   1.501   0.767  0.00  0.00     0.159 C 
HETATM    6  C   UNK N   1       1.355   1.496  -0.400  0.00  0.00     0.116 C 
HETATM    7  O   UNK N   1       0.744   1.859   1.877  0.00  0.00    -0.295 OA
ENDROOT
BRANCH   6   8
HETATM    8  C   UNK N   1       2.549   0.572  -0.062  0.00  0.00    -0.001 A 
HETATM    9  C   UNK N   1       2.276  -0.802   0.106  0.00  0.00     0.012 A 
HETATM   10  C   UNK N   1       3.284  -1.722   0.387  0.00  0.00     0.001 A 
HETATM   11  C   UNK N   1       4.599  -1.294   0.521  0.00  0.00     0.002 A 
HETATM   12  C   UNK N   1       4.904   0.057   0.385  0.00  0.00     0.024 A 
HETATM   13  C   UNK N   1       3.910   0.999   0.096  0.00  0.00     0.043 A 
HETATM   14 Cl   UNK N   1       4.464   2.667  -0.015  0.00  0.00    -0.084 Cl
ENDBRANCH   6   8
BRANCH   6  15
HETATM   15  N   UNK N   1       1.794   2.874  -0.661  0.00  0.00    -0.407 N 
HETATM   16  C   UNK N   1       0.701   3.746  -1.087  0.00  0.00     0.141 C 
HETATM   17  H   UNK N   1       2.759   3.188  -0.556  0.00  0.00     0.154 HD
ENDBRANCH   6  15
TORSDOF 2
