REMARK  5 active torsions:
REMARK  status: ('A' for Active; 'I' for Inactive)
REMARK    1  A    between atoms: C_2  and  S_3 
REMARK    2  A    between atoms: S_3  and  N_6 
REMARK    3  A    between atoms: C_8  and  C_10 
REMARK    4  A    between atoms: C_8  and  N_13 
REMARK    5  A    between atoms: C_15  and  C_19 
ROOT
HETATM    1  C   UNK N   1      -1.099  -3.749   1.488  0.00  0.00     0.159 C 
HETATM    2  C   UNK N   1      -2.165  -2.761   1.247  0.00  0.00     0.061 C 
HETATM    3  N   UNK N   1      -2.990  -1.966   1.054  0.00  0.00    -0.197 NA
ENDROOT
BRANCH   1   4
HETATM    4  C   UNK N   1      -0.165  -3.906   0.282  0.00  0.00     0.090 A 
HETATM    5  C   UNK N   1      -0.826  -4.617  -0.880  0.00  0.00     0.142 A 
HETATM    6  N   UNK N   1       0.030  -5.799  -0.714  0.00  0.00    -0.206 NA
HETATM    7  C   UNK N   1       0.718  -5.114   0.367  0.00  0.00     0.142 A 
BRANCH   6   8
HETATM    8  S   UNK N   1      -0.787  -7.162   0.091  0.00  0.00     0.211 S 
HETATM    9  O   UNK N   1       0.267  -7.675   1.090  0.00  0.00    -0.211 OA
HETATM   10  O   UNK N   1      -1.831  -6.589   1.065  0.00  0.00    -0.211 OA
BRANCH   8  11
HETATM   11  C   UNK N   1      -1.363  -8.571  -0.885  0.00  0.00     0.153 C 
HETATM   12  C   UNK N   1      -0.161  -9.391  -1.313  0.00  0.00     0.022 C 
ENDBRANCH   8  11
ENDBRANCH   6   8
BRANCH   4  13
HETATM   13  N   UNK N   1       0.646  -2.720   0.021  0.00  0.00    -0.289 N 
HETATM   14  C   UNK N   1       0.164  -1.485  -0.133  0.00  0.00     0.126 A 
HETATM   15  C   UNK N   1       1.229  -0.620  -0.085  0.00  0.00     0.026 A 
HETATM   16  C   UNK N   1       2.360  -1.391   0.092  0.00  0.00     0.122 A 
HETATM   17  N   UNK N   1       1.966  -2.675   0.160  0.00  0.00    -0.308 N 
ATOM     18  HN  UNK N   1       2.578  -3.480   0.296  1.00  0.00     0.186 HD
BRANCH  15  19
HETATM   19  C   UNK N   1       1.127   0.840  -0.052  0.00  0.00     0.060 A 
HETATM   20  C   UNK N   1      -0.111   1.472  -0.120  0.00  0.00     0.037 A 
HETATM   21  C   UNK N   1      -1.395   0.991  -0.264  0.00  0.00     0.034 A 
HETATM   22  C   UNK N   1      -0.189   2.815  -0.019  0.00  0.00     0.118 A 
HETATM   23  C   UNK N   1      -2.210   2.121  -0.243  0.00  0.00     0.090 A 
HETATM   24  N   UNK N   1      -1.457   3.240  -0.090  0.00  0.00    -0.352 N 
HETATM   25  H   UNK N   1      -1.777   4.170  -0.041  0.00  0.00     0.166 HD
HETATM   26  N   UNK N   1       0.908   3.591   0.148  0.00  0.00    -0.338 N 
HETATM   27  C   UNK N   1       2.132   2.984   0.214  0.00  0.00     0.182 A 
ATOM     28  HN  UNK N   1       0.823   4.605   0.223  1.00  0.00     0.168 HD
HETATM   29  N   UNK N   1       2.237   1.619   0.119  0.00  0.00    -0.351 N 
ATOM     30  HN  UNK N   1       3.156   1.180   0.177  1.00  0.00     0.166 HD
ENDBRANCH  15  19
ENDBRANCH   4  13
ENDBRANCH   1   4
TORSDOF 5
