REMARK  9 active torsions:
REMARK  status: ('A' for Active; 'I' for Inactive)
REMARK    1  A    between atoms: N_9  and  C_38 
REMARK    2  A    between atoms: C_13  and  N_14 
REMARK       I    between atoms: N_14  and  C_15 
REMARK    3  A    between atoms: N_14  and  C_23 
REMARK    4  A    between atoms: C_23  and  C_24 
REMARK    5  A    between atoms: C_26  and  C_34 
REMARK    6  A    between atoms: C_28  and  C_30 
REMARK    7  A    between atoms: C_39  and  C_38 
REMARK    8  A    between atoms: C_42  and  C_45 
REMARK    9  A    between atoms: C_45  and  O_47 
ROOT
HETATM    1  C   UNK N   1      -4.023  -0.539   0.380  0.00  0.00     0.048 C 
HETATM    2  C   UNK N   1      -2.620  -0.076   0.223  0.00  0.00    -0.061 A 
HETATM    3  C   UNK N   1      -1.573  -0.969   0.403  0.00  0.00     0.018 A 
HETATM    4  C   UNK N   1      -0.235  -0.595   0.251  0.00  0.00    -0.007 A 
HETATM    5  C   UNK N   1       0.038   0.766  -0.052  0.00  0.00     0.044 A 
HETATM    6  C   UNK N   1      -1.032   1.673  -0.244  0.00  0.00    -0.034 A 
HETATM    7  C   UNK N   1      -2.351   1.243  -0.114  0.00  0.00     0.015 A 
HETATM    8  C   UNK N   1      -0.793   3.097  -0.597  0.00  0.00     0.050 C 
HETATM    9  N   UNK N   1       1.378   1.227  -0.113  0.00  0.00    -0.380 N 
HETATM   10  C   UNK N   1       2.207   0.761  -1.202  0.00  0.00     0.123 C 
HETATM   11  C   UNK N   1       2.819  -0.602  -0.903  0.00  0.00     0.022 C 
HETATM   12  C   UNK N   1       1.769  -1.703  -0.857  0.00  0.00     0.032 C 
HETATM   13  C   UNK N   1       0.925  -1.605   0.411  0.00  0.00     0.138 C 
ENDROOT
BRANCH  13  14
HETATM   14  N   UNK N   1       0.680  -2.947   0.965  0.00  0.00    -0.202 N 
HETATM   15  C   UNK N   1      -0.608  -3.561   1.027  0.00  0.00     0.710 A 
HETATM   16  N   UNK N   1      -1.497  -3.562   0.016  0.00  0.00    -0.116 N 
HETATM   17  N   UNK N   1      -0.986  -4.436   1.984  0.00  0.00    -0.113 N 
HETATM   18  N   UNK N   1      -2.440  -4.401   0.398  0.00  0.00    -0.208 N 
ATOM     19  HN  UNK N   1      -1.451  -3.032  -0.854  1.00  0.00     0.207 HD
HETATM   20  N   UNK N   1      -2.145  -4.928   1.574  0.00  0.00     0.011 NA
HETATM   21  C   UNK N   1      -3.611  -4.733  -0.388  0.00  0.00     0.198 C 
ATOM     22  HN  UNK N   1      -0.485  -4.668   2.841  1.00  0.00     0.203 HD
BRANCH  14  23
HETATM   23  C   UNK N   1       1.832  -3.723   1.434  0.00  0.00     0.180 C 
BRANCH  23  24
HETATM   24  C   UNK N   1       2.005  -5.041   0.675  0.00  0.00    -0.038 A 
HETATM   25  C   UNK N   1       3.269  -5.628   0.483  0.00  0.00     0.025 A 
HETATM   26  C   UNK N   1       3.377  -6.875  -0.178  0.00  0.00     0.049 A 
HETATM   27  C   UNK N   1       2.218  -7.524  -0.636  0.00  0.00     0.032 A 
HETATM   28  C   UNK N   1       0.965  -6.944  -0.441  0.00  0.00     0.049 A 
HETATM   29  C   UNK N   1       0.882  -5.726   0.209  0.00  0.00     0.025 A 
BRANCH  26  30
HETATM   30  C   UNK N   1       4.718  -7.521  -0.385  0.00  0.00     0.417 C 
HETATM   31  F   UNK N   1       5.319  -7.747   0.839  0.00  0.00    -0.166 F 
HETATM   32  F   UNK N   1       4.588  -8.734  -1.043  0.00  0.00    -0.166 F 
HETATM   33  F   UNK N   1       5.523  -6.692  -1.144  0.00  0.00    -0.166 F 
ENDBRANCH  26  30
BRANCH  28  34
HETATM   34  C   UNK N   1      -0.305  -7.597  -0.901  0.00  0.00     0.417 C 
HETATM   35  F   UNK N   1      -0.054  -8.809  -1.516  0.00  0.00    -0.166 F 
HETATM   36  F   UNK N   1      -1.132  -7.808   0.188  0.00  0.00    -0.166 F 
HETATM   37  F   UNK N   1      -0.950  -6.762  -1.797  0.00  0.00    -0.166 F 
ENDBRANCH  28  34
ENDBRANCH  23  24
ENDBRANCH  14  23
ENDBRANCH  13  14
BRANCH   9  38
HETATM   38  C   UNK N   1       2.012   1.480   1.167  0.00  0.00     0.127 C 
BRANCH  38  39
HETATM   39  C   UNK N   1       2.570   2.898   1.358  0.00  0.00     0.004 C 
HETATM   40  C   UNK N   1       1.908   4.018   0.551  0.00  0.00     0.007 C 
HETATM   41  C   UNK N   1       2.354   3.993  -0.916  0.00  0.00     0.015 C 
HETATM   42  C   UNK N   1       3.885   3.997  -1.056  0.00  0.00     0.084 C 
HETATM   43  C   UNK N   1       4.502   2.856  -0.241  0.00  0.00     0.015 C 
HETATM   44  C   UNK N   1       4.088   2.939   1.225  0.00  0.00     0.007 C 
BRANCH  42  45
HETATM   45  C   UNK N   1       4.523   5.319  -0.716  0.00  0.00     0.143 C 
HETATM   46  O   UNK N   1       3.850   6.261  -0.327  0.00  0.00    -0.650 OA
BRANCH  45  47
HETATM   47  O   UNK N   1       5.854   5.469  -0.859  0.00  0.00    -0.776 OA
HETATM   48  H   UNK N   1       6.407   4.719  -0.958  0.00  0.00     0.167 HD
ENDBRANCH  45  47
ENDBRANCH  42  45
ENDBRANCH  38  39
ENDBRANCH   9  38
TORSDOF 9
