REMARK  6 active torsions:
REMARK  status: ('A' for Active; 'I' for Inactive)
REMARK    1  A    between atoms: C_3  and  C_12 
REMARK    2  A    between atoms: C_7  and  C_8 
REMARK    3  A    between atoms: C_12  and  N_13 
REMARK    4  A    between atoms: C_20  and  N_26 
REMARK    5  A    between atoms: C_22  and  C_23 
REMARK    6  A    between atoms: C_23  and  O_25 
ROOT
HETATM    1  N   UNK N   1      -0.352  -0.577   0.324  0.00  0.00    -0.331 N 
HETATM    2  C   UNK N   1      -0.919  -1.759  -0.067  0.00  0.00     0.080 A 
HETATM    3  N   UNK N   1       0.008  -2.735  -0.256  0.00  0.00    -0.343 N 
ATOM      4  HN  UNK N   1      -0.152  -3.703  -0.537  1.00  0.00     0.167 HD
HETATM    5  C   UNK N   1       1.183  -2.136   0.009  0.00  0.00     0.077 A 
HETATM    6  C   UNK N   1       0.965  -0.836   0.344  0.00  0.00     0.066 A 
HETATM    7  C   UNK N   1       2.005   0.036   0.653  0.00  0.00     0.061 A 
HETATM    8  C   UNK N   1       3.326  -0.454   0.609  0.00  0.00     0.033 A 
HETATM    9  C   UNK N   1       3.549  -1.820   0.288  0.00  0.00     0.050 A 
HETATM   10  C   UNK N   1       2.474  -2.685  -0.013  0.00  0.00     0.068 A 
HETATM   11  C   UNK N   1      -2.369  -2.020  -0.260  0.00  0.00     0.089 C 
ENDROOT
BRANCH   1  12
HETATM   12  C   UNK N   1      -0.867   0.746   0.726  0.00  0.00     0.169 C 
BRANCH  12  13
HETATM   13  C   UNK N   1      -2.301   1.158   0.517  0.00  0.00    -0.033 A 
HETATM   14  C   UNK N   1      -2.573   2.465   0.048  0.00  0.00    -0.039 A 
HETATM   15  C   UNK N   1      -1.439   3.375  -0.321  0.00  0.00     0.049 C 
HETATM   16  C   UNK N   1      -3.908   2.929  -0.020  0.00  0.00     0.054 A 
HETATM   17  C   UNK N   1      -4.951   2.070   0.352  0.00  0.00     0.017 A 
HETATM   18  C   UNK N   1      -4.679   0.784   0.816  0.00  0.00     0.001 A 
HETATM   19  C   UNK N   1      -3.360   0.346   0.929  0.00  0.00     0.009 A 
BRANCH  16  20
HETATM   20  C   UNK N   1      -4.227   4.346  -0.438  0.00  0.00     0.418 C 
HETATM   21  F   UNK N   1      -3.762   4.583  -1.718  0.00  0.00    -0.166 F 
HETATM   22  F   UNK N   1      -5.592   4.581  -0.412  0.00  0.00    -0.166 F 
HETATM   23  F   UNK N   1      -3.620   5.230   0.438  0.00  0.00    -0.166 F 
ENDBRANCH  16  20
ENDBRANCH  12  13
ENDBRANCH   1  12
BRANCH  10  24
HETATM   24  C   UNK N   1       2.734  -4.111  -0.317  0.00  0.00     0.178 C 
HETATM   25  O   UNK N   1       1.813  -4.874  -0.561  0.00  0.00    -0.646 OA
BRANCH  24  26
HETATM   26  O   UNK N   1       3.996  -4.583  -0.301  0.00  0.00    -0.773 OA
HETATM   27  H   UNK N   1       4.151  -5.507  -0.290  0.00  0.00     0.167 HD
ENDBRANCH  24  26
ENDBRANCH  10  24
BRANCH   8  28
HETATM   28  N   UNK N   1       4.423   0.420   0.877  0.00  0.00    -0.377 N 
HETATM   29  C   UNK N   1       4.201   1.841   1.073  0.00  0.00     0.149 C 
HETATM   30  C   UNK N   1       5.109   2.639   0.122  0.00  0.00     0.187 C 
HETATM   31  O   UNK N   1       5.703   1.795  -0.839  0.00  0.00    -0.388 OA
HETATM   32  C   UNK N   1       6.579   0.944  -0.135  0.00  0.00     0.187 C 
HETATM   33  C   UNK N   1       5.790  -0.043   0.741  0.00  0.00     0.149 C 
ENDBRANCH   8  28
TORSDOF 6
