REMARK  9 active torsions:
REMARK  status: ('A' for Active; 'I' for Inactive)
REMARK    1  A    between atoms: C_21  and  C_16 
REMARK    2  A    between atoms: N_46  and  C_16 
REMARK    3  A    between atoms: C_28  and  C_20 
REMARK    4  A    between atoms: C_26  and  C_22 
REMARK    5  A    between atoms: N_40  and  C_23 
REMARK    6  A    between atoms: C_24  and  N_45 
REMARK    7  A    between atoms: C_30  and  C_25 
REMARK    8  A    between atoms: N_44  and  C_27 
REMARK    9  A    between atoms: O_47  and  C_28 
REMARK       I    between atoms: N_44  and  C_29 
ROOT
HETATM    1  C   UNK N   1       4.224 -16.664   0.653  0.00  0.00     0.050 C 
HETATM    2  C   UNK N   1       5.848 -15.155   1.706  0.00  0.00     0.011 A 
HETATM    3  C   UNK N   1       6.610 -13.994   1.758  0.00  0.00     0.030 A 
HETATM    4  C   UNK N   1       5.514 -13.205  -0.246  0.00  0.00     0.060 A 
HETATM    5  C   UNK N   1       4.935 -15.359   0.665  0.00  0.00    -0.035 A 
HETATM    6  C   UNK N   1       6.428 -13.028   0.775  0.00  0.00     0.036 A 
HETATM    7  C   UNK N   1       4.768 -14.353  -0.336  0.00  0.00     0.057 A 
ENDROOT
BRANCH   6   8
HETATM    8  N   UNK N   1       7.205 -11.887   0.694  0.00  0.00    -0.336 N 
HETATM    9  C   UNK N   1       8.490 -11.819   0.728  0.00  0.00     0.150 C 
ATOM     10  HN  UNK N   1       6.706 -11.003   0.596  1.00  0.00     0.168 HD
BRANCH   9  11
HETATM   11  C   UNK N   1       9.054 -10.531   0.342  0.00  0.00     0.015 A 
HETATM   12  C   UNK N   1      10.411 -10.256   0.160  0.00  0.00     0.016 A 
HETATM   13  C   UNK N   1      10.780  -9.009  -0.378  0.00  0.00     0.011 A 
HETATM   14  C   UNK N   1       9.794  -8.079  -0.785  0.00  0.00    -0.015 A 
HETATM   15  C   UNK N   1       8.424  -8.409  -0.627  0.00  0.00     0.056 A 
HETATM   16  C   UNK N   1       8.114  -9.598  -0.048  0.00  0.00     0.032 A 
BRANCH  14  17
HETATM   17  C   UNK N   1      10.246  -6.752  -1.331  0.00  0.00     0.311 C 
BRANCH  17  18
HETATM   18  N   UNK N   1       9.967  -5.584  -0.470  0.00  0.00     0.094 N 
HETATM   19  C   UNK N   1       9.407  -5.900   0.848  0.00  0.00     0.275 C 
HETATM   20  C   UNK N   1       8.297  -4.919   1.142  0.00  0.00     0.068 C 
HETATM   21  C   UNK N   1       7.941  -4.286  -0.195  0.00  0.00     0.252 C 
HETATM   22  C   UNK N   1       9.030  -4.713  -1.166  0.00  0.00     0.308 C 
BRANCH  21  23
HETATM   23  N   UNK N   1       7.866  -2.820  -0.133  0.00  0.00     0.086 N 
HETATM   24  C   UNK N   1       6.759  -2.407   0.717  0.00  0.00     0.310 C 
HETATM   25  C   UNK N   1       9.092  -2.247   0.417  0.00  0.00     0.310 C 
ENDBRANCH  21  23
ENDBRANCH  17  18
ENDBRANCH  14  17
BRANCH  15  26
HETATM   26  C   UNK N   1       7.220  -7.623  -1.073  0.00  0.00     0.418 C 
HETATM   27  F   UNK N   1       6.613  -7.050   0.030  0.00  0.00    -0.166 F 
HETATM   28  F   UNK N   1       7.513  -6.685  -2.033  0.00  0.00    -0.166 F 
HETATM   29  F   UNK N   1       6.301  -8.491  -1.644  0.00  0.00    -0.166 F 
ENDBRANCH  15  26
ENDBRANCH   9  11
BRANCH   9  30
HETATM   30  O   UNK N   1       9.255 -12.917   0.897  0.00  0.00    -0.345 OA
HETATM   31  H   UNK N   1       8.860 -13.759   1.015  0.00  0.00     0.219 HD
ENDBRANCH   9  30
ENDBRANCH   6   8
BRANCH   7  32
HETATM   32  N   UNK N   1       3.907 -14.474  -1.460  0.00  0.00    -0.191 N 
HETATM   33  C   UNK N   1       2.868 -15.394  -1.471  0.00  0.00     0.683 A 
HETATM   34  N   UNK N   1       3.052 -16.621  -2.032  0.00  0.00    -0.202 N 
HETATM   35  N   UNK N   1       1.755 -15.143  -0.738  0.00  0.00    -0.191 N 
HETATM   36  C   UNK N   1       2.136 -17.602  -1.863  0.00  0.00     0.108 A 
ATOM     37  HN  UNK N   1       3.889 -16.802  -2.586  1.00  0.00     0.183 HD
HETATM   38  C   UNK N   1       0.988 -17.359  -1.110  0.00  0.00     0.048 A 
HETATM   39  C   UNK N   1       0.806 -16.084  -0.557  0.00  0.00     0.063 A 
ATOM     40  HN  UNK N   1       1.633 -14.223  -0.315  1.00  0.00     0.184 HD
HETATM   41  H   UNK N   1       4.050 -13.895  -2.243  0.00  0.00     0.184 HD
BRANCH  39  42
HETATM   42  C   UNK N   1      -0.435 -15.736   0.149  0.00  0.00     0.022 A 
HETATM   43  C   UNK N   1      -1.444 -16.678   0.347  0.00  0.00     0.104 A 
HETATM   44  N   UNK N   1      -2.620 -16.305   0.913  0.00  0.00    -0.361 N 
HETATM   45  C   UNK N   1      -2.837 -15.015   1.281  0.00  0.00     0.180 A 
ATOM     46  HN  UNK N   1      -3.350 -17.001   1.063  1.00  0.00     0.166 HD
HETATM   47  N   UNK N   1      -1.865 -14.081   1.107  0.00  0.00    -0.361 N 
HETATM   48  C   UNK N   1      -0.673 -14.417   0.551  0.00  0.00     0.104 A 
ATOM     49  HN  UNK N   1      -2.033 -13.118   1.398  1.00  0.00     0.166 HD
ENDBRANCH  39  42
ENDBRANCH   7  32
TORSDOF 9
