REMARK  4 active torsions:
REMARK  status: ('A' for Active; 'I' for Inactive)
REMARK    1  A    between atoms: C_3  and  C_16 
REMARK    2  A    between atoms: N_7  and  C_8 
REMARK    3  A    between atoms: C_16  and  C_17 
REMARK    4  A    between atoms: C_17  and  C_18 
ROOT
HETATM    1  C   UNK N   1       0.530  -1.759  -0.204  0.00  0.00     0.072 C 
HETATM    2  C   UNK N   1       0.417  -3.241   0.010  0.00  0.00     0.050 A 
HETATM    3  C   UNK N   1       1.470  -4.048   0.256  0.00  0.00     0.111 A 
HETATM    4  N   UNK N   1       1.069  -5.328   0.366  0.00  0.00    -0.337 N 
ATOM      5  HN  UNK N   1       1.642  -6.154   0.539  1.00  0.00     0.168 HD
HETATM    6  C   UNK N   1      -0.273  -5.264   0.195  0.00  0.00     0.085 A 
HETATM    7  N   UNK N   1      -0.700  -3.988  -0.017  0.00  0.00    -0.303 N 
HETATM    8  C   UNK N   1      -1.144  -6.473   0.249  0.00  0.00     0.089 C 
ENDROOT
BRANCH   3   9
HETATM    9  C   UNK N   1       2.786  -3.557   0.296  0.00  0.00    -0.041 C 
BRANCH   9  10
HETATM   10  C   UNK N   1       3.805  -2.948   0.303  0.00  0.00    -0.060 C 
BRANCH  10  11
HETATM   11  C   UNK N   1       5.051  -2.302   0.309  0.00  0.00     0.022 A 
HETATM   12  C   UNK N   1       5.167  -0.907   0.294  0.00  0.00     0.038 A 
HETATM   13  C   UNK N   1       6.429  -0.353   0.051  0.00  0.00     0.090 A 
HETATM   14  N   UNK N   1       7.492  -1.170  -0.205  0.00  0.00    -0.357 N 
HETATM   15  C   UNK N   1       7.365  -2.527  -0.185  0.00  0.00     0.104 A 
ATOM     16  HN  UNK N   1       8.401  -0.756  -0.417  1.00  0.00     0.166 HD
HETATM   17  C   UNK N   1       6.142  -3.103   0.077  0.00  0.00     0.063 A 
HETATM   18 Cl   UNK N   1       8.697  -3.574  -0.596  0.00  0.00    -0.065 Cl
ENDBRANCH  10  11
ENDBRANCH   9  10
ENDBRANCH   3   9
BRANCH   7  19
HETATM   19  C   UNK N   1      -2.036  -3.469  -0.177  0.00  0.00     0.041 A 
HETATM   20  C   UNK N   1      -3.157  -4.303  -0.097  0.00  0.00     0.033 A 
HETATM   21  C   UNK N   1      -4.441  -3.746  -0.079  0.00  0.00     0.044 A 
HETATM   22  C   UNK N   1      -4.605  -2.357  -0.133  0.00  0.00     0.116 A 
HETATM   23  C   UNK N   1      -3.498  -1.527  -0.251  0.00  0.00     0.044 A 
HETATM   24  F   UNK N   1      -5.838  -1.809  -0.048  0.00  0.00    -0.206 F 
HETATM   25  C   UNK N   1      -2.230  -2.082  -0.272  0.00  0.00     0.033 A 
ENDBRANCH   7  19
TORSDOF 4
