REMARK  3 active torsions:
REMARK  status: ('A' for Active; 'I' for Inactive)
REMARK    1  A    between atoms: N_21  and  C_22 
REMARK    2  A    between atoms: C_22  and  C_23 
REMARK    3  A    between atoms: C_26  and  C_28 
ROOT
HETATM    1  C   UNK N   1       3.641  -0.975   1.802  0.00  0.00     0.001 A 
HETATM    2  C   UNK N   1       4.598  -1.736   1.099  0.00  0.00     0.002 A 
HETATM    3  C   UNK N   1       5.349  -1.151   0.065  0.00  0.00     0.030 A 
HETATM    4  C   UNK N   1       5.096   0.182  -0.255  0.00  0.00     0.045 A 
HETATM    5  C   UNK N   1       4.169   0.923   0.422  0.00  0.00    -0.006 A 
HETATM    6  C   UNK N   1       3.425   0.369   1.468  0.00  0.00     0.011 A 
HETATM    7  C   UNK N   1       4.057   2.303  -0.180  0.00  0.00     0.122 A 
HETATM    8  C   UNK N   1       4.371   3.467   0.808  0.00  0.00     0.205 C 
HETATM    9  O   UNK N   1       3.149   4.075   1.067  0.00  0.00    -0.349 OA
HETATM   10  C   UNK N   1       2.163   3.486   0.390  0.00  0.00     0.079 A 
HETATM   11  C   UNK N   1       2.626   2.502  -0.445  0.00  0.00     0.003 A 
HETATM   12  C   UNK N   1       1.756   1.637  -1.130  0.00  0.00     0.051 A 
HETATM   13  C   UNK N   1       0.397   1.834  -0.889  0.00  0.00     0.105 A 
HETATM   14  C   UNK N   1      -0.060   2.804  -0.070  0.00  0.00     0.107 A 
HETATM   15  C   UNK N   1       0.792   3.694   0.594  0.00  0.00     0.077 A 
HETATM   16  O   UNK N   1      -1.383   2.700   0.027  0.00  0.00    -0.323 OA
HETATM   17  C   UNK N   1      -1.800   1.610  -0.747  0.00  0.00     0.352 A 
HETATM   18  O   UNK N   1      -0.627   1.106  -1.321  0.00  0.00    -0.323 OA
HETATM   19  C   UNK N   1       5.117   2.172  -1.264  0.00  0.00     0.245 A 
HETATM   20  O   UNK N   1       5.495   3.086  -1.978  0.00  0.00    -0.271 OA
HETATM   21  N   UNK N   1       5.708   0.955  -1.236  0.00  0.00    -0.310 N 
ENDROOT
BRANCH  21  22
HETATM   22  C   UNK N   1       7.019   0.677  -1.778  0.00  0.00     0.197 C 
BRANCH  22  23
HETATM   23  C   UNK N   1       7.974   1.211  -0.750  0.00  0.00     0.072 A 
HETATM   24  C   UNK N   1       7.982   0.835   0.585  0.00  0.00     0.037 A 
HETATM   25  C   UNK N   1       8.795   1.746   1.227  0.00  0.00     0.045 A 
HETATM   26  C   UNK N   1       9.225   2.613   0.241  0.00  0.00     0.159 A 
HETATM   27  O   UNK N   1       8.719   2.272  -0.920  0.00  0.00    -0.308 OA
BRANCH  26  28
HETATM   28  C   UNK N   1      10.080   3.812   0.469  0.00  0.00     0.439 C 
HETATM   29  F   UNK N   1      10.402   4.398  -0.741  0.00  0.00    -0.164 F 
HETATM   30  F   UNK N   1      11.239   3.442   1.123  0.00  0.00    -0.164 F 
HETATM   31  F   UNK N   1       9.388   4.725   1.244  0.00  0.00    -0.164 F 
ENDBRANCH  26  28
ENDBRANCH  22  23
ENDBRANCH  21  22
TORSDOF 3
