REMARK  5 active torsions:
REMARK  status: ('A' for Active; 'I' for Inactive)
REMARK    1  A    between atoms: C_1  and  C_2 
REMARK    2  A    between atoms: C_2  and  S_3 
REMARK    3  A    between atoms: S_3  and  S_4 
REMARK    4  A    between atoms: S_4  and  C_5 
REMARK    5  A    between atoms: C_5  and  C_6 
ROOT
HETATM    1  S   UNK N   1       0.464  -0.226   0.617  0.00  0.00     0.081 S 
HETATM    2  O   UNK N   1       0.273  -1.348  -0.413  0.00  0.00    -0.246 OA
ENDROOT
BRANCH   1   3
HETATM    3  C   UNK N   1       1.864   0.424  -0.339  0.00  0.00     0.147 C 
BRANCH   3   4
HETATM    4  C   UNK N   1       3.143  -0.154   0.154  0.00  0.00    -0.024 C 
HETATM    5  C   UNK N   1       4.263   0.556   0.067  0.00  0.00     0.008 C 
ENDBRANCH   3   4
ENDBRANCH   1   3
BRANCH   1   6
HETATM    6  S   UNK N   1      -0.857   1.125  -0.385  0.00  0.00    -0.062 SA
BRANCH   6   7
HETATM    7  C   UNK N   1      -2.212  -0.070  -0.580  0.00  0.00     0.114 C 
BRANCH   7   8
HETATM    8  C   UNK N   1      -3.412   0.401   0.162  0.00  0.00    -0.026 C 
HETATM    9  C   UNK N   1      -4.537  -0.304   0.111  0.00  0.00     0.007 C 
ENDBRANCH   7   8
ENDBRANCH   6   7
ENDBRANCH   1   6
TORSDOF 5
