REMARK  17 active torsions:
REMARK  status: ('A' for Active; 'I' for Inactive)
REMARK    1  A    between atoms: C_19  and  C_9 
REMARK    2  A    between atoms: C_21  and  O_53 
REMARK    3  A    between atoms: S_55  and  C_22 
REMARK    4  A    between atoms: C_25  and  C_28 
REMARK    5  A    between atoms: O_52  and  C_26 
REMARK    6  A    between atoms: C_30  and  C_27 
REMARK    7  A    between atoms: C_33  and  C_27 
REMARK    8  A    between atoms: C_27  and  N_39 
REMARK    9  A    between atoms: C_28  and  O_46 
REMARK   10  A    between atoms: O_53  and  C_29 
REMARK       I    between atoms: N_45  and  C_30 
REMARK   11  A    between atoms: C_35  and  C_31 
REMARK   12  A    between atoms: O_48  and  C_31 
REMARK   13  A    between atoms: C_32  and  O_49 
REMARK   14  A    between atoms: O_54  and  C_32 
REMARK   15  A    between atoms: O_54  and  C_34 
REMARK   16  A    between atoms: C_35  and  N_41 
REMARK   17  A    between atoms: N_43  and  S_55 
ROOT
HETATM    1  C   UNK N   1       5.727  -0.810  -0.921  0.00  0.00     0.068 C 
HETATM    2  C   UNK N   1       4.470  -2.875  -1.274  0.00  0.00     0.159 C 
HETATM    3  C   UNK N   1       4.355  -1.348  -1.440  0.00  0.00     0.151 C 
HETATM    4  C   UNK N   1       5.990  -1.765   0.206  0.00  0.00     0.164 C 
HETATM    5  C   UNK N   1       6.033  -4.246   0.079  0.00  0.00     0.244 C 
HETATM    6  N   UNK N   1       5.532  -3.032  -0.314  0.00  0.00    -0.336 N 
HETATM    7  O   UNK N   1       7.098  -4.308   0.663  0.00  0.00    -0.271 OA
ENDROOT
BRANCH   4   8
HETATM    8  C   UNK N   1       7.103  -1.753   1.243  0.00  0.00     0.136 C 
HETATM    9  N   UNK N   1       8.331  -1.426   1.030  0.00  0.00    -0.355 N 
ATOM     10  HN  UNK N   1       8.957  -1.511   1.830  1.00  0.00     0.162 HD
BRANCH   9  11
HETATM   11  C   UNK N   1       8.934  -0.954  -0.189  0.00  0.00     0.105 A 
HETATM   12  C   UNK N   1      10.438  -1.035   0.098  0.00  0.00     0.052 A 
HETATM   13  C   UNK N   1       9.861  -1.881  -0.994  0.00  0.00     0.046 A 
BRANCH  13  14
HETATM   14  C   UNK N   1       9.809  -3.357  -0.680  0.00  0.00    -0.029 C 
HETATM   15  C   UNK N   1      10.305  -3.894   0.439  0.00  0.00     0.007 C 
ENDBRANCH  13  14
BRANCH  11  16
HETATM   16  C   UNK N   1       8.708   0.478  -0.585  0.00  0.00     0.154 C 
HETATM   17  N   UNK N   1       9.034   1.424   0.228  0.00  0.00    -0.266 N 
ATOM     18  HN  UNK N   1       9.320   1.176   1.175  1.00  0.00     0.180 HD
BRANCH  17  19
HETATM   19  S   UNK N   1       9.006   3.123  -0.221  0.00  0.00     0.236 S 
HETATM   20  O   UNK N   1       9.440   3.882   1.042  0.00  0.00    -0.205 OA
HETATM   21  O   UNK N   1      10.278   3.263  -1.068  0.00  0.00    -0.205 OA
BRANCH  19  22
HETATM   22  C   UNK N   1       7.618   3.886  -1.108  0.00  0.00     0.130 A 
HETATM   23  C   UNK N   1       6.878   4.832  -0.179  0.00  0.00     0.023 A 
HETATM   24  C   UNK N   1       6.327   3.457  -0.468  0.00  0.00     0.023 A 
ENDBRANCH  19  22
ENDBRANCH  17  19
BRANCH  16  25
HETATM   25  O   UNK N   1       8.243   0.760  -1.818  0.00  0.00    -0.347 OA
HETATM   26  H   UNK N   1       8.251   1.138  -2.675  0.00  0.00     0.219 HD
ENDBRANCH  16  25
ENDBRANCH  11  16
ENDBRANCH   9  11
BRANCH   8  27
HETATM   27  O   UNK N   1       6.785  -2.205   2.474  0.00  0.00    -0.348 OA
HETATM   28  H   UNK N   1       6.403  -2.170   3.329  0.00  0.00     0.219 HD
ENDBRANCH   8  27
ENDBRANCH   4   8
BRANCH   3  29
HETATM   29  O   UNK N   1       3.263  -0.945  -0.673  0.00  0.00    -0.328 OA
BRANCH  29  30
HETATM   30  C   UNK N   1       3.012   0.317  -0.236  0.00  0.00     0.154 A 
HETATM   31  C   UNK N   1       1.690   0.776  -0.121  0.00  0.00     0.030 A 
HETATM   32  C   UNK N   1       0.613  -0.061  -0.439  0.00  0.00     0.040 A 
HETATM   33  C   UNK N   1       1.450   2.114   0.290  0.00  0.00     0.013 A 
HETATM   34  C   UNK N   1      -0.697   0.413  -0.344  0.00  0.00     0.035 A 
HETATM   35  C   UNK N   1      -0.940   1.725   0.062  0.00  0.00     0.025 A 
HETATM   36 Cl   UNK N   1      -2.037  -0.638  -0.744  0.00  0.00    -0.084 Cl
HETATM   37  C   UNK N   1       0.126   2.569   0.376  0.00  0.00     0.017 A 
HETATM   38  C   UNK N   1       2.553   2.950   0.601  0.00  0.00     0.094 A 
HETATM   39  C   UNK N   1       3.829   2.409   0.532  0.00  0.00     0.127 A 
HETATM   40  N   UNK N   1       4.035   1.140   0.107  0.00  0.00    -0.344 N 
ATOM     41  HN  UNK N   1       4.991   0.791   0.042  1.00  0.00     0.167 HD
BRANCH  38  42
HETATM   42  O   UNK N   1       2.455   4.261   0.943  0.00  0.00    -0.354 OA
HETATM   43  C   UNK N   1       1.404   5.086   0.619  0.00  0.00     0.210 C 
ENDBRANCH  38  42
ENDBRANCH  29  30
ENDBRANCH   3  29
BRANCH   5  44
HETATM   44  C   UNK N   1       5.194  -5.503  -0.061  0.00  0.00     0.185 C 
BRANCH  44  45
HETATM   45  C   UNK N   1       5.884  -6.740   0.617  0.00  0.00    -0.022 C 
HETATM   46  C   UNK N   1       4.982  -7.955   0.615  0.00  0.00     0.017 C 
HETATM   47  C   UNK N   1       6.233  -6.473   2.079  0.00  0.00     0.017 C 
HETATM   48  C   UNK N   1       7.152  -7.122  -0.129  0.00  0.00     0.017 C 
ENDBRANCH  44  45
BRANCH  44  49
HETATM   49  N   UNK N   1       3.960  -5.192   0.643  0.00  0.00    -0.336 N 
HETATM   50  C   UNK N   1       2.790  -5.586   0.283  0.00  0.00     0.259 C 
ATOM     51  HN  UNK N   1       4.028  -4.619   1.485  1.00  0.00     0.164 HD
BRANCH  50  52
HETATM   52  O   UNK N   1       1.720  -5.228   1.020  0.00  0.00    -0.327 OA
HETATM   53  H   UNK N   1       1.564  -4.459   1.533  0.00  0.00     0.221 HD
ENDBRANCH  50  52
BRANCH  50  54
HETATM   54  O   UNK N   1       2.638  -6.394  -0.796  0.00  0.00    -0.307 OA
BRANCH  54  55
HETATM   55  C   UNK N   1       1.930  -7.588  -0.794  0.00  0.00     0.060 C 
HETATM   56  C   UNK N   1       1.588  -8.093   0.608  0.00  0.00     0.046 C 
HETATM   57  C   UNK N   1       0.654  -7.436  -1.592  0.00  0.00     0.046 C 
HETATM   58  C   UNK N   1       2.790  -8.638  -1.465  0.00  0.00     0.046 C 
ENDBRANCH  54  55
ENDBRANCH  50  54
ENDBRANCH  44  49
ENDBRANCH   5  44
TORSDOF 17
