REMARK  24 active torsions:
REMARK  status: ('A' for Active; 'I' for Inactive)
REMARK    1  A    between atoms: C_2  and  C_3 
REMARK    2  A    between atoms: C_3  and  C_4 
REMARK    3  A    between atoms: C_4  and  C_5 
REMARK    4  A    between atoms: C_5  and  C_6 
REMARK    5  A    between atoms: C_7  and  C_8 
REMARK    6  A    between atoms: C_8  and  C_9 
REMARK    7  A    between atoms: C_10  and  C_11 
REMARK    8  A    between atoms: C_12  and  C_13 
REMARK    9  A    between atoms: C_14  and  C_15 
REMARK   10  A    between atoms: C_15  and  C_16 
REMARK   11  A    between atoms: C_15  and  S_24 
REMARK   12  A    between atoms: C_16  and  C_17 
REMARK   13  A    between atoms: C_16  and  O_23 
REMARK   14  A    between atoms: C_17  and  C_18 
REMARK   15  A    between atoms: C_18  and  C_19 
REMARK   16  A    between atoms: C_19  and  C_20 
REMARK   17  A    between atoms: C_20  and  O_22 
REMARK   18  A    between atoms: S_24  and  C_25 
REMARK   19  A    between atoms: C_25  and  C_26 
REMARK   20  A    between atoms: C_26  and  C_27 
REMARK   21  A    between atoms: C_26  and  N_34 
REMARK       I    between atoms: C_27  and  N_29 
REMARK   22  A    between atoms: N_29  and  C_30 
REMARK   23  A    between atoms: C_30  and  C_31 
REMARK   24  A    between atoms: C_31  and  O_33 
ROOT
HETATM    1  C   UNK N   1       5.866  -5.022  -0.114  0.00  0.00     0.098 C 
ENDROOT
BRANCH   1   2
HETATM    2  C   UNK N   1       5.460  -6.454   0.023  0.00  0.00    -0.009 C 
HETATM    3  C   UNK N   1       6.234  -7.509  -0.246  0.00  0.00    -0.003 C 
BRANCH   3   4
HETATM    4  C   UNK N   1       5.651  -8.865  -0.143  0.00  0.00    -0.000 C 
HETATM    5  C   UNK N   1       4.321  -9.007  -0.120  0.00  0.00    -0.000 C 
BRANCH   5   6
HETATM    6  C   UNK N   1       3.649 -10.298   0.050  0.00  0.00    -0.004 C 
HETATM    7  C   UNK N   1       2.330 -10.416  -0.162  0.00  0.00    -0.023 C 
BRANCH   7   8
HETATM    8  C   UNK N   1       1.494  -9.268  -0.654  0.00  0.00     0.054 C 
BRANCH   8   9
HETATM    9  C   UNK N   1       0.369  -8.970   0.287  0.00  0.00    -0.027 C 
HETATM   10  C   UNK N   1      -0.072  -7.725   0.509  0.00  0.00    -0.030 C 
BRANCH  10  11
HETATM   11  C   UNK N   1       0.531  -6.521  -0.146  0.00  0.00     0.027 C 
BRANCH  11  12
HETATM   12  C   UNK N   1      -0.258  -5.285   0.239  0.00  0.00     0.004 C 
BRANCH  12  13
HETATM   13  C   UNK N   1       0.498  -4.041  -0.183  0.00  0.00    -0.000 C 
BRANCH  13  14
HETATM   14  C   UNK N   1      -0.304  -2.808   0.178  0.00  0.00    -0.005 C 
HETATM   15  C   UNK N   1       0.535  -1.571  -0.066  0.00  0.00     0.005 C 
ENDBRANCH  13  14
ENDBRANCH  12  13
ENDBRANCH  11  12
ENDBRANCH  10  11
ENDBRANCH   8   9
ENDBRANCH   7   8
ENDBRANCH   5   6
ENDBRANCH   3   4
ENDBRANCH   1   2
BRANCH   1  16
HETATM   16  C   UNK N   1       4.654  -4.128   0.199  0.00  0.00     0.135 C 
BRANCH  16  17
HETATM   17  C   UNK N   1       4.816  -2.749  -0.410  0.00  0.00     0.034 C 
BRANCH  17  18
HETATM   18  C   UNK N   1       5.599  -1.806   0.478  0.00  0.00     0.013 C 
BRANCH  18  19
HETATM   19  C   UNK N   1       5.682  -0.448  -0.201  0.00  0.00     0.110 C 
BRANCH  19  20
HETATM   20  C   UNK N   1       4.429   0.347  -0.005  0.00  0.00     0.139 C 
HETATM   21  O   UNK N   1       3.356  -0.080  -0.400  0.00  0.00    -0.650 OA
BRANCH  20  22
HETATM   22  O   UNK N   1       4.492   1.555   0.585  0.00  0.00    -0.776 OA
HETATM   23  H   UNK N   1       5.242   1.937   0.996  0.00  0.00     0.167 HD
ENDBRANCH  20  22
ENDBRANCH  19  20
ENDBRANCH  18  19
ENDBRANCH  17  18
ENDBRANCH  16  17
BRANCH  16  24
HETATM   24  O   UNK N   1       3.487  -4.680  -0.336  0.00  0.00    -0.394 OA
HETATM   25  H   UNK N   1       2.750  -4.169  -0.708  0.00  0.00     0.210 HD
ENDBRANCH  16  24
ENDBRANCH   1  16
BRANCH   1  26
HETATM   26  S   UNK N   1       7.240  -4.645   1.025  0.00  0.00    -0.155 SA
BRANCH  26  27
HETATM   27  C   UNK N   1       8.390  -4.174  -0.299  0.00  0.00     0.108 C 
BRANCH  27  28
HETATM   28  C   UNK N   1       9.634  -3.568   0.332  0.00  0.00     0.176 C 
BRANCH  28  29
HETATM   29  C   UNK N   1       9.658  -2.064   0.209  0.00  0.00     0.241 C 
HETATM   30  O   UNK N   1       8.747  -1.406   0.685  0.00  0.00    -0.271 OA
HETATM   31  N   UNK N   1      10.703  -1.449  -0.404  0.00  0.00    -0.349 N 
HETATM   32  H   UNK N   1      11.411  -2.003  -0.807  0.00  0.00     0.163 HD
BRANCH  31  33
HETATM   33  C   UNK N   1      10.812  -0.011  -0.484  0.00  0.00     0.232 C 
BRANCH  33  34
HETATM   34  C   UNK N   1      12.205   0.437  -0.150  0.00  0.00     0.158 C 
HETATM   35  O   UNK N   1      12.464   1.629  -0.129  0.00  0.00    -0.649 OA
BRANCH  34  36
HETATM   36  O   UNK N   1      13.176  -0.461   0.109  0.00  0.00    -0.775 OA
HETATM   37  H   UNK N   1      12.973  -1.358   0.289  0.00  0.00     0.167 HD
ENDBRANCH  34  36
ENDBRANCH  33  34
ENDBRANCH  31  33
ENDBRANCH  28  29
BRANCH  28  38
HETATM   38  N   UNK N   1      10.819  -4.167  -0.257  0.00  0.00    -0.418 N 
HETATM   39  H   UNK N   1      10.871  -5.098  -0.671  0.00  0.00     0.150 HD
HETATM   40  H   UNK N   1      11.673  -3.609  -0.257  0.00  0.00     0.150 HD
ENDBRANCH  28  38
ENDBRANCH  27  28
ENDBRANCH  26  27
ENDBRANCH   1  26
TORSDOF 24
