REMARK  9 active torsions:
REMARK  status: ('A' for Active; 'I' for Inactive)
REMARK    1  A    between atoms: C_2  and  O_5 
REMARK    2  A    between atoms: O_5  and  C_6 
REMARK       I    between atoms: C_6  and  N_8 
REMARK    3  A    between atoms: N_8  and  C_9 
REMARK    4  A    between atoms: C_9  and  C_10 
REMARK    5  A    between atoms: C_10  and  N_11 
REMARK    6  A    between atoms: N_15  and  C_20 
REMARK    7  A    between atoms: C_20  and  C_21 
REMARK    8  A    between atoms: C_21  and  O_22 
REMARK    9  A    between atoms: O_22  and  C_23 
ROOT
HETATM    1  C   UNK N   1       5.068  -1.334   0.162  0.00  0.00     0.107 A 
HETATM    2  C   UNK N   1       6.471  -1.240   0.131  0.00  0.00     0.041 A 
HETATM    3  C   UNK N   1       7.234  -2.417   0.197  0.00  0.00     0.025 A 
HETATM    4  C   UNK N   1       6.580  -3.653   0.316  0.00  0.00     0.047 A 
HETATM    5  C   UNK N   1       5.213  -3.719   0.445  0.00  0.00     0.068 A 
HETATM    6  C   UNK N   1       4.460  -2.580   0.367  0.00  0.00     0.151 A 
HETATM    7  F   UNK N   1       3.127  -2.720   0.437  0.00  0.00    -0.203 F 
HETATM    8  C   UNK N   1       7.235  -4.885   0.057  0.00  0.00     0.099 C 
HETATM    9  N   UNK N   1       7.701  -5.922  -0.144  0.00  0.00    -0.191 NA
ENDROOT
BRANCH   1  10
HETATM   10  O   UNK N   1       4.266  -0.273  -0.019  0.00  0.00    -0.346 OA
BRANCH  10  11
HETATM   11  C   UNK N   1       4.565   1.044   0.192  0.00  0.00     0.195 C 
BRANCH  11  12
HETATM   12  C   UNK N   1       3.683   1.931  -0.700  0.00  0.00     0.143 C 
BRANCH  12  13
HETATM   13  N   UNK N   1       2.277   1.518  -0.820  0.00  0.00    -0.406 N 
HETATM   14  C   UNK N   1       2.091   0.171  -1.414  0.00  0.00     0.150 C 
HETATM   15  C   UNK N   1       1.580  -0.903  -0.406  0.00  0.00     0.167 C 
HETATM   16  C   UNK N   1       0.339  -1.611  -0.939  0.00  0.00     0.306 C 
HETATM   17  O   UNK N   1       1.266  -0.393   0.873  0.00  0.00    -0.374 OA
HETATM   18  N   UNK N   1      -0.863  -0.773  -0.793  0.00  0.00     0.095 N 
HETATM   19  C   UNK N   1      -0.536   0.630  -0.467  0.00  0.00     0.306 C 
HETATM   20  C   UNK N   1       0.487   0.766   0.697  0.00  0.00     0.167 C 
HETATM   21  C   UNK N   1       1.466   1.875   0.357  0.00  0.00     0.150 C 
BRANCH  18  22
HETATM   22  C   UNK N   1      -1.766  -1.415   0.171  0.00  0.00     0.292 C 
BRANCH  22  23
HETATM   23  C   UNK N   1      -2.628  -0.436   0.972  0.00  0.00     0.155 C 
BRANCH  23  24
HETATM   24  N   UNK N   1      -3.483   0.348   0.110  0.00  0.00    -0.335 N 
HETATM   25  C   UNK N   1      -3.318   1.687  -0.029  0.00  0.00     0.361 C 
HETATM   26  O   UNK N   1      -2.386   2.262   0.516  0.00  0.00    -0.238 OA
HETATM   27  H   UNK N   1      -4.204  -0.101  -0.388  0.00  0.00     0.164 HD
BRANCH  25  28
HETATM   28  O   UNK N   1      -4.237   2.412  -0.704  0.00  0.00    -0.294 OA
BRANCH  28  29
HETATM   29  C   UNK N   1      -5.056   3.319  -0.050  0.00  0.00     0.061 C 
HETATM   30  C   UNK N   1      -5.795   4.151  -1.071  0.00  0.00     0.046 C 
HETATM   31  C   UNK N   1      -6.071   2.561   0.790  0.00  0.00     0.046 C 
HETATM   32  C   UNK N   1      -4.271   4.267   0.851  0.00  0.00     0.046 C 
ENDBRANCH  28  29
ENDBRANCH  25  28
ENDBRANCH  23  24
ENDBRANCH  22  23
ENDBRANCH  18  22
ENDBRANCH  12  13
ENDBRANCH  11  12
ENDBRANCH  10  11
ENDBRANCH   1  10
TORSDOF 9
