REMARK  10 active torsions:
REMARK  status: ('A' for Active; 'I' for Inactive)
REMARK    1  A    between atoms: N_6  and  C_9 
REMARK    2  A    between atoms: C_12  and  O_16 
REMARK    3  A    between atoms: C_18  and  C_27 
REMARK    4  A    between atoms: N_20  and  C_21 
REMARK    5  A    between atoms: C_21  and  O_22 
REMARK    6  A    between atoms: O_22  and  P_23 
REMARK    7  A    between atoms: P_23  and  O_25 
REMARK    8  A    between atoms: P_23  and  O_26 
REMARK    9  A    between atoms: C_27  and  C_29 
REMARK       I    between atoms: C_29  and  N_31 
REMARK       I    between atoms: N_34  and  C_37 
REMARK   10  A    between atoms: C_37  and  C_39 
ROOT
HETATM    1  C   UNK N   1       1.837  -1.964  -0.280  0.00  0.00     0.156 A 
HETATM    2  C   UNK N   1       0.676  -1.153  -0.138  0.00  0.00     0.096 A 
HETATM    3  C   UNK N   1       0.844   0.195   0.060  0.00  0.00     0.045 A 
HETATM    4  C   UNK N   1       2.084   0.823   0.078  0.00  0.00     0.097 A 
HETATM    5  C   UNK N   1       3.207   0.010  -0.108  0.00  0.00     0.127 A 
HETATM    6  N   UNK N   1       3.057  -1.339  -0.267  0.00  0.00    -0.346 N 
ATOM      7  HN  UNK N   1       3.894  -1.909  -0.382  1.00  0.00     0.167 HD
HETATM    8  C   UNK N   1      -0.398   0.736   0.191  0.00  0.00     0.051 A 
HETATM    9  C   UNK N   1      -1.312  -0.265   0.019  0.00  0.00     0.110 A 
HETATM   10  N   UNK N   1      -0.663  -1.431  -0.167  0.00  0.00    -0.330 N 
ENDROOT
BRANCH   8  11
HETATM   11  C   UNK N   1      -0.708   2.118   0.435  0.00  0.00     0.251 C 
HETATM   12  O   UNK N   1      -0.550   2.566   1.560  0.00  0.00    -0.281 OA
BRANCH  11  13
HETATM   13  C   UNK N   1      -1.323   2.915  -0.640  0.00  0.00     0.294 C 
HETATM   14  O   UNK N   1      -1.677   2.353  -1.668  0.00  0.00    -0.264 OA
HETATM   15  N   UNK N   1      -1.517   4.247  -0.506  0.00  0.00    -0.342 N 
HETATM   16  C   UNK N   1      -2.423   4.919  -1.410  0.00  0.00     0.146 C 
HETATM   17  C   UNK N   1      -0.892   5.001   0.568  0.00  0.00     0.146 C 
HETATM   18  C   UNK N   1      -3.523   5.537  -0.539  0.00  0.00     0.146 C 
HETATM   19  N   UNK N   1      -2.804   6.437   0.320  0.00  0.00    -0.345 N 
HETATM   20  C   UNK N   1      -1.918   5.843   1.298  0.00  0.00     0.146 C 
HETATM   21  C   UNK N   1      -2.716   7.739  -0.077  0.00  0.00     0.253 C 
HETATM   22  O   UNK N   1      -3.593   8.197  -0.798  0.00  0.00    -0.267 OA
BRANCH  21  23
HETATM   23  C   UNK N   1      -1.495   8.562   0.139  0.00  0.00     0.032 A 
HETATM   24  C   UNK N   1      -1.499   9.900  -0.272  0.00  0.00     0.017 A 
HETATM   25  C   UNK N   1      -0.312  10.634  -0.312  0.00  0.00     0.001 A 
HETATM   26  C   UNK N   1       0.900  10.025   0.021  0.00  0.00     0.000 A 
HETATM   27  C   UNK N   1       0.922   8.689   0.421  0.00  0.00     0.001 A 
HETATM   28  C   UNK N   1      -0.267   7.965   0.475  0.00  0.00     0.017 A 
ENDBRANCH  21  23
ENDBRANCH  11  13
ENDBRANCH   8  11
BRANCH   4  29
HETATM   29  O   UNK N   1       2.173   2.167   0.240  0.00  0.00    -0.354 OA
HETATM   30  C   UNK N   1       3.362   2.858   0.220  0.00  0.00     0.210 C 
ENDBRANCH   4  29
BRANCH  10  31
HETATM   31  C   UNK N   1      -1.409  -2.659  -0.419  0.00  0.00     0.311 C 
BRANCH  31  32
HETATM   32  O   UNK N   1      -2.325  -2.908   0.616  0.00  0.00    -0.277 OA
BRANCH  32  33
HETATM   33  P   UNK N   1      -3.829  -2.117   0.183  0.00  0.00     0.392 P 
HETATM   34  O   UNK N   1      -4.971  -3.159   0.303  0.00  0.00    -0.632 OA
BRANCH  33  35
HETATM   35  O   UNK N   1      -3.851  -1.530  -1.455  0.00  0.00    -0.307 OA
HETATM   36  H   UNK N   1      -3.574  -1.356  -2.368  0.00  0.00     0.222 HD
ENDBRANCH  33  35
BRANCH  33  37
HETATM   37  O   UNK N   1      -4.199  -0.832   1.291  0.00  0.00    -0.307 OA
HETATM   38  H   UNK N   1      -3.682  -0.294   1.911  0.00  0.00     0.222 HD
ENDBRANCH  33  37
ENDBRANCH  32  33
ENDBRANCH  31  32
ENDBRANCH  10  31
BRANCH   1  39
HETATM   39  N   UNK N   1       1.812  -3.398  -0.370  0.00  0.00    -0.232 N 
HETATM   40  C   UNK N   1       2.906  -4.178  -0.499  0.00  0.00     0.210 A 
HETATM   41  N   UNK N   1       2.550  -5.477  -0.455  0.00  0.00    -0.340 N 
HETATM   42  C   UNK N   1       1.214  -5.437  -0.286  0.00  0.00     0.093 A 
ATOM     43  HN  UNK N   1       3.151  -6.298  -0.531  1.00  0.00     0.168 HD
HETATM   44  C   UNK N   1       0.349  -6.635  -0.152  0.00  0.00     0.090 C 
HETATM   45  N   UNK N   1       0.765  -4.175  -0.228  0.00  0.00    -0.280 N 
ATOM     46  HN  UNK N   1      -0.203  -3.878  -0.099  1.00  0.00     0.189 HD
ENDBRANCH   1  39
TORSDOF 10
