REMARK  5 active torsions:
REMARK  status: ('A' for Active; 'I' for Inactive)
REMARK    1  A    between atoms: C_10  and  N_3 
REMARK    2  A    between atoms: C_8  and  N_9 
REMARK    3  A    between atoms: C_12  and  O_17 
REMARK    4  A    between atoms: C_13  and  C_15 
REMARK    5  A    between atoms: C_15  and  O_16 
ROOT
HETATM    1  C   UNK N   1      -1.195   2.076  -0.313  0.00  0.00     0.252 C 
HETATM    2  C   UNK N   1      -0.106   1.273   0.380  0.00  0.00     0.173 C 
HETATM    3  C   UNK N   1      -0.584  -0.057  -0.092  0.00  0.00     0.171 C 
HETATM    4  C   UNK N   1      -2.052   0.089   0.269  0.00  0.00     0.177 C 
HETATM    5  O   UNK N   1      -2.415   1.424  -0.019  0.00  0.00    -0.355 OA
HETATM    6  C   UNK N   1       1.254   1.588  -0.081  0.00  0.00     0.071 C 
HETATM    7  N   UNK N   1       2.327   1.839  -0.445  0.00  0.00    -0.197 NA
ENDROOT
BRANCH   1   8
HETATM    8  N   UNK N   1      -1.228   3.540  -0.078  0.00  0.00    -0.281 N 
HETATM    9  C   UNK N   1      -0.048   4.226  -0.101  0.00  0.00     0.102 A 
HETATM   10  C   UNK N   1      -0.016   5.613   0.001  0.00  0.00     0.065 A 
HETATM   11  C   UNK N   1      -1.215   6.305   0.102  0.00  0.00     0.103 A 
HETATM   12  N   UNK N   1      -2.387   5.625   0.112  0.00  0.00    -0.295 N 
HETATM   13  C   UNK N   1      -2.416   4.257   0.022  0.00  0.00     0.330 A 
ATOM     14  HN  UNK N   1      -3.264   6.141   0.188  1.00  0.00     0.172 HD
HETATM   15  O   UNK N   1      -3.495   3.694  -0.008  0.00  0.00    -0.246 OA
BRANCH  11  16
HETATM   16  N   UNK N   1      -1.215   7.711   0.170  0.00  0.00    -0.385 N 
HETATM   17  H   UNK N   1      -0.363   8.203   0.217  0.00  0.00     0.157 HD
HETATM   18  H   UNK N   1      -2.067   8.204   0.170  0.00  0.00     0.157 HD
ENDBRANCH  11  16
ENDBRANCH   1   8
BRANCH   3  19
HETATM   19  O   UNK N   1       0.032  -1.126   0.563  0.00  0.00    -0.391 OA
HETATM   20  H   UNK N   1      -0.396  -1.868   1.017  0.00  0.00     0.210 HD
ENDBRANCH   3  19
BRANCH   4  21
HETATM   21  C   UNK N   1      -2.938  -0.870  -0.515  0.00  0.00     0.198 C 
BRANCH  21  22
HETATM   22  O   UNK N   1      -2.865  -2.151   0.033  0.00  0.00    -0.398 OA
HETATM   23  H   UNK N   1      -3.611  -2.640   0.414  0.00  0.00     0.209 HD
ENDBRANCH  21  22
ENDBRANCH   4  21
TORSDOF 5
