REMARK  12 active torsions:
REMARK  status: ('A' for Active; 'I' for Inactive)
REMARK    1  A    between atoms: C_2  and  C_3 
REMARK    2  A    between atoms: C_2  and  O_36 
REMARK    3  A    between atoms: C_3  and  C_4 
REMARK    4  A    between atoms: C_3  and  N_35 
REMARK       I    between atoms: C_4  and  N_6 
REMARK    5  A    between atoms: C_10  and  C_11 
REMARK       I    between atoms: C_11  and  N_13 
REMARK    6  A    between atoms: C_17  and  C_18 
REMARK    7  A    between atoms: C_17  and  C_25 
REMARK    8  A    between atoms: C_18  and  C_19 
REMARK       I    between atoms: C_25  and  N_27 
REMARK    9  A    between atoms: C_28  and  N_27 
REMARK   10  A    between atoms: C_28  and  C_29 
REMARK   11  A    between atoms: C_28  and  C_32 
REMARK   12  A    between atoms: C_29  and  O_31 
REMARK       I    between atoms: C_32  and  N_34 
ROOT
HETATM    1  C   UNK N   1      -0.985  -3.314   0.694  0.00  0.00     0.243 C 
HETATM    2  O   UNK N   1       0.056  -3.669   1.221  0.00  0.00    -0.271 OA
HETATM    3  N   UNK N   1      -1.303  -1.986   0.643  0.00  0.00    -0.332 N 
HETATM    4  C   UNK N   1      -2.654  -1.599   0.316  0.00  0.00     0.127 C 
HETATM    5  C   UNK N   1      -2.539  -0.499  -0.703  0.00  0.00     0.023 C 
HETATM    6  C   UNK N   1      -1.082  -0.553  -1.107  0.00  0.00     0.043 C 
HETATM    7  C   UNK N   1      -0.329  -1.013   0.148  0.00  0.00     0.120 C 
ENDROOT
BRANCH   7   8
HETATM    8  C   UNK N   1      -0.162   0.197   1.101  0.00  0.00     0.080 C 
BRANCH   8   9
HETATM    9  C   UNK N   1       0.503   1.379   0.429  0.00  0.00    -0.055 A 
HETATM   10  C   UNK N   1      -0.160   2.080  -0.592  0.00  0.00     0.007 A 
HETATM   11  C   UNK N   1       0.462   3.141  -1.249  0.00  0.00     0.001 A 
HETATM   12  C   UNK N   1       1.753   3.523  -0.880  0.00  0.00     0.000 A 
HETATM   13  C   UNK N   1       2.415   2.844   0.149  0.00  0.00     0.001 A 
HETATM   14  C   UNK N   1       1.793   1.772   0.802  0.00  0.00     0.007 A 
ENDBRANCH   8   9
ENDBRANCH   7   8
BRANCH   7  15
HETATM   15  C   UNK N   1       1.055  -1.544  -0.270  0.00  0.00     0.247 C 
HETATM   16  O   UNK N   1       1.319  -1.661  -1.458  0.00  0.00    -0.271 OA
HETATM   17  N   UNK N   1       2.027  -1.747   0.669  0.00  0.00    -0.343 N 
HETATM   18  H   UNK N   1       1.754  -1.729   1.615  0.00  0.00     0.163 HD
BRANCH  17  19
HETATM   19  C   UNK N   1       3.442  -1.991   0.381  0.00  0.00     0.204 C 
BRANCH  19  20
HETATM   20  C   UNK N   1       3.792  -3.367  -0.202  0.00  0.00     0.146 C 
HETATM   21  C   UNK N   1       3.613  -4.467   0.822  0.00  0.00     0.042 C 
BRANCH  20  22
HETATM   22  O   UNK N   1       3.093  -3.661  -1.372  0.00  0.00    -0.393 OA
HETATM   23  H   UNK N   1       2.672  -3.342  -2.185  0.00  0.00     0.210 HD
ENDBRANCH  20  22
ENDBRANCH  19  20
BRANCH  19  24
HETATM   24  C   UNK N   1       4.086  -0.852  -0.366  0.00  0.00     0.240 C 
HETATM   25  O   UNK N   1       3.720  -0.548  -1.490  0.00  0.00    -0.271 OA
HETATM   26  N   UNK N   1       5.093  -0.169   0.211  0.00  0.00    -0.368 N 
HETATM   27  H   UNK N   1       5.893  -0.557   0.633  0.00  0.00     0.159 HD
HETATM   28  H   UNK N   1       5.022   0.813   0.211  0.00  0.00     0.159 HD
ENDBRANCH  19  24
ENDBRANCH  17  19
ENDBRANCH   7  15
BRANCH   1  29
HETATM   29  C   UNK N   1      -1.818  -4.314  -0.128  0.00  0.00     0.179 C 
HETATM   30  C   UNK N   1      -3.283  -4.395   0.266  0.00  0.00     0.037 C 
HETATM   31  C   UNK N   1      -3.704  -5.810  -0.086  0.00  0.00     0.022 C 
HETATM   32  C   UNK N   1      -2.434  -6.634   0.026  0.00  0.00     0.127 C 
HETATM   33  N   UNK N   1      -1.364  -5.684  -0.132  0.00  0.00    -0.337 N 
HETATM   34  C   UNK N   1      -0.064  -6.073  -0.325  0.00  0.00     0.245 C 
HETATM   35  O   UNK N   1       0.788  -5.228  -0.585  0.00  0.00    -0.271 OA
BRANCH  34  36
HETATM   36  C   UNK N   1       0.361  -7.526  -0.191  0.00  0.00     0.196 C 
BRANCH  36  37
HETATM   37  C   UNK N   1       1.886  -7.675  -0.040  0.00  0.00     0.145 C 
HETATM   38  C   UNK N   1       2.282  -9.130   0.133  0.00  0.00     0.042 C 
BRANCH  37  39
HETATM   39  O   UNK N   1       2.568  -7.146  -1.137  0.00  0.00    -0.393 OA
HETATM   40  H   UNK N   1       3.124  -7.373  -1.899  0.00  0.00     0.210 HD
ENDBRANCH  37  39
ENDBRANCH  36  37
BRANCH  36  41
HETATM   41  N   UNK N   1      -0.255  -8.101   0.998  0.00  0.00    -0.416 N 
HETATM   42  H   UNK N   1      -0.819  -7.928   1.830  0.00  0.00     0.150 HD
HETATM   43  H   UNK N   1      -0.025  -9.094   0.998  0.00  0.00     0.150 HD
ENDBRANCH  36  41
ENDBRANCH  34  36
ENDBRANCH   1  29
TORSDOF 12
