REMARK  29 active torsions:
REMARK  status: ('A' for Active; 'I' for Inactive)
REMARK    1  A    between atoms: C_2  and  C_3 
REMARK    2  A    between atoms: C_3  and  C_5 
REMARK    3  A    between atoms: C_5  and  C_6 
REMARK    4  A    between atoms: C_5  and  N_27 
REMARK       I    between atoms: C_6  and  N_8 
REMARK    5  A    between atoms: C_9  and  N_8 
REMARK    6  A    between atoms: C_9  and  C_10 
REMARK    7  A    between atoms: C_9  and  C_17 
REMARK    8  A    between atoms: C_10  and  C_11 
REMARK       I    between atoms: C_17  and  N_19 
REMARK    9  A    between atoms: C_23  and  C_24 
REMARK   10  A    between atoms: C_24  and  O_26 
REMARK       I    between atoms: N_27  and  C_28 
REMARK   11  A    between atoms: C_28  and  C_30 
REMARK   12  A    between atoms: C_30  and  C_31 
REMARK   13  A    between atoms: C_30  and  N_39 
REMARK   14  A    between atoms: C_31  and  C_32 
REMARK   15  A    between atoms: C_35  and  O_38 
REMARK       I    between atoms: N_39  and  C_40 
REMARK   16  A    between atoms: C_40  and  C_42 
REMARK   17  A    between atoms: C_42  and  C_43 
REMARK   18  A    between atoms: C_42  and  N_46 
REMARK       I    between atoms: N_46  and  C_47 
REMARK   19  A    between atoms: C_47  and  C_49 
REMARK   20  A    between atoms: C_49  and  C_50 
REMARK   21  A    between atoms: C_49  and  N_58 
REMARK   22  A    between atoms: C_50  and  C_51 
REMARK   23  A    between atoms: C_51  and  C_52 
REMARK   24  A    between atoms: C_52  and  N_53 
REMARK       I    between atoms: N_53  and  C_54 
REMARK       I    between atoms: C_54  and  N_57 
REMARK       I    between atoms: N_58  and  C_59 
REMARK   25  A    between atoms: C_59  and  C_61 
REMARK   26  A    between atoms: C_61  and  C_62 
REMARK   27  A    between atoms: C_61  and  N_66 
REMARK   28  A    between atoms: C_62  and  C_63 
REMARK   29  A    between atoms: C_63  and  O_65 
ROOT
HETATM    1  C   UNK N   1       2.254   1.333   0.861  0.00  0.00     0.180 C 
ENDROOT
BRANCH   1   2
HETATM    2  C   UNK N   1       0.885   1.134   1.500  0.00  0.00     0.241 C 
HETATM    3  N   UNK N   1      -0.292   1.042   0.829  0.00  0.00    -0.346 N 
HETATM    4  H   UNK N   1      -1.114   1.040   1.370  0.00  0.00     0.163 HD
HETATM    5  O   UNK N   1       0.848   1.080   2.719  0.00  0.00    -0.271 OA
BRANCH   3   6
HETATM    6  C   UNK N   1      -0.452   0.946  -0.596  0.00  0.00     0.180 C 
BRANCH   6   7
HETATM    7  C   UNK N   1      -1.263  -0.312  -0.965  0.00  0.00     0.013 C 
HETATM    8  C   UNK N   1      -1.188  -0.578  -2.458  0.00  0.00     0.012 C 
BRANCH   7   9
HETATM    9  C   UNK N   1      -0.836  -1.573  -0.226  0.00  0.00     0.002 C 
HETATM   10  C   UNK N   1      -1.485  -1.635   1.146  0.00  0.00     0.005 C 
ENDBRANCH   7   9
ENDBRANCH   6   7
BRANCH   6  11
HETATM   11  C   UNK N   1      -1.123   2.164  -1.211  0.00  0.00     0.241 C 
HETATM   12  O   UNK N   1      -0.848   2.428  -2.370  0.00  0.00    -0.271 OA
HETATM   13  N   UNK N   1      -2.045   2.946  -0.578  0.00  0.00    -0.346 N 
HETATM   14  H   UNK N   1      -2.508   3.610  -1.138  0.00  0.00     0.163 HD
BRANCH  13  15
HETATM   15  C   UNK N   1      -2.425   2.914   0.822  0.00  0.00     0.182 C 
BRANCH  15  16
HETATM   16  C   UNK N   1      -2.793   4.284   1.409  0.00  0.00     0.093 C 
BRANCH  16  17
HETATM   17  C   UNK N   1      -3.289   5.285   0.411  0.00  0.00     0.028 A 
HETATM   18  C   UNK N   1      -4.421   5.184  -0.359  0.00  0.00     0.114 A 
HETATM   19  N   UNK N   1      -4.505   6.297  -1.112  0.00  0.00    -0.360 N 
HETATM   20  C   UNK N   1      -3.433   7.049  -0.782  0.00  0.00     0.180 A 
HETATM   21  H   UNK N   1      -5.204   6.517  -1.770  0.00  0.00     0.166 HD
HETATM   22  N   UNK N   1      -2.672   6.449   0.154  0.00  0.00    -0.354 N 
ATOM     23  HN  UNK N   1      -1.813   6.802   0.576  1.00  0.00     0.166 HD
ENDBRANCH  16  17
ENDBRANCH  15  16
BRANCH  15  24
HETATM   24  C   UNK N   1      -3.194   1.741   1.410  0.00  0.00     0.243 C 
HETATM   25  O   UNK N   1      -3.067   1.555   2.609  0.00  0.00    -0.271 OA
HETATM   26  N   UNK N   1      -3.975   0.881   0.682  0.00  0.00    -0.336 N 
HETATM   27  C   UNK N   1      -4.546  -0.286   1.308  0.00  0.00     0.127 C 
HETATM   28  C   UNK N   1      -4.205   0.951  -0.733  0.00  0.00     0.185 C 
HETATM   29  C   UNK N   1      -5.131  -1.099   0.167  0.00  0.00     0.022 C 
HETATM   30  C   UNK N   1      -4.561  -0.480  -1.106  0.00  0.00     0.038 C 
BRANCH  28  31
HETATM   31  C   UNK N   1      -5.392   1.829  -1.035  0.00  0.00     0.163 C 
HETATM   32  O   UNK N   1      -6.476   1.611  -0.511  0.00  0.00    -0.648 OA
BRANCH  31  33
HETATM   33  O   UNK N   1      -5.275   2.827  -1.927  0.00  0.00    -0.775 OA
HETATM   34  H   UNK N   1      -4.631   3.104  -2.548  0.00  0.00     0.167 HD
ENDBRANCH  31  33
ENDBRANCH  28  31
ENDBRANCH  15  24
ENDBRANCH  13  15
ENDBRANCH   6  11
ENDBRANCH   3   6
ENDBRANCH   1   2
BRANCH   1  35
HETATM   35  C   UNK N   1       2.865   2.642   1.388  0.00  0.00     0.073 C 
BRANCH  35  36
HETATM   36  C   UNK N   1       2.266   3.924   0.860  0.00  0.00    -0.056 A 
HETATM   37  C   UNK N   1       1.421   3.946  -0.261  0.00  0.00     0.010 A 
HETATM   38  C   UNK N   1       0.908   5.152  -0.742  0.00  0.00     0.037 A 
HETATM   39  C   UNK N   1       1.232   6.349  -0.104  0.00  0.00     0.065 A 
HETATM   40  C   UNK N   1       2.069   6.339   1.016  0.00  0.00     0.037 A 
HETATM   41  C   UNK N   1       2.588   5.130   1.493  0.00  0.00     0.010 A 
BRANCH  39  42
HETATM   42  O   UNK N   1       0.742   7.510  -0.568  0.00  0.00    -0.361 OA
HETATM   43  H   UNK N   1       1.273   8.211  -0.891  0.00  0.00     0.217 HD
ENDBRANCH  39  42
ENDBRANCH  35  36
ENDBRANCH   1  35
BRANCH   1  44
HETATM   44  N   UNK N   1       2.378   1.290  -0.584  0.00  0.00    -0.346 N 
HETATM   45  C   UNK N   1       3.187   0.414  -1.248  0.00  0.00     0.241 C 
HETATM   46  O   UNK N   1       3.390   0.585  -2.439  0.00  0.00    -0.271 OA
HETATM   47  H   UNK N   1       1.850   1.928  -1.115  0.00  0.00     0.163 HD
BRANCH  45  48
HETATM   48  C   UNK N   1       3.818  -0.788  -0.575  0.00  0.00     0.180 C 
BRANCH  48  49
HETATM   49  C   UNK N   1       2.726  -1.853  -0.408  0.00  0.00     0.009 C 
HETATM   50  C   UNK N   1       2.541  -2.589  -1.724  0.00  0.00     0.012 C 
HETATM   51  C   UNK N   1       3.022  -2.872   0.677  0.00  0.00     0.012 C 
ENDBRANCH  48  49
BRANCH  48  52
HETATM   52  N   UNK N   1       4.389  -0.427   0.703  0.00  0.00    -0.346 N 
HETATM   53  C   UNK N   1       5.690  -0.580   1.058  0.00  0.00     0.241 C 
HETATM   54  O   UNK N   1       6.013  -0.317   2.204  0.00  0.00    -0.271 OA
HETATM   55  H   UNK N   1       3.783  -0.037   1.373  0.00  0.00     0.163 HD
BRANCH  53  56
HETATM   56  C   UNK N   1       6.767  -1.074   0.121  0.00  0.00     0.176 C 
BRANCH  56  57
HETATM   57  C   UNK N   1       6.469  -2.467  -0.421  0.00  0.00     0.036 C 
BRANCH  57  58
HETATM   58  C   UNK N   1       7.690  -3.381  -0.381  0.00  0.00     0.023 C 
BRANCH  58  59
HETATM   59  C   UNK N   1       8.841  -2.886  -1.250  0.00  0.00     0.138 C 
BRANCH  59  60
HETATM   60  N   UNK N   1       9.691  -1.985  -0.508  0.00  0.00    -0.227 N 
HETATM   61  C   UNK N   1      10.474  -2.415   0.596  0.00  0.00     0.665 C 
HETATM   62  N   UNK N   1      11.210  -1.572   1.218  0.00  0.00    -0.235 N 
HETATM   63  N   UNK N   1      10.459  -3.768   1.008  0.00  0.00    -0.235 N 
HETATM   64  H   UNK N   1      12.054  -1.738   1.696  0.00  0.00     0.174 HD
ATOM     65  HN  UNK N   1      10.880  -0.607   1.218  1.00  0.00     0.174 HD
HETATM   66  H   UNK N   1       9.639  -4.230   1.294  0.00  0.00     0.174 HD
HETATM   67  H   UNK N   1      11.307  -4.270   1.008  0.00  0.00     0.174 HD
HETATM   68  H   UNK N   1       9.729  -1.038  -0.777  0.00  0.00     0.177 HD
ENDBRANCH  59  60
ENDBRANCH  58  59
ENDBRANCH  57  58
ENDBRANCH  56  57
BRANCH  56  69
HETATM   69  N   UNK N   1       7.096  -0.177  -0.973  0.00  0.00    -0.346 N 
HETATM   70  C   UNK N   1       7.376   1.150  -0.856  0.00  0.00     0.241 C 
HETATM   71  O   UNK N   1       7.750   1.764  -1.843  0.00  0.00    -0.271 OA
HETATM   72  H   UNK N   1       7.118  -0.562  -1.879  0.00  0.00     0.163 HD
BRANCH  70  73
HETATM   73  C   UNK N   1       7.175   1.892   0.441  0.00  0.00     0.177 C 
BRANCH  73  74
HETATM   74  C   UNK N   1       8.445   2.497   1.045  0.00  0.00     0.144 C 
BRANCH  74  75
HETATM   75  C   UNK N   1       9.119   3.519   0.179  0.00  0.00     0.141 C 
HETATM   76  O   UNK N   1      10.288   3.368  -0.132  0.00  0.00    -0.650 OA
BRANCH  75  77
HETATM   77  O   UNK N   1       8.452   4.614  -0.235  0.00  0.00    -0.776 OA
HETATM   78  H   UNK N   1       8.879   5.396  -0.522  0.00  0.00     0.167 HD
ENDBRANCH  75  77
ENDBRANCH  74  75
ENDBRANCH  73  74
BRANCH  73  79
HETATM   79  N   UNK N   1       6.145   2.906   0.279  0.00  0.00    -0.418 N 
HETATM   80  H   UNK N   1       6.400   3.887   0.165  0.00  0.00     0.150 HD
HETATM   81  H   UNK N   1       5.162   2.634   0.279  0.00  0.00     0.150 HD
ENDBRANCH  73  79
ENDBRANCH  70  73
ENDBRANCH  56  69
ENDBRANCH  53  56
ENDBRANCH  48  52
ENDBRANCH  45  48
ENDBRANCH   1  44
TORSDOF 29
