REMARK  6 active torsions:
REMARK  status: ('A' for Active; 'I' for Inactive)
REMARK    1  A    between atoms: C_5  and  C_7 
REMARK    2  A    between atoms: N_13  and  C_18 
REMARK    3  A    between atoms: C_18  and  C_19 
REMARK    4  A    between atoms: C_22  and  C_27 
REMARK    5  A    between atoms: C_30  and  C_37 
REMARK    6  A    between atoms: C_32  and  C_33 
ROOT
HETATM    1  C   UNK N   1       5.895  -1.403  -0.142  0.00  0.00     0.044 A 
HETATM    2  C   UNK N   1       6.625  -2.253   0.686  0.00  0.00     0.030 A 
HETATM    3  C   UNK N   1       6.346  -3.621   0.664  0.00  0.00     0.034 A 
HETATM    4  C   UNK N   1       5.287  -4.093  -0.125  0.00  0.00     0.059 A 
HETATM    5  N   UNK N   1       4.645  -3.223  -0.943  0.00  0.00    -0.300 N 
ATOM      6  HN  UNK N   1       3.908  -3.570  -1.555  1.00  0.00     0.187 HD
HETATM    7  N   UNK N   1       4.951  -1.929  -0.968  0.00  0.00    -0.303 N 
ATOM      8  HN  UNK N   1       4.465  -1.316  -1.623  1.00  0.00     0.186 HD
ENDROOT
BRANCH   1   9
HETATM    9  C   UNK N   1       5.910   0.090   0.080  0.00  0.00     0.186 C 
BRANCH   9  10
HETATM   10  N   UNK N   1       4.524   0.582   0.198  0.00  0.00    -0.359 N 
HETATM   11  C   UNK N   1       4.187   1.795  -0.358  0.00  0.00     0.093 A 
HETATM   12  C   UNK N   1       2.832   2.191  -0.463  0.00  0.00     0.049 A 
HETATM   13  C   UNK N   1       1.875   1.277  -0.027  0.00  0.00     0.063 A 
HETATM   14  N   UNK N   1       0.539   1.337  -0.141  0.00  0.00    -0.340 N 
HETATM   15  C   UNK N   1       2.230   0.099   0.525  0.00  0.00     0.076 A 
HETATM   16  C   UNK N   1       0.121   0.132   0.342  0.00  0.00     0.119 A 
ATOM     17  HN  UNK N   1      -0.029   2.102  -0.504  1.00  0.00     0.167 HD
HETATM   18  N   UNK N   1       1.147  -0.646   0.765  0.00  0.00    -0.339 N 
ATOM     19  HN  UNK N   1       1.102  -1.580   1.171  1.00  0.00     0.167 HD
HETATM   20  C   UNK N   1       3.545  -0.260   0.674  0.00  0.00     0.122 A 
BRANCH  16  21
HETATM   21  C   UNK N   1      -1.271  -0.356   0.280  0.00  0.00     0.046 A 
HETATM   22  C   UNK N   1      -2.333   0.475  -0.123  0.00  0.00     0.130 A 
HETATM   23  C   UNK N   1      -3.629  -0.044  -0.217  0.00  0.00     0.043 A 
HETATM   24  F   UNK N   1      -2.122   1.780  -0.424  0.00  0.00    -0.205 F 
HETATM   25  C   UNK N   1      -3.874  -1.387   0.081  0.00  0.00     0.003 A 
HETATM   26  C   UNK N   1      -2.825  -2.216   0.482  0.00  0.00     0.001 A 
HETATM   27  C   UNK N   1      -1.531  -1.702   0.584  0.00  0.00     0.018 A 
ENDBRANCH  16  21
ENDBRANCH   9  10
ENDBRANCH   1   9
BRANCH   4  28
HETATM   28  C   UNK N   1       4.849  -5.510  -0.046  0.00  0.00     0.007 A 
HETATM   29  C   UNK N   1       5.809  -6.478   0.285  0.00  0.00     0.015 A 
HETATM   30  C   UNK N   1       5.471  -7.828   0.367  0.00  0.00     0.017 A 
HETATM   31  C   UNK N   1       4.155  -8.239   0.143  0.00  0.00     0.048 A 
HETATM   32  C   UNK N   1       3.176  -7.285  -0.136  0.00  0.00     0.033 A 
HETATM   33  C   UNK N   1       3.489  -5.922  -0.237  0.00  0.00     0.061 A 
BRANCH  31  34
HETATM   34  C   UNK N   1       3.780  -9.690   0.195  0.00  0.00     0.417 C 
HETATM   35  F   UNK N   1       3.269 -10.074  -1.032  0.00  0.00    -0.166 F 
HETATM   36  F   UNK N   1       2.818  -9.888   1.169  0.00  0.00    -0.166 F 
HETATM   37  F   UNK N   1       4.880 -10.480   0.485  0.00  0.00    -0.166 F 
ENDBRANCH  31  34
BRANCH  33  38
HETATM   38  C   UNK N   1       2.339  -4.954  -0.459  0.00  0.00     0.418 C 
HETATM   39  F   UNK N   1       2.315  -4.018   0.562  0.00  0.00    -0.166 F 
HETATM   40  F   UNK N   1       2.449  -4.317  -1.679  0.00  0.00    -0.166 F 
HETATM   41  F   UNK N   1       1.123  -5.619  -0.446  0.00  0.00    -0.166 F 
ENDBRANCH  33  38
ENDBRANCH   4  28
TORSDOF 6
