REMARK  8 active torsions:
REMARK  status: ('A' for Active; 'I' for Inactive)
REMARK       I    between atoms: N_2  and  C_3 
REMARK    1  A    between atoms: C_3  and  C_5 
REMARK    2  A    between atoms: C_13  and  O_15 
REMARK    3  A    between atoms: O_15  and  C_16 
REMARK    4  A    between atoms: C_24  and  O_33 
REMARK    5  A    between atoms: C_25  and  O_27 
REMARK    6  A    between atoms: O_27  and  C_28 
REMARK    7  A    between atoms: C_28  and  C_29 
REMARK    8  A    between atoms: C_29  and  N_32 
ROOT
HETATM    1  C   UNK N   1      -0.122  -0.482  -0.103  0.00  0.00     0.090 A 
HETATM    2  C   UNK N   1      -1.225  -1.349  -0.067  0.00  0.00     0.055 A 
HETATM    3  C   UNK N   1      -1.025  -2.730   0.004  0.00  0.00     0.091 A 
HETATM    4  N   UNK N   1       0.236  -3.236   0.064  0.00  0.00    -0.365 N 
ATOM      5  HN  UNK N   1       0.366  -4.246   0.132  1.00  0.00     0.165 HD
HETATM    6  C   UNK N   1       1.326  -2.425   0.033  0.00  0.00     0.048 A 
HETATM    7  C   UNK N   1       1.167  -1.031  -0.069  0.00  0.00     0.027 A 
HETATM    8  C   UNK N   1       2.296  -0.207  -0.116  0.00  0.00     0.056 A 
HETATM    9  C   UNK N   1       3.586  -0.738  -0.034  0.00  0.00     0.102 A 
HETATM   10  C   UNK N   1       3.746  -2.143   0.126  0.00  0.00     0.104 A 
HETATM   11  C   UNK N   1       2.604  -2.969   0.141  0.00  0.00     0.070 A 
ENDROOT
BRANCH   1  12
HETATM   12  O   UNK N   1      -0.253   0.874  -0.139  0.00  0.00    -0.310 OA
BRANCH  12  13
HETATM   13  C   UNK N   1      -1.373   1.643  -0.094  0.00  0.00     0.076 A 
HETATM   14  C   UNK N   1      -1.214   3.030  -0.078  0.00  0.00     0.038 A 
HETATM   15  C   UNK N   1      -2.323   3.873  -0.039  0.00  0.00     0.016 A 
HETATM   16  C   UNK N   1      -3.622   3.348  -0.016  0.00  0.00    -0.010 A 
HETATM   17  C   UNK N   1      -3.786   1.939  -0.026  0.00  0.00    -0.022 A 
HETATM   18  C   UNK N   1      -4.770   4.187   0.009  0.00  0.00     0.043 A 
HETATM   19  C   UNK N   1      -5.062   1.378  -0.008  0.00  0.00     0.012 A 
HETATM   20  C   UNK N   1      -2.667   1.102  -0.063  0.00  0.00     0.049 A 
HETATM   21  C   UNK N   1      -6.186   2.201   0.018  0.00  0.00     0.002 A 
HETATM   22  C   UNK N   1      -6.040   3.589   0.024  0.00  0.00     0.018 A 
BRANCH  18  23
HETATM   23  C   UNK N   1      -4.690   5.680   0.012  0.00  0.00     0.252 C 
HETATM   24  N   UNK N   1      -5.835   6.410   0.015  0.00  0.00    -0.361 N 
HETATM   25  C   UNK N   1      -5.819   7.851   0.011  0.00  0.00     0.149 C 
HETATM   26  H   UNK N   1      -6.701   5.941   0.020  0.00  0.00     0.162 HD
HETATM   27  O   UNK N   1      -3.609   6.248   0.007  0.00  0.00    -0.268 OA
ENDBRANCH  18  23
ENDBRANCH  12  13
ENDBRANCH   1  12
BRANCH   9  28
HETATM   28  O   UNK N   1       4.624   0.138  -0.078  0.00  0.00    -0.353 OA
HETATM   29  C   UNK N   1       5.957  -0.198  -0.036  0.00  0.00     0.210 C 
ENDBRANCH   9  28
BRANCH  10  30
HETATM   30  O   UNK N   1       4.977  -2.683   0.305  0.00  0.00    -0.346 OA
BRANCH  30  31
HETATM   31  C   UNK N   1       5.156  -3.927   0.873  0.00  0.00     0.206 C 
BRANCH  31  32
HETATM   32  C   UNK N   1       6.079  -4.794   0.046  0.00  0.00     0.045 A 
HETATM   33  C   UNK N   1       5.525  -5.737  -0.992  0.00  0.00     0.035 A 
HETATM   34  C   UNK N   1       5.945  -6.260   0.378  0.00  0.00     0.035 A 
BRANCH  32  35
HETATM   35  N   UNK N   1       7.466  -4.397  -0.107  0.00  0.00    -0.420 N 
HETATM   36  H   UNK N   1       8.196  -5.102  -0.216  0.00  0.00     0.150 HD
HETATM   37  H   UNK N   1       7.713  -3.407  -0.107  0.00  0.00     0.150 HD
ENDBRANCH  32  35
ENDBRANCH  31  32
ENDBRANCH  30  31
ENDBRANCH  10  30
TORSDOF 8
