REMARK  13 active torsions:
REMARK  status: ('A' for Active; 'I' for Inactive)
REMARK    1  A    between atoms: C_4  and  O_19 
REMARK    2  A    between atoms: C_7  and  C_8 
REMARK    3  A    between atoms: C_11  and  C_14 
REMARK    4  A    between atoms: C_20  and  O_19 
REMARK    5  A    between atoms: C_20  and  C_21 
REMARK    6  A    between atoms: C_20  and  C_27 
REMARK    7  A    between atoms: C_21  and  C_22 
REMARK    8  A    between atoms: C_22  and  C_23 
REMARK    9  A    between atoms: C_30  and  C_33 
REMARK       I    between atoms: C_33  and  N_35 
REMARK   10  A    between atoms: N_35  and  C_36 
REMARK   11  A    between atoms: C_36  and  C_37 
REMARK   12  A    between atoms: C_37  and  C_38 
REMARK   13  A    between atoms: C_38  and  O_40 
ROOT
HETATM    1  C   UNK N   1      -2.541   5.318  -0.104  0.00  0.00     0.162 C 
ENDROOT
BRANCH   1   2
HETATM    2  O   UNK N   1      -3.632   4.424  -0.116  0.00  0.00    -0.341 OA
BRANCH   2   3
HETATM    3  C   UNK N   1      -3.630   3.049  -0.137  0.00  0.00     0.070 A 
HETATM    4  C   UNK N   1      -4.830   2.336  -0.252  0.00  0.00     0.044 A 
HETATM    5  C   UNK N   1      -4.831   0.924  -0.271  0.00  0.00    -0.048 A 
HETATM    6  C   UNK N   1      -6.149   0.231  -0.369  0.00  0.00     0.049 C 
HETATM    7  C   UNK N   1      -3.606   0.202  -0.134  0.00  0.00    -0.014 A 
HETATM    8  C   UNK N   1      -2.409   0.949  -0.031  0.00  0.00    -0.048 A 
HETATM    9  C   UNK N   1      -2.451   2.323  -0.055  0.00  0.00     0.044 A 
HETATM   10  C   UNK N   1      -1.050   0.332   0.046  0.00  0.00     0.049 C 
BRANCH   7  11
HETATM   11  C   UNK N   1      -3.545  -1.296  -0.090  0.00  0.00    -0.025 A 
HETATM   12  C   UNK N   1      -2.573  -1.919   0.707  0.00  0.00     0.013 A 
HETATM   13  C   UNK N   1      -2.461  -3.301   0.765  0.00  0.00     0.009 A 
HETATM   14  C   UNK N   1      -3.303  -4.111  -0.004  0.00  0.00    -0.051 A 
HETATM   15  C   UNK N   1      -4.285  -3.499  -0.808  0.00  0.00     0.009 A 
HETATM   16  C   UNK N   1      -4.417  -2.103  -0.836  0.00  0.00     0.013 A 
BRANCH  14  17
HETATM   17  C   UNK N   1      -3.134  -5.615   0.062  0.00  0.00    -0.024 C 
HETATM   18  C   UNK N   1      -4.033  -6.352  -0.918  0.00  0.00     0.019 C 
HETATM   19  C   UNK N   1      -1.695  -5.993  -0.253  0.00  0.00     0.019 C 
HETATM   20  C   UNK N   1      -3.464  -6.099   1.463  0.00  0.00     0.019 C 
ENDBRANCH  14  17
ENDBRANCH   7  11
ENDBRANCH   2   3
ENDBRANCH   1   2
BRANCH   1  21
HETATM   21  C   UNK N   1      -2.820   6.531   0.770  0.00  0.00     0.046 C 
BRANCH  21  22
HETATM   22  C   UNK N   1      -2.925   7.783  -0.094  0.00  0.00     0.120 C 
BRANCH  22  23
HETATM   23  C   UNK N   1      -1.562   8.356  -0.480  0.00  0.00     0.388 C 
HETATM   24  F   UNK N   1      -0.829   7.435  -1.204  0.00  0.00    -0.171 F 
HETATM   25  F   UNK N   1      -1.753   9.477  -1.264  0.00  0.00    -0.171 F 
HETATM   26  F   UNK N   1      -0.859   8.713   0.655  0.00  0.00    -0.171 F 
ENDBRANCH  22  23
ENDBRANCH  21  22
ENDBRANCH   1  21
BRANCH   1  27
HETATM   27  C   UNK N   1      -1.188   4.718   0.184  0.00  0.00    -0.029 A 
HETATM   28  C   UNK N   1      -0.909   4.170   1.443  0.00  0.00     0.011 A 
HETATM   29  C   UNK N   1       0.206   3.348   1.608  0.00  0.00     0.017 A 
HETATM   30  C   UNK N   1       1.074   3.085   0.537  0.00  0.00     0.032 A 
HETATM   31  C   UNK N   1       0.838   3.712  -0.699  0.00  0.00     0.017 A 
HETATM   32  C   UNK N   1      -0.295   4.514  -0.876  0.00  0.00     0.011 A 
BRANCH  30  33
HETATM   33  C   UNK N   1       2.127   2.046   0.712  0.00  0.00     0.251 C 
HETATM   34  O   UNK N   1       2.054   1.315   1.692  0.00  0.00    -0.268 OA
HETATM   35  N   UNK N   1       3.137   1.825  -0.161  0.00  0.00    -0.356 N 
HETATM   36  H   UNK N   1       3.680   1.017  -0.014  0.00  0.00     0.162 HD
BRANCH  35  37
HETATM   37  C   UNK N   1       3.498   2.654  -1.286  0.00  0.00     0.133 C 
BRANCH  37  38
HETATM   38  C   UNK N   1       4.981   3.058  -1.207  0.00  0.00     0.129 C 
BRANCH  38  39
HETATM   39  C   UNK N   1       5.810   2.227  -0.260  0.00  0.00     0.140 C 
HETATM   40  O   UNK N   1       6.408   2.766   0.656  0.00  0.00    -0.650 OA
BRANCH  39  41
HETATM   41  O   UNK N   1       5.872   0.888  -0.403  0.00  0.00    -0.776 OA
HETATM   42  H   UNK N   1       5.088   0.386  -0.503  0.00  0.00     0.167 HD
ENDBRANCH  39  41
ENDBRANCH  38  39
ENDBRANCH  37  38
ENDBRANCH  35  37
ENDBRANCH  30  33
ENDBRANCH   1  27
TORSDOF 13
