REMARK  10 active torsions:
REMARK  status: ('A' for Active; 'I' for Inactive)
REMARK    1  A    between atoms: C_15  and  C_10 
REMARK    2  A    between atoms: C_22  and  C_10 
REMARK    3  A    between atoms: C_30  and  C_15 
REMARK    4  A    between atoms: N_33  and  C_22 
REMARK    5  A    between atoms: C_30  and  C_25 
REMARK    6  A    between atoms: C_31  and  C_26 
REMARK    7  A    between atoms: C_31  and  C_27 
REMARK    8  A    between atoms: C_32  and  C_28 
REMARK    9  A    between atoms: O_35  and  C_29 
REMARK   10  A    between atoms: O_35  and  C_31 
ROOT
HETATM    1  C   UNK N   1      -4.010   4.341  -1.406  0.00  0.00     0.062 C 
HETATM    2  C   UNK N   1      -5.443   4.221   0.614  0.00  0.00     0.062 C 
HETATM    3  C   UNK N   1      -3.284   5.588  -0.900  0.00  0.00     0.275 C 
HETATM    4  C   UNK N   1      -5.080   5.706   0.765  0.00  0.00     0.275 C 
HETATM    5  C   UNK N   1      -4.422   3.452  -0.225  0.00  0.00     0.126 C 
HETATM    6  N   UNK N   1      -3.662   5.951   0.482  0.00  0.00     0.088 N 
ENDROOT
BRANCH   6   7
HETATM    7  C   UNK N   1      -3.371   7.358   0.771  0.00  0.00     0.272 C 
BRANCH   7   8
HETATM    8  C   UNK N   1      -3.584   8.301  -0.415  0.00  0.00     0.038 C 
BRANCH   8   9
HETATM    9  C   UNK N   1      -4.942   8.138  -1.095  0.00  0.00     0.085 C 
BRANCH   9  10
HETATM   10  C   UNK N   1      -6.068   8.908  -0.466  0.00  0.00     0.159 C 
HETATM   11  O   UNK N   1      -7.144   8.351  -0.302  0.00  0.00    -0.292 OA
BRANCH  10  12
HETATM   12  C   UNK N   1      -5.938  10.358  -0.211  0.00  0.00     0.010 A 
HETATM   13  C   UNK N   1      -4.670  10.944  -0.125  0.00  0.00     0.015 A 
HETATM   14  C   UNK N   1      -4.527  12.313   0.041  0.00  0.00     0.009 A 
HETATM   15  C   UNK N   1      -5.654  13.142   0.078  0.00  0.00    -0.051 A 
HETATM   16  C   UNK N   1      -6.934  12.558   0.009  0.00  0.00     0.009 A 
HETATM   17  C   UNK N   1      -7.074  11.171  -0.115  0.00  0.00     0.015 A 
BRANCH  15  18
HETATM   18  C   UNK N   1      -5.459  14.640   0.152  0.00  0.00    -0.024 C 
HETATM   19  C   UNK N   1      -4.827  15.012   1.481  0.00  0.00     0.019 C 
HETATM   20  C   UNK N   1      -6.763  15.409   0.009  0.00  0.00     0.019 C 
HETATM   21  C   UNK N   1      -4.535  15.089  -0.970  0.00  0.00     0.019 C 
ENDBRANCH  15  18
ENDBRANCH  10  12
ENDBRANCH   9  10
ENDBRANCH   8   9
ENDBRANCH   7   8
ENDBRANCH   6   7
BRANCH   5  22
HETATM   22  O   UNK N   1      -3.328   3.119   0.601  0.00  0.00    -0.371 OA
BRANCH  22  23
HETATM   23  C   UNK N   1      -2.379   2.441  -0.184  0.00  0.00     0.188 C 
BRANCH  23  24
HETATM   24  C   UNK N   1      -2.519   0.953  -0.002  0.00  0.00    -0.025 A 
HETATM   25  C   UNK N   1      -1.444   0.139   0.382  0.00  0.00     0.010 A 
HETATM   26  C   UNK N   1      -1.620  -1.244   0.503  0.00  0.00     0.001 A 
HETATM   27  C   UNK N   1      -2.869  -1.818   0.245  0.00  0.00     0.000 A 
HETATM   28  C   UNK N   1      -3.943  -1.012  -0.134  0.00  0.00     0.001 A 
HETATM   29  C   UNK N   1      -3.766   0.366  -0.261  0.00  0.00     0.010 A 
ENDBRANCH  23  24
BRANCH  23  30
HETATM   30  C   UNK N   1      -1.004   3.055  -0.003  0.00  0.00    -0.025 A 
HETATM   31  C   UNK N   1      -0.813   4.134   0.878  0.00  0.00     0.010 A 
HETATM   32  C   UNK N   1       0.438   4.745   0.993  0.00  0.00     0.001 A 
HETATM   33  C   UNK N   1       1.512   4.282   0.230  0.00  0.00     0.000 A 
HETATM   34  C   UNK N   1       1.333   3.211  -0.650  0.00  0.00     0.001 A 
HETATM   35  C   UNK N   1       0.077   2.605  -0.773  0.00  0.00     0.010 A 
ENDBRANCH  23  30
ENDBRANCH  22  23
ENDBRANCH   5  22
TORSDOF 10
