REMARK  3 active torsions:
REMARK  status: ('A' for Active; 'I' for Inactive)
REMARK    1  A    between atoms: N_5  and  C_14 
REMARK    2  A    between atoms: C_9  and  C_11 
REMARK       I    between atoms: C_11  and  N_13 
REMARK    3  A    between atoms: C_20  and  C_17 
ROOT
HETATM    1  C   UNK N   1       4.573   0.937  -0.006  0.00  0.00     0.002 A 
HETATM    2  C   UNK N   1       3.439   0.102  -0.013  0.00  0.00     0.015 A 
HETATM    3  C   UNK N   1       2.190   0.712   0.013  0.00  0.00     0.011 A 
HETATM    4  C   UNK N   1       0.911   0.190  -0.002  0.00  0.00     0.130 A 
HETATM    5  N   UNK N   1       0.062   1.248   0.034  0.00  0.00    -0.266 N 
HETATM    6  N   UNK N   1       0.748   2.386   0.065  0.00  0.00    -0.292 N 
ATOM      7  HN  UNK N   1       0.355   3.326   0.097  1.00  0.00     0.187 HD
HETATM    8  C   UNK N   1       2.049   2.071   0.046  0.00  0.00     0.076 A 
HETATM    9  C   UNK N   1       3.149   2.938   0.042  0.00  0.00     0.060 A 
HETATM   10  C   UNK N   1       4.430   2.345   0.017  0.00  0.00     0.019 A 
ENDROOT
BRANCH   5  11
HETATM   11  C   UNK N   1      -1.371   1.213  -0.004  0.00  0.00     0.056 A 
HETATM   12  C   UNK N   1      -2.066   0.011  -0.213  0.00  0.00     0.032 A 
HETATM   13  C   UNK N   1      -3.464   0.018  -0.321  0.00  0.00     0.010 A 
HETATM   14  C   UNK N   1      -4.181   1.220  -0.194  0.00  0.00    -0.052 A 
HETATM   15  C   UNK N   1      -3.478   2.411   0.037  0.00  0.00     0.010 A 
HETATM   16  C   UNK N   1      -2.089   2.407   0.122  0.00  0.00     0.032 A 
BRANCH  14  17
HETATM   17  C   UNK N   1      -5.680   1.232  -0.377  0.00  0.00     0.036 C 
HETATM   18  C   UNK N   1      -6.385   0.201   0.500  0.00  0.00     0.012 C 
HETATM   19  C   UNK N   1      -7.883   0.236   0.216  0.00  0.00     0.020 C 
HETATM   20  C   UNK N   1      -8.406   1.651   0.457  0.00  0.00     0.113 C 
HETATM   21  N   UNK N   1      -7.734   2.596  -0.433  0.00  0.00    -0.420 N 
HETATM   22  C   UNK N   1      -6.306   2.615  -0.121  0.00  0.00     0.123 C 
HETATM   23  H   UNK N   1      -8.189   3.154  -1.156  0.00  0.00     0.153 HD
ENDBRANCH  14  17
ENDBRANCH   5  11
BRANCH   9  24
HETATM   24  C   UNK N   1       2.998   4.415   0.048  0.00  0.00     0.251 C 
HETATM   25  O   UNK N   1       3.989   5.129   0.031  0.00  0.00    -0.268 OA
HETATM   26  N   UNK N   1       1.776   4.986   0.057  0.00  0.00    -0.366 N 
HETATM   27  H   UNK N   1       1.690   5.966   0.065  0.00  0.00     0.159 HD
HETATM   28  H   UNK N   1       0.969   4.421   0.057  0.00  0.00     0.159 HD
ENDBRANCH   9  24
TORSDOF 3
