REMARK  17 active torsions:
REMARK  status: ('A' for Active; 'I' for Inactive)
REMARK    1  A    between atoms: C_2  and  N_3 
REMARK    2  A    between atoms: N_3  and  C_4 
REMARK    3  A    between atoms: N_3  and  C_38 
REMARK    4  A    between atoms: C_4  and  C_5 
REMARK    5  A    between atoms: C_5  and  C_6 
REMARK    6  A    between atoms: C_6  and  O_7 
REMARK    7  A    between atoms: O_7  and  C_8 
REMARK    8  A    between atoms: C_19  and  N_20 
REMARK    9  A    between atoms: N_20  and  C_21 
REMARK   10  A    between atoms: C_23  and  C_27 
REMARK   11  A    between atoms: C_27  and  C_28 
REMARK       I    between atoms: C_28  and  N_30 
REMARK   12  A    between atoms: N_30  and  C_31 
REMARK   13  A    between atoms: C_38  and  C_39 
REMARK   14  A    between atoms: C_39  and  O_40 
REMARK   15  A    between atoms: O_40  and  P_41 
REMARK   16  A    between atoms: P_41  and  O_43 
REMARK   17  A    between atoms: P_41  and  O_44 
ROOT
HETATM    1  C   UNK N   1      -2.725   0.169  -0.177  0.00  0.00     0.070 A 
HETATM    2  C   UNK N   1      -3.889   0.818   0.230  0.00  0.00     0.038 A 
HETATM    3  C   UNK N   1      -4.961   0.080   0.714  0.00  0.00     0.020 A 
HETATM    4  C   UNK N   1      -4.854  -1.308   0.839  0.00  0.00     0.035 A 
HETATM    5  C   UNK N   1      -3.659  -1.964   0.509  0.00  0.00     0.049 A 
HETATM    6  C   UNK N   1      -2.605  -1.227  -0.017  0.00  0.00     0.067 A 
HETATM    7  N   UNK N   1      -3.571  -3.316   0.615  0.00  0.00    -0.351 N 
ATOM      8  HN  UNK N   1      -2.694  -3.786   0.389  1.00  0.00     0.166 HD
HETATM    9  C   UNK N   1      -4.642  -4.046   1.022  0.00  0.00     0.182 A 
HETATM   10  N   UNK N   1      -5.828  -3.429   1.276  0.00  0.00    -0.338 N 
ATOM     11  HN  UNK N   1      -6.643  -3.991   1.524  1.00  0.00     0.168 HD
HETATM   12  C   UNK N   1      -5.946  -2.070   1.205  0.00  0.00     0.120 A 
ENDROOT
BRANCH  12  13
HETATM   13  N   UNK N   1      -7.228  -1.462   1.229  0.00  0.00    -0.327 N 
HETATM   14  H   UNK N   1      -7.455  -0.764   1.885  0.00  0.00     0.169 HD
BRANCH  13  15
HETATM   15  C   UNK N   1      -8.159  -1.905   0.270  0.00  0.00     0.123 A 
HETATM   16  C   UNK N   1      -7.884  -2.869  -0.661  0.00  0.00     0.076 A 
HETATM   17  C   UNK N   1      -9.090  -3.130  -1.229  0.00  0.00     0.038 A 
HETATM   18  N   UNK N   1     -10.038  -2.336  -0.685  0.00  0.00    -0.303 N 
HETATM   19  N   UNK N   1      -9.463  -1.576   0.228  0.00  0.00    -0.285 N 
ATOM     20  HN  UNK N   1     -11.027  -2.325  -0.937  1.00  0.00     0.186 HD
HETATM   21  H   UNK N   1      -9.908  -0.892   0.780  0.00  0.00     0.188 HD
BRANCH  17  22
HETATM   22  C   UNK N   1      -9.344  -4.355  -2.020  0.00  0.00     0.161 C 
BRANCH  22  23
HETATM   23  C   UNK N   1      -8.839  -5.518  -1.186  0.00  0.00     0.227 C 
HETATM   24  O   UNK N   1      -7.634  -5.707  -1.101  0.00  0.00    -0.273 OA
HETATM   25  N   UNK N   1      -9.677  -6.347  -0.512  0.00  0.00    -0.327 N 
HETATM   26  H   UNK N   1      -9.273  -7.131  -0.074  0.00  0.00     0.169 HD
BRANCH  25  27
HETATM   27  C   UNK N   1     -11.082  -6.189  -0.378  0.00  0.00     0.037 A 
HETATM   28  C   UNK N   1     -11.858  -7.318  -0.105  0.00  0.00     0.029 A 
HETATM   29  C   UNK N   1     -13.243  -7.205   0.034  0.00  0.00     0.005 A 
HETATM   30  C   UNK N   1     -13.859  -5.955  -0.076  0.00  0.00     0.042 A 
HETATM   31  C   UNK N   1     -13.088  -4.817  -0.322  0.00  0.00     0.118 A 
HETATM   32  C   UNK N   1     -11.706  -4.934  -0.475  0.00  0.00     0.071 A 
HETATM   33  F   UNK N   1     -13.681  -3.602  -0.409  0.00  0.00    -0.206 F 
ENDBRANCH  25  27
ENDBRANCH  22  23
ENDBRANCH  17  22
ENDBRANCH  13  15
ENDBRANCH  12  13
BRANCH   1  34
HETATM   34  O   UNK N   1      -1.762   0.888  -0.786  0.00  0.00    -0.351 OA
BRANCH  34  35
HETATM   35  C   UNK N   1      -1.054   0.365  -1.846  0.00  0.00     0.177 C 
BRANCH  35  36
HETATM   36  C   UNK N   1       0.363   0.035  -1.448  0.00  0.00     0.057 C 
BRANCH  36  37
HETATM   37  C   UNK N   1       0.356  -1.072  -0.414  0.00  0.00     0.274 C 
BRANCH  37  38
HETATM   38  N   UNK N   1       1.081  -0.655   0.777  0.00  0.00     0.090 N 
BRANCH  38  39
HETATM   39  C   UNK N   1       0.224   0.182   1.602  0.00  0.00     0.268 C 
HETATM   40  C   UNK N   1       0.576   1.642   1.378  0.00  0.00     0.037 C 
ENDBRANCH  38  39
BRANCH  38  41
HETATM   41  C   UNK N   1       1.380  -1.864   1.520  0.00  0.00     0.299 C 
BRANCH  41  42
HETATM   42  C   UNK N   1       2.824  -2.278   1.270  0.00  0.00     0.211 C 
BRANCH  42  43
HETATM   43  O   UNK N   1       3.126  -2.250  -0.098  0.00  0.00    -0.295 OA
BRANCH  43  44
HETATM   44  P   UNK N   1       4.124  -0.836  -0.378  0.00  0.00     0.390 P 
HETATM   45  O   UNK N   1       4.676  -0.306   0.975  0.00  0.00    -0.632 OA
BRANCH  44  46
HETATM   46  O   UNK N   1       5.504  -1.238  -1.347  0.00  0.00    -0.307 OA
HETATM   47  H   UNK N   1       5.696  -2.019  -1.890  0.00  0.00     0.222 HD
ENDBRANCH  44  46
BRANCH  44  48
HETATM   48  O   UNK N   1       3.241   0.469  -1.106  0.00  0.00    -0.307 OA
HETATM   49  H   UNK N   1       3.625   1.261  -1.513  0.00  0.00     0.222 HD
ENDBRANCH  44  48
ENDBRANCH  43  44
ENDBRANCH  42  43
ENDBRANCH  41  42
ENDBRANCH  38  41
ENDBRANCH  37  38
ENDBRANCH  36  37
ENDBRANCH  35  36
ENDBRANCH  34  35
ENDBRANCH   1  34
TORSDOF 17
