REMARK  3 active torsions:
REMARK  status: ('A' for Active; 'I' for Inactive)
REMARK    1  A    between atoms: C_2  and  C_6 
REMARK    2  A    between atoms: C_9  and  N_12 
REMARK    3  A    between atoms: C_16  and  C_28 
ROOT
HETATM    1  C   UNK N   1       2.934   6.242   1.074  0.00  0.00     0.036 C 
HETATM    2  C   UNK N   1       2.147   5.049   0.554  0.00  0.00     0.069 C 
HETATM    3  C   UNK N   1       2.183   3.974   1.629  0.00  0.00     0.036 C 
HETATM    4  C   UNK N   1       2.835   4.525  -0.634  0.00  0.00     0.073 C 
HETATM    5  N   UNK N   1       3.385   4.098  -1.558  0.00  0.00    -0.196 NA
ENDROOT
BRANCH   2   6
HETATM    6  C   UNK N   1       0.697   5.390   0.252  0.00  0.00    -0.036 A 
HETATM    7  C   UNK N   1      -0.153   4.393  -0.226  0.00  0.00     0.011 A 
HETATM    8  C   UNK N   1      -1.514   4.634  -0.373  0.00  0.00     0.031 A 
HETATM    9  C   UNK N   1      -2.086   5.860  -0.045  0.00  0.00     0.044 A 
HETATM   10  C   UNK N   1      -1.220   6.893   0.363  0.00  0.00     0.031 A 
HETATM   11  C   UNK N   1       0.156   6.662   0.515  0.00  0.00     0.011 A 
BRANCH   9  12
HETATM   12  N   UNK N   1      -3.534   6.062  -0.049  0.00  0.00    -0.261 N 
HETATM   13  C   UNK N   1      -4.592   5.174  -0.049  0.00  0.00     0.085 A 
HETATM   14  C   UNK N   1      -4.660   3.757  -0.045  0.00  0.00     0.021 A 
HETATM   15  C   UNK N   1      -5.767   5.890   0.007  0.00  0.00     0.082 A 
HETATM   16  C   UNK N   1      -3.546   2.940  -0.070  0.00  0.00     0.028 A 
HETATM   17  C   UNK N   1      -5.944   3.145   0.011  0.00  0.00     0.044 A 
HETATM   18  C   UNK N   1      -3.628   1.548  -0.040  0.00  0.00    -0.024 A 
HETATM   19  C   UNK N   1      -4.893   0.947   0.025  0.00  0.00     0.014 A 
HETATM   20  C   UNK N   1      -6.047   1.745   0.047  0.00  0.00     0.031 A 
HETATM   21  N   UNK N   1      -7.075   3.914   0.049  0.00  0.00    -0.363 N 
HETATM   22  C   UNK N   1      -7.016   5.277   0.048  0.00  0.00     0.120 A 
ATOM     23  HN  UNK N   1      -7.985   3.456   0.078  1.00  0.00     0.165 HD
HETATM   24  N   UNK N   1      -5.500   7.203   0.042  0.00  0.00    -0.300 N 
HETATM   25  C   UNK N   1      -4.144   7.294   0.015  0.00  0.00     0.334 A 
HETATM   26  C   UNK N   1      -6.455   8.297   0.123  0.00  0.00     0.161 C 
HETATM   27  O   UNK N   1      -3.546   8.358   0.046  0.00  0.00    -0.246 OA
BRANCH  18  28
HETATM   28  C   UNK N   1      -2.369   0.763  -0.084  0.00  0.00    -0.010 A 
HETATM   29  C   UNK N   1      -1.151   1.431  -0.265  0.00  0.00     0.027 A 
HETATM   30  C   UNK N   1       0.042   0.729  -0.319  0.00  0.00    -0.009 A 
HETATM   31  C   UNK N   1       1.251   1.401  -0.512  0.00  0.00     0.014 A 
HETATM   32  C   UNK N   1       0.019  -0.670  -0.179  0.00  0.00     0.042 A 
HETATM   33  C   UNK N   1       2.446   0.681  -0.565  0.00  0.00     0.001 A 
HETATM   34  C   UNK N   1       2.431  -0.711  -0.421  0.00  0.00     0.002 A 
HETATM   35  C   UNK N   1       1.219  -1.388  -0.228  0.00  0.00     0.030 A 
HETATM   36  N   UNK N   1      -1.168  -1.315  -0.001  0.00  0.00    -0.364 N 
HETATM   37  C   UNK N   1      -2.351  -0.634   0.044  0.00  0.00     0.100 A 
ATOM     38  HN  UNK N   1      -1.173  -2.330   0.102  1.00  0.00     0.165 HD
ENDBRANCH  18  28
ENDBRANCH   9  12
ENDBRANCH   2   6
TORSDOF 3
