REMARK  12 active torsions:
REMARK  status: ('A' for Active; 'I' for Inactive)
REMARK    1  A    between atoms: C_2  and  C_4 
REMARK    2  A    between atoms: C_5  and  C_4 
REMARK    3  A    between atoms: C_5  and  C_6 
REMARK    4  A    between atoms: C_5  and  C_12 
REMARK    5  A    between atoms: C_6  and  C_7 
REMARK    6  A    between atoms: C_6  and  O_11 
REMARK       I    between atoms: C_7  and  N_9 
REMARK    7  A    between atoms: N_9  and  O_10 
REMARK       I    between atoms: C_12  and  N_14 
REMARK    8  A    between atoms: C_15  and  N_14 
REMARK    9  A    between atoms: C_15  and  C_16 
REMARK   10  A    between atoms: C_15  and  C_22 
REMARK   11  A    between atoms: C_22  and  O_24 
REMARK   12  A    between atoms: O_24  and  C_25 
ROOT
HETATM    1  C   UNK N   1      -1.115  -1.745  -0.276  0.00  0.00     0.225 C 
HETATM    2  O   UNK N   1      -1.378  -1.498  -1.445  0.00  0.00    -0.273 OA
HETATM    3  N   UNK N   1       0.102  -1.451   0.237  0.00  0.00    -0.343 N 
HETATM    4  H   UNK N   1       0.285  -1.656   1.183  0.00  0.00     0.163 HD
ENDROOT
BRANCH   3   5
HETATM    5  C   UNK N   1       1.138  -0.847  -0.563  0.00  0.00     0.217 C 
BRANCH   5   6
HETATM    6  C   UNK N   1       1.295   0.601  -0.168  0.00  0.00    -0.026 A 
HETATM    7  C   UNK N   1       0.206   1.460  -0.383  0.00  0.00     0.010 A 
HETATM    8  C   UNK N   1       0.293   2.815  -0.058  0.00  0.00     0.001 A 
HETATM    9  C   UNK N   1       1.471   3.324   0.490  0.00  0.00     0.000 A 
HETATM   10  C   UNK N   1       2.561   2.478   0.712  0.00  0.00     0.001 A 
HETATM   11  C   UNK N   1       2.476   1.121   0.381  0.00  0.00     0.010 A 
ENDBRANCH   5   6
BRANCH   5  12
HETATM   12  C   UNK N   1       2.348  -1.754  -0.619  0.00  0.00     0.286 C 
HETATM   13  O   UNK N   1       2.212  -2.868  -1.103  0.00  0.00    -0.263 OA
BRANCH  12  14
HETATM   14  O   UNK N   1       3.574  -1.339  -0.197  0.00  0.00    -0.314 OA
BRANCH  14  15
HETATM   15  C   UNK N   1       4.761  -1.942  -0.585  0.00  0.00     0.132 C 
HETATM   16  C   UNK N   1       5.926  -1.274   0.109  0.00  0.00     0.032 C 
HETATM   17  C   UNK N   1       6.105  -2.031   1.409  0.00  0.00     0.002 C 
HETATM   18  C   UNK N   1       5.621  -3.443   1.141  0.00  0.00     0.002 C 
HETATM   19  C   UNK N   1       4.846  -3.402  -0.162  0.00  0.00     0.032 C 
ENDBRANCH  14  15
ENDBRANCH  12  14
ENDBRANCH   5  12
ENDBRANCH   3   5
BRANCH   1  20
HETATM   20  C   UNK N   1      -2.146  -2.367   0.610  0.00  0.00     0.116 C 
BRANCH  20  21
HETATM   21  C   UNK N   1      -1.901  -3.785   1.134  0.00  0.00     0.021 C 
BRANCH  21  22
HETATM   22  C   UNK N   1      -1.788  -4.861   0.052  0.00  0.00    -0.022 C 
HETATM   23  C   UNK N   1      -1.582  -6.200   0.729  0.00  0.00     0.009 C 
HETATM   24  C   UNK N   1      -0.603  -4.628  -0.870  0.00  0.00     0.009 C 
ENDBRANCH  21  22
ENDBRANCH  20  21
BRANCH  20  25
HETATM   25  C   UNK N   1      -3.504  -1.670   0.780  0.00  0.00     0.225 C 
BRANCH  25  26
HETATM   26  C   UNK N   1      -4.553  -2.080  -0.226  0.00  0.00     0.270 C 
HETATM   27  O   UNK N   1      -4.312  -2.957  -1.045  0.00  0.00    -0.268 OA
HETATM   28  N   UNK N   1      -5.772  -1.490  -0.238  0.00  0.00    -0.235 N 
HETATM   29  H   UNK N   1      -6.446  -1.787  -0.891  0.00  0.00     0.197 HD
BRANCH  28  30
HETATM   30  O   UNK N   1      -6.078  -0.508   0.625  0.00  0.00    -0.287 OA
HETATM   31  H   UNK N   1      -5.574   0.038   1.249  0.00  0.00     0.244 HD
ENDBRANCH  28  30
ENDBRANCH  25  26
BRANCH  25  32
HETATM   32  O   UNK N   1      -3.317  -0.285   0.732  0.00  0.00    -0.385 OA
HETATM   33  H   UNK N   1      -2.420   0.083   0.699  0.00  0.00     0.210 HD
ENDBRANCH  25  32
ENDBRANCH  20  25
ENDBRANCH   1  20
TORSDOF 12
