REMARK  2 active torsions:
REMARK  status: ('A' for Active; 'I' for Inactive)
REMARK    1  A    between atoms: C_9  and  C_3 
REMARK    2  A    between atoms: C_18  and  C_19 
ROOT
HETATM    1  C   UNK N   1       1.610   0.330   0.270  0.00  0.00     0.134 C 
HETATM    2  C   UNK N   1       2.768  -0.611  -0.069  0.00  0.00     0.053 A 
HETATM    3  C   UNK N   1       2.578  -1.999   0.034  0.00  0.00     0.031 A 
HETATM    4  C   UNK N   1       3.665  -2.868  -0.151  0.00  0.00     0.051 A 
HETATM    5  C   UNK N   1       3.478  -4.252  -0.001  0.00  0.00     0.060 A 
HETATM    6  C   UNK N   1       2.213  -4.758   0.325  0.00  0.00     0.119 A 
HETATM    7  C   UNK N   1       1.125  -3.892   0.463  0.00  0.00     0.072 A 
HETATM    8  C   UNK N   1       1.305  -2.517   0.307  0.00  0.00     0.044 A 
HETATM    9  N   UNK N   1       0.193  -1.645   0.336  0.00  0.00    -0.379 N 
HETATM   10  C   UNK N   1       0.301  -0.320  -0.245  0.00  0.00     0.132 C 
HETATM   11  F   UNK N   1       2.036  -6.092   0.478  0.00  0.00    -0.206 F 
HETATM   12  C   UNK N   1       4.908  -2.322  -0.488  0.00  0.00     0.271 A 
HETATM   13  O   UNK N   1       5.877  -3.040  -0.672  0.00  0.00    -0.266 OA
HETATM   14  N   UNK N   1       5.032  -0.962  -0.623  0.00  0.00    -0.266 N 
HETATM   15  N   UNK N   1       4.000  -0.140  -0.410  0.00  0.00    -0.300 N 
ATOM     16  HN  UNK N   1       4.138   0.866  -0.506  1.00  0.00     0.186 HD
HETATM   17  H   UNK N   1      -0.652  -1.936   0.748  0.00  0.00     0.160 HD
HETATM   18  H   UNK N   1       5.902  -0.583  -0.883  0.00  0.00     0.190 HD
ENDROOT
BRANCH   1  19
HETATM   19  C   UNK N   1       1.878   1.779  -0.086  0.00  0.00     0.111 A 
HETATM   20  N   UNK N   1       2.863   2.533   0.439  0.00  0.00    -0.283 N 
HETATM   21  C   UNK N   1       3.862   2.146   1.422  0.00  0.00     0.179 C 
HETATM   22  N   UNK N   1       2.772   3.743  -0.075  0.00  0.00    -0.293 N 
HETATM   23  C   UNK N   1       1.721   3.731  -0.922  0.00  0.00     0.199 A 
ATOM     24  HN  UNK N   1       3.379   4.537   0.129  1.00  0.00     0.188 HD
HETATM   25  N   UNK N   1       1.141   2.507  -0.948  0.00  0.00    -0.339 N 
ATOM     26  HN  UNK N   1       0.334   2.206  -1.493  1.00  0.00     0.168 HD
ENDBRANCH   1  19
BRANCH  10  27
HETATM   27  C   UNK N   1      -1.029   0.369  -0.087  0.00  0.00    -0.034 A 
HETATM   28  C   UNK N   1      -2.147  -0.237  -0.681  0.00  0.00     0.012 A 
HETATM   29  C   UNK N   1      -3.413   0.338  -0.572  0.00  0.00     0.043 A 
HETATM   30  C   UNK N   1      -3.575   1.531   0.131  0.00  0.00     0.116 A 
HETATM   31  C   UNK N   1      -2.469   2.146   0.730  0.00  0.00     0.043 A 
HETATM   32  F   UNK N   1      -4.805   2.089   0.232  0.00  0.00    -0.206 F 
HETATM   33  C   UNK N   1      -1.198   1.565   0.627  0.00  0.00     0.012 A 
ENDBRANCH  10  27
TORSDOF 2
