REMARK  6 active torsions:
REMARK  status: ('A' for Active; 'I' for Inactive)
REMARK    1  A    between atoms: C_3  and  C_23 
REMARK    2  A    between atoms: N_11  and  C_12 
REMARK    3  A    between atoms: C_12  and  C_13 
REMARK    4  A    between atoms: C_16  and  S_19 
REMARK    5  A    between atoms: C_23  and  C_24 
REMARK    6  A    between atoms: C_24  and  O_26 
ROOT
HETATM    1  C   UNK N   1      -1.743   0.228  -0.619  0.00  0.00     0.069 C 
HETATM    2  C   UNK N   1      -0.293   0.090  -0.291  0.00  0.00     0.017 A 
HETATM    3  C   UNK N   1       0.601   1.149  -0.123  0.00  0.00    -0.012 A 
HETATM    4  C   UNK N   1       1.824   0.565   0.175  0.00  0.00     0.017 A 
HETATM    5  C   UNK N   1       3.078   1.102   0.454  0.00  0.00     0.017 A 
HETATM    6  C   UNK N   1       4.128   0.210   0.728  0.00  0.00     0.018 A 
HETATM    7  C   UNK N   1       3.885  -1.179   0.717  0.00  0.00     0.090 A 
HETATM    8  N   UNK N   1       2.637  -1.660   0.440  0.00  0.00    -0.351 N 
ATOM      9  HN  UNK N   1       2.463  -2.665   0.436  1.00  0.00     0.166 HD
HETATM   10  C   UNK N   1       1.630  -0.789   0.171  0.00  0.00     0.118 A 
HETATM   11  N   UNK N   1       0.340  -1.096  -0.116  0.00  0.00    -0.332 N 
ENDROOT
BRANCH  11  12
HETATM   12  C   UNK N   1      -0.306  -2.418  -0.217  0.00  0.00     0.169 C 
BRANCH  12  13
HETATM   13  C   UNK N   1       0.687  -3.530  -0.280  0.00  0.00    -0.040 A 
HETATM   14  C   UNK N   1       1.399  -3.756  -1.461  0.00  0.00     0.010 A 
HETATM   15  C   UNK N   1       2.443  -4.682  -1.487  0.00  0.00     0.024 A 
HETATM   16  C   UNK N   1       2.799  -5.396  -0.332  0.00  0.00     0.058 A 
HETATM   17  C   UNK N   1       2.059  -5.155   0.868  0.00  0.00     0.024 A 
HETATM   18  C   UNK N   1       1.007  -4.239   0.880  0.00  0.00     0.010 A 
BRANCH  16  19
HETATM   19  S   UNK N   1       4.325  -6.434  -0.421  0.00  0.00     0.171 S 
HETATM   20  O   UNK N   1       4.456  -7.236   0.881  0.00  0.00    -0.223 OA
HETATM   21  O   UNK N   1       4.662  -5.290   0.551  0.00  0.00    -0.223 OA
HETATM   22  C   UNK N   1       2.853  -7.502  -0.252  0.00  0.00     0.167 C 
ENDBRANCH  16  19
ENDBRANCH  12  13
ENDBRANCH  11  12
BRANCH   3  23
HETATM   23  C   UNK N   1       0.240   2.608  -0.244  0.00  0.00     0.151 C 
BRANCH  23  24
HETATM   24  C   UNK N   1       1.389   3.558  -0.111  0.00  0.00     0.143 C 
HETATM   25  O   UNK N   1       1.425   4.339   0.825  0.00  0.00    -0.650 OA
BRANCH  24  26
HETATM   26  O   UNK N   1       2.364   3.580  -1.040  0.00  0.00    -0.776 OA
HETATM   27  H   UNK N   1       2.715   3.000  -1.686  0.00  0.00     0.167 HD
ENDBRANCH  24  26
ENDBRANCH  23  24
ENDBRANCH   3  23
TORSDOF 6
