REMARK  4 active torsions:
REMARK  status: ('A' for Active; 'I' for Inactive)
REMARK       I    between atoms: N_2  and  C_3 
REMARK    1  A    between atoms: C_3  and  C_5 
REMARK    2  A    between atoms: C_8  and  C_12 
REMARK    3  A    between atoms: C_20  and  C_24 
REMARK    4  A    between atoms: C_24  and  C_25 
ROOT
HETATM    1  C   UNK N   1      -3.220  -2.894  -0.243  0.00  0.00     0.075 A 
HETATM    2  C   UNK N   1      -4.608  -3.084  -0.452  0.00  0.00     0.138 A 
HETATM    3  N   UNK N   1      -5.450  -2.003  -0.424  0.00  0.00    -0.198 N 
ATOM      4  HN  UNK N   1      -6.450  -2.113  -0.595  1.00  0.00     0.183 HD
HETATM    5  C   UNK N   1      -4.919  -0.779  -0.164  0.00  0.00     0.703 A 
HETATM    6  N   UNK N   1      -5.595   0.379  -0.054  0.00  0.00    -0.198 N 
ATOM      7  HN  UNK N   1      -6.594   0.533  -0.190  1.00  0.00     0.183 HD
HETATM    8  C   UNK N   1      -4.646   1.301   0.279  0.00  0.00     0.134 A 
HETATM    9  C   UNK N   1      -3.412   0.659   0.354  0.00  0.00     0.072 A 
HETATM   10  N   UNK N   1      -3.618  -0.632   0.059  0.00  0.00    -0.088 N 
HETATM   11  N   UNK N   1      -2.767  -1.637   0.011  0.00  0.00    -0.278 N 
ATOM     12  HN  UNK N   1      -1.772  -1.473   0.163  1.00  0.00     0.188 HD
ENDROOT
BRANCH   1  13
HETATM   13  C   UNK N   1      -2.227  -3.978  -0.265  0.00  0.00    -0.004 A 
HETATM   14  C   UNK N   1      -2.552  -5.341  -0.211  0.00  0.00     0.015 A 
HETATM   15  C   UNK N   1      -1.520  -6.297  -0.165  0.00  0.00     0.021 A 
HETATM   16  C   UNK N   1      -0.166  -5.896  -0.197  0.00  0.00     0.070 A 
HETATM   17  C   UNK N   1       0.134  -4.526  -0.291  0.00  0.00     0.133 A 
HETATM   18  C   UNK N   1      -0.886  -3.597  -0.309  0.00  0.00     0.057 A 
HETATM   19  F   UNK N   1       1.410  -4.073  -0.349  0.00  0.00    -0.205 F 
BRANCH  16  20
HETATM   20  C   UNK N   1       0.921  -6.905  -0.117  0.00  0.00     0.254 C 
HETATM   21  N   UNK N   1       2.220  -6.509  -0.145  0.00  0.00    -0.361 N 
HETATM   22  C   UNK N   1       3.316  -7.436  -0.046  0.00  0.00     0.149 C 
HETATM   23  H   UNK N   1       2.419  -5.549  -0.236  0.00  0.00     0.162 HD
HETATM   24  O   UNK N   1       0.645  -8.091  -0.004  0.00  0.00    -0.268 OA
ENDBRANCH  16  20
ENDBRANCH   1  13
BRANCH   9  25
HETATM   25  C   UNK N   1      -2.116   1.327   0.777  0.00  0.00     0.100 C 
BRANCH  25  26
HETATM   26  C   UNK N   1      -0.810   0.570   0.724  0.00  0.00    -0.051 A 
HETATM   27  C   UNK N   1      -0.617  -0.634   1.423  0.00  0.00     0.010 A 
HETATM   28  C   UNK N   1       0.620  -1.292   1.381  0.00  0.00     0.031 A 
HETATM   29  C   UNK N   1       1.688  -0.729   0.678  0.00  0.00     0.042 A 
HETATM   30  C   UNK N   1       1.516   0.505   0.019  0.00  0.00    -0.009 A 
HETATM   31  N   UNK N   1       2.896  -1.357   0.643  0.00  0.00    -0.365 N 
HETATM   32  C   UNK N   1       0.271   1.143   0.039  0.00  0.00     0.021 A 
HETATM   33  C   UNK N   1       2.599   1.080  -0.646  0.00  0.00     0.015 A 
HETATM   34  C   UNK N   1       3.831   0.422  -0.659  0.00  0.00     0.018 A 
HETATM   35  C   UNK N   1       3.959  -0.811  -0.011  0.00  0.00     0.088 A 
ATOM     36  HN  UNK N   1       3.006  -2.254   1.115  1.00  0.00     0.165 HD
ENDBRANCH  25  26
ENDBRANCH   9  25
TORSDOF 4
