REMARK  4 active torsions:
REMARK  status: ('A' for Active; 'I' for Inactive)
REMARK    1  A    between atoms: C_5  and  C_8 
REMARK    2  A    between atoms: C_8  and  C_10 
REMARK    3  A    between atoms: C_14  and  N_17 
REMARK       I    between atoms: N_17  and  C_18 
REMARK    4  A    between atoms: C_18  and  C_20 
ROOT
HETATM    1  C   UNK N   1       3.130  -7.005   0.095  0.00  0.00     0.080 A 
HETATM    2  C   UNK N   1       4.204  -6.122  -0.072  0.00  0.00     0.033 A 
HETATM    3  C   UNK N   1       5.500  -6.638  -0.223  0.00  0.00     0.006 A 
HETATM    4  C   UNK N   1       5.715  -8.023  -0.178  0.00  0.00     0.049 A 
HETATM    5  C   UNK N   1       4.612  -8.868  -0.004  0.00  0.00     0.108 A 
HETATM    6  N   UNK N   1       3.374  -8.336   0.112  0.00  0.00    -0.339 N 
ATOM      7  HN  UNK N   1       2.583  -8.971   0.218  1.00  0.00     0.167 HD
ENDROOT
BRANCH   5   8
HETATM    8  N   UNK N   1       4.711 -10.274   0.086  0.00  0.00    -0.309 N 
HETATM    9  C   UNK N   1       5.790 -11.089   0.070  0.00  0.00     0.263 C 
HETATM   10  O   UNK N   1       6.920 -10.634  -0.033  0.00  0.00    -0.267 OA
HETATM   11  H   UNK N   1       3.848 -10.739   0.175  0.00  0.00     0.170 HD
BRANCH   9  12
HETATM   12  C   UNK N   1       5.547 -12.562   0.148  0.00  0.00     0.109 A 
HETATM   13  C   UNK N   1       6.600 -13.494   0.015  0.00  0.00     0.138 A 
HETATM   14  C   UNK N   1       6.330 -14.867   0.051  0.00  0.00     0.085 A 
HETATM   15  F   UNK N   1       7.879 -13.084  -0.168  0.00  0.00    -0.205 F 
HETATM   16  C   UNK N   1       5.024 -15.329   0.226  0.00  0.00     0.122 A 
HETATM   17  C   UNK N   1       3.981 -14.423   0.377  0.00  0.00     0.085 A 
HETATM   18  F   UNK N   1       4.765 -16.657   0.242  0.00  0.00    -0.206 F 
HETATM   19  C   UNK N   1       4.227 -13.054   0.342  0.00  0.00     0.138 A 
HETATM   20  F   UNK N   1       3.169 -12.218   0.497  0.00  0.00    -0.205 F 
ENDBRANCH   9  12
ENDBRANCH   5   8
BRANCH   1  21
HETATM   21  C   UNK N   1       1.729  -6.567   0.316  0.00  0.00     0.180 C 
HETATM   22  O   UNK N   1       0.852  -7.417   0.322  0.00  0.00    -0.290 OA
BRANCH  21  23
HETATM   23  C   UNK N   1       1.325  -5.157   0.639  0.00  0.00     0.065 C 
HETATM   24  C   UNK N   1       2.138  -4.409   1.694  0.00  0.00     0.043 C 
HETATM   25  C   UNK N   1       3.177  -3.516   1.017  0.00  0.00     0.272 C 
HETATM   26  N   UNK N   1       2.540  -2.649   0.024  0.00  0.00     0.084 N 
HETATM   27  C   UNK N   1       3.589  -1.840  -0.565  0.00  0.00     0.309 C 
HETATM   28  C   UNK N   1       1.988  -3.470  -1.052  0.00  0.00     0.272 C 
HETATM   29  C   UNK N   1       0.834  -4.309  -0.523  0.00  0.00     0.043 C 
ENDBRANCH  21  23
ENDBRANCH   1  21
TORSDOF 4
