REMARK  8 active torsions:
REMARK  status: ('A' for Active; 'I' for Inactive)
REMARK    1  A    between atoms: C_13  and  C_10 
REMARK    2  A    between atoms: N_35  and  C_10 
REMARK    3  A    between atoms: O_37  and  C_13 
REMARK    4  A    between atoms: O_40  and  C_18 
REMARK    5  A    between atoms: O_37  and  C_19 
REMARK    6  A    between atoms: O_40  and  C_23 
REMARK    7  A    between atoms: N_33  and  C_25 
REMARK    8  A    between atoms: N_33  and  C_27 
ROOT
HETATM    1  C   UNK N   1      -1.828  -3.416   0.106  0.00  0.00     0.067 A 
HETATM    2  C   UNK N   1       0.554  -3.332  -0.187  0.00  0.00     0.074 A 
HETATM    3  C   UNK N   1      -3.147  -0.161   0.913  0.00  0.00     0.182 A 
HETATM    4  C   UNK N   1      -0.635  -4.059  -0.206  0.00  0.00     0.073 A 
HETATM    5  C   UNK N   1      -1.866  -2.064   0.380  0.00  0.00     0.052 A 
HETATM    6  C   UNK N   1       0.556  -1.946   0.073  0.00  0.00     0.088 A 
HETATM    7  C   UNK N   1      -0.688  -1.291   0.324  0.00  0.00     0.068 A 
HETATM    8  C   UNK N   1      -0.820   0.105   0.516  0.00  0.00     0.122 A 
HETATM    9  N   UNK N   1      -3.060  -1.488   0.672  0.00  0.00    -0.351 N 
ATOM     10  HN  UNK N   1      -3.901  -2.063   0.710  1.00  0.00     0.166 HD
HETATM   11  N   UNK N   1      -2.044   0.616   0.825  0.00  0.00    -0.338 N 
ATOM     12  HN  UNK N   1      -2.132   1.618   0.995  1.00  0.00     0.168 HD
ENDROOT
BRANCH   8  13
HETATM   13  N   UNK N   1       0.296   0.973   0.379  0.00  0.00    -0.338 N 
HETATM   14  H   UNK N   1       1.184   0.548   0.376  0.00  0.00     0.167 HD
BRANCH  13  15
HETATM   15  C   UNK N   1       0.272   2.397   0.245  0.00  0.00     0.092 A 
HETATM   16  C   UNK N   1       1.444   3.129   0.539  0.00  0.00     0.063 A 
HETATM   17  C   UNK N   1       1.453   4.536   0.437  0.00  0.00     0.029 A 
HETATM   18 Cl   UNK N   1       2.909   2.302   1.042  0.00  0.00    -0.082 Cl
HETATM   19  C   UNK N   1       0.302   5.228   0.029  0.00  0.00     0.041 A 
HETATM   20  C   UNK N   1      -0.825   4.478  -0.283  0.00  0.00     0.107 A 
HETATM   21  C   UNK N   1      -0.854   3.138  -0.193  0.00  0.00     0.133 A 
HETATM   22  O   UNK N   1      -2.006   4.922  -0.710  0.00  0.00    -0.323 OA
HETATM   23  O   UNK N   1      -2.056   2.717  -0.587  0.00  0.00    -0.321 OA
HETATM   24  C   UNK N   1      -2.840   3.824  -0.923  0.00  0.00     0.352 A 
ENDBRANCH  13  15
ENDBRANCH   8  13
BRANCH   6  25
HETATM   25  O   UNK N   1       1.720  -1.236   0.086  0.00  0.00    -0.345 OA
BRANCH  25  26
HETATM   26  C   UNK N   1       3.032  -1.705   0.135  0.00  0.00     0.133 C 
HETATM   27  C   UNK N   1       3.240  -3.155   0.612  0.00  0.00     0.058 C 
HETATM   28  C   UNK N   1       4.668  -3.632   0.317  0.00  0.00     0.170 C 
HETATM   29  O   UNK N   1       5.527  -2.533   0.147  0.00  0.00    -0.391 OA
HETATM   30  C   UNK N   1       5.214  -1.991  -1.115  0.00  0.00     0.170 C 
HETATM   31  C   UNK N   1       3.800  -1.378  -1.146  0.00  0.00     0.058 C 
ENDBRANCH  25  26
ENDBRANCH   6  25
BRANCH   4  32
HETATM   32  O   UNK N   1      -0.632  -5.359  -0.584  0.00  0.00    -0.349 OA
BRANCH  32  33
HETATM   33  C   UNK N   1      -1.478  -5.806  -1.588  0.00  0.00     0.206 C 
BRANCH  33  34
HETATM   34  C   UNK N   1      -2.742  -6.480  -1.057  0.00  0.00     0.299 C 
BRANCH  34  35
HETATM   35  N   UNK N   1      -3.516  -5.529  -0.274  0.00  0.00     0.093 N 
HETATM   36  C   UNK N   1      -4.101  -6.152   0.916  0.00  0.00     0.302 C 
HETATM   37  C   UNK N   1      -5.504  -6.680   0.653  0.00  0.00     0.302 C 
HETATM   38  N   UNK N   1      -6.323  -5.593   0.142  0.00  0.00     0.087 N 
HETATM   39  C   UNK N   1      -7.676  -6.095   0.004  0.00  0.00     0.310 C 
HETATM   40  C   UNK N   1      -5.828  -5.282  -1.191  0.00  0.00     0.302 C 
HETATM   41  C   UNK N   1      -4.423  -4.695  -1.084  0.00  0.00     0.302 C 
ENDBRANCH  34  35
ENDBRANCH  33  34
ENDBRANCH  32  33
ENDBRANCH   4  32
TORSDOF 8
