REMARK  6 active torsions:
REMARK  status: ('A' for Active; 'I' for Inactive)
REMARK    1  A    between atoms: C_5  and  O_11 
REMARK    2  A    between atoms: C_8  and  O_10 
REMARK    3  A    between atoms: O_11  and  C_12 
REMARK    4  A    between atoms: C_14  and  C_12 
REMARK    5  A    between atoms: C_14  and  C_15 
REMARK    6  A    between atoms: C_14  and  C_17 
ROOT
HETATM    1  C   UNK N   1       4.774  -1.575   0.097  0.00  0.00     0.183 C 
HETATM    2  O   UNK N   1       4.856  -1.448  -1.290  0.00  0.00    -0.400 OA
HETATM    3  H   UNK N   1       4.961  -1.453  -2.255  0.00  0.00     0.209 HD
ENDROOT
BRANCH   1   4
HETATM    4  C   UNK N   1       3.496  -2.302   0.504  0.00  0.00     0.142 C 
BRANCH   4   5
HETATM    5  C   UNK N   1       2.226  -1.535   0.270  0.00  0.00     0.270 C 
HETATM    6  O   UNK N   1       1.400  -1.491   1.163  0.00  0.00    -0.264 OA
BRANCH   5   7
HETATM    7  O   UNK N   1       2.011  -0.893  -0.913  0.00  0.00    -0.315 OA
BRANCH   7   8
HETATM    8  C   UNK N   1       0.964  -0.018  -1.155  0.00  0.00     0.136 C 
HETATM    9  C   UNK N   1      -0.440  -0.661  -1.048  0.00  0.00     0.068 C 
HETATM   10  C   UNK N   1      -1.421   0.141  -0.175  0.00  0.00     0.228 C 
HETATM   11  N   UNK N   1      -1.246   1.560  -0.471  0.00  0.00     0.096 N 
HETATM   12  C   UNK N   1      -1.046  -0.043   1.292  0.00  0.00     0.069 C 
HETATM   13  C   UNK N   1      -2.382   2.312   0.053  0.00  0.00     0.310 C 
HETATM   14  C   UNK N   1      -0.037   1.886   0.284  0.00  0.00     0.254 C 
HETATM   15  C   UNK N   1       1.175   1.371  -0.508  0.00  0.00     0.071 C 
HETATM   16  C   UNK N   1      -0.124   1.123   1.603  0.00  0.00     0.153 C 
BRANCH  16  17
HETATM   17  O   UNK N   1      -0.728   1.925   2.572  0.00  0.00    -0.393 OA
HETATM   18  H   UNK N   1      -0.455   2.567   3.246  0.00  0.00     0.210 HD
ENDBRANCH  16  17
ENDBRANCH   7   8
ENDBRANCH   5   7
ENDBRANCH   4   5
BRANCH   4  19
HETATM   19  C   UNK N   1       3.452  -3.784   0.244  0.00  0.00    -0.043 A 
HETATM   20  C   UNK N   1       4.398  -4.611   0.865  0.00  0.00     0.008 A 
HETATM   21  C   UNK N   1       4.347  -5.997   0.693  0.00  0.00     0.001 A 
HETATM   22  C   UNK N   1       3.346  -6.567  -0.098  0.00  0.00     0.000 A 
HETATM   23  C   UNK N   1       2.397  -5.749  -0.720  0.00  0.00     0.001 A 
HETATM   24  C   UNK N   1       2.446  -4.362  -0.547  0.00  0.00     0.008 A 
ENDBRANCH   4  19
ENDBRANCH   1   4
TORSDOF 6
