MODEL 1
REMARK VINA RESULT:      -5.3      0.000      0.000
REMARK  8 active torsions:
REMARK  status: ('A' for Active; 'I' for Inactive)
REMARK    1  A    between atoms: N_2  and  C_9 
REMARK    2  A    between atoms: N_2  and  C_11 
REMARK    3  A    between atoms: N_2  and  C_12 
REMARK    4  A    between atoms: N_3  and  C_8 
REMARK    5  A    between atoms: N_3  and  C_13 
REMARK    6  A    between atoms: C_6  and  C_7 
REMARK    7  A    between atoms: C_6  and  C_8 
REMARK    8  A    between atoms: C_7  and  C_9 
ROOT
HETATM    1 Cl   UNK N   1      26.730  30.694  -3.122  0.00  0.00    -0.084 Cl
HETATM    2  N   UNK N   1      28.054  28.293  -7.438  0.00  0.00    -0.365 N 
ATOM      3  HN  UNK N   1      28.683  29.076  -7.617  1.00  0.00     0.165 HD
HETATM    4  C   UNK N   1      26.349  26.163  -6.957  0.00  0.00     0.042 A 
HETATM    5  C   UNK N   1      26.411  27.226  -6.047  0.00  0.00     0.017 A 
HETATM    6  C   UNK N   1      27.155  26.181  -8.098  0.00  0.00     0.047 A 
HETATM    7  C   UNK N   1      27.292  28.298  -6.313  0.00  0.00     0.046 A 
HETATM    8  C   UNK N   1      25.647  27.229  -4.873  0.00  0.00     0.018 A 
HETATM    9  C   UNK N   1      28.000  27.265  -8.329  0.00  0.00     0.090 A 
HETATM   10  C   UNK N   1      27.388  29.358  -5.408  0.00  0.00     0.054 A 
HETATM   11  C   UNK N   1      25.748  28.294  -3.974  0.00  0.00     0.025 A 
HETATM   12  C   UNK N   1      26.616  29.357  -4.243  0.00  0.00     0.036 A 
ENDROOT
BRANCH   4  13
HETATM   13  N   UNK N   1      25.563  25.029  -6.679  0.00  0.00    -0.385 N 
HETATM   14  H   UNK N   1      24.598  25.105  -6.498  0.00  0.00     0.160 HD
BRANCH  13  15
HETATM   15  C   UNK N   1      26.228  23.759  -6.671  0.00  0.00     0.077 C 
HETATM   16  C   UNK N   1      25.336  22.586  -7.038  0.00  0.00     0.032 C 
BRANCH  15  17
HETATM   17  C   UNK N   1      27.267  23.634  -5.558  0.00  0.00     0.026 C 
BRANCH  17  18
HETATM   18  C   UNK N   1      26.748  23.937  -4.167  0.00  0.00     0.032 C 
BRANCH  18  19
HETATM   19  C   UNK N   1      27.858  24.048  -3.113  0.00  0.00     0.272 C 
BRANCH  19  20
HETATM   20  N   UNK N   1      29.186  23.782  -3.684  0.00  0.00     0.087 N 
BRANCH  20  21
HETATM   21  C   UNK N   1      29.737  22.557  -3.088  0.00  0.00     0.268 C 
HETATM   22  C   UNK N   1      30.195  21.594  -4.165  0.00  0.00     0.037 C 
ENDBRANCH  20  21
BRANCH  20  23
HETATM   23  C   UNK N   1      29.999  24.984  -3.441  0.00  0.00     0.268 C 
HETATM   24  C   UNK N   1      29.532  26.250  -4.149  0.00  0.00     0.037 C 
ENDBRANCH  20  23
ENDBRANCH  19  20
ENDBRANCH  18  19
ENDBRANCH  17  18
ENDBRANCH  15  17
ENDBRANCH  13  15
ENDBRANCH   4  13
TORSDOF 8
ENDMDL
MODEL 2
REMARK VINA RESULT:      -5.2     15.294     17.423
REMARK  8 active torsions:
REMARK  status: ('A' for Active; 'I' for Inactive)
REMARK    1  A    between atoms: N_2  and  C_9 
REMARK    2  A    between atoms: N_2  and  C_11 
REMARK    3  A    between atoms: N_2  and  C_12 
REMARK    4  A    between atoms: N_3  and  C_8 
REMARK    5  A    between atoms: N_3  and  C_13 
REMARK    6  A    between atoms: C_6  and  C_7 
REMARK    7  A    between atoms: C_6  and  C_8 
REMARK    8  A    between atoms: C_7  and  C_9 
ROOT
HETATM    1 Cl   UNK N   1      21.167  20.176   1.668  0.00  0.00    -0.084 Cl
HETATM    2  N   UNK N   1      19.401  15.652   3.271  0.00  0.00    -0.365 N 
ATOM      3  HN  UNK N   1      19.080  15.499   2.315  1.00  0.00     0.165 HD
HETATM    4  C   UNK N   1      20.269  16.061   5.869  0.00  0.00     0.042 A 
HETATM    5  C   UNK N   1      20.479  17.050   4.900  0.00  0.00     0.017 A 
HETATM    6  C   UNK N   1      19.631  14.870   5.516  0.00  0.00     0.047 A 
HETATM    7  C   UNK N   1      20.030  16.816   3.581  0.00  0.00     0.046 A 
HETATM    8  C   UNK N   1      21.148  18.243   5.205  0.00  0.00     0.018 A 
HETATM    9  C   UNK N   1      19.191  14.685   4.206  0.00  0.00     0.090 A 
HETATM   10  C   UNK N   1      20.249  17.778   2.593  0.00  0.00     0.054 A 
HETATM   11  C   UNK N   1      21.361  19.200   4.210  0.00  0.00     0.025 A 
HETATM   12  C   UNK N   1      20.910  18.968   2.907  0.00  0.00     0.036 A 
ENDROOT
BRANCH   4  13
HETATM   13  N   UNK N   1      20.791  16.211   7.168  0.00  0.00    -0.385 N 
HETATM   14  H   UNK N   1      21.760  16.178   7.340  0.00  0.00     0.160 HD
BRANCH  13  15
HETATM   15  C   UNK N   1      19.849  16.415   8.231  0.00  0.00     0.077 C 
HETATM   16  C   UNK N   1      19.713  17.862   8.674  0.00  0.00     0.032 C 
BRANCH  15  17
HETATM   17  C   UNK N   1      19.843  15.279   9.251  0.00  0.00     0.026 C 
BRANCH  17  18
HETATM   18  C   UNK N   1      21.129  14.479   9.321  0.00  0.00     0.032 C 
BRANCH  18  19
HETATM   19  C   UNK N   1      20.957  13.105   9.981  0.00  0.00     0.272 C 
BRANCH  19  20
HETATM   20  N   UNK N   1      22.086  12.211   9.690  0.00  0.00     0.087 N 
BRANCH  20  21
HETATM   21  C   UNK N   1      23.263  12.646  10.455  0.00  0.00     0.268 C 
HETATM   22  C   UNK N   1      23.323  11.942  11.797  0.00  0.00     0.037 C 
ENDBRANCH  20  21
BRANCH  20  23
HETATM   23  C   UNK N   1      22.279  12.232   8.232  0.00  0.00     0.268 C 
HETATM   24  C   UNK N   1      23.177  11.136   7.670  0.00  0.00     0.037 C 
ENDBRANCH  20  23
ENDBRANCH  19  20
ENDBRANCH  18  19
ENDBRANCH  17  18
ENDBRANCH  15  17
ENDBRANCH  13  15
ENDBRANCH   4  13
TORSDOF 8
ENDMDL
MODEL 3
REMARK VINA RESULT:      -5.1     11.473     13.451
REMARK  8 active torsions:
REMARK  status: ('A' for Active; 'I' for Inactive)
REMARK    1  A    between atoms: N_2  and  C_9 
REMARK    2  A    between atoms: N_2  and  C_11 
REMARK    3  A    between atoms: N_2  and  C_12 
REMARK    4  A    between atoms: N_3  and  C_8 
REMARK    5  A    between atoms: N_3  and  C_13 
REMARK    6  A    between atoms: C_6  and  C_7 
REMARK    7  A    between atoms: C_6  and  C_8 
REMARK    8  A    between atoms: C_7  and  C_9 
ROOT
HETATM    1 Cl   UNK N   1      20.606  21.184   1.238  0.00  0.00    -0.084 Cl
HETATM    2  N   UNK N   1      20.477  17.293   4.554  0.00  0.00    -0.365 N 
ATOM      3  HN  UNK N   1      19.496  17.180   4.301  1.00  0.00     0.165 HD
HETATM    4  C   UNK N   1      23.142  17.596   5.248  0.00  0.00     0.042 A 
HETATM    5  C   UNK N   1      22.562  18.462   4.312  0.00  0.00     0.017 A 
HETATM    6  C   UNK N   1      22.373  16.580   5.819  0.00  0.00     0.047 A 
HETATM    7  C   UNK N   1      21.203  18.284   3.972  0.00  0.00     0.046 A 
HETATM    8  C   UNK N   1      23.309  19.470   3.689  0.00  0.00     0.018 A 
HETATM    9  C   UNK N   1      21.031  16.448   5.467  0.00  0.00     0.090 A 
HETATM   10  C   UNK N   1      20.610  19.121   3.024  0.00  0.00     0.054 A 
HETATM   11  C   UNK N   1      22.706  20.304   2.743  0.00  0.00     0.025 A 
HETATM   12  C   UNK N   1      21.359  20.130   2.413  0.00  0.00     0.036 A 
ENDROOT
BRANCH   4  13
HETATM   13  N   UNK N   1      24.518  17.674   5.537  0.00  0.00    -0.385 N 
HETATM   14  H   UNK N   1      24.905  18.459   5.988  0.00  0.00     0.160 HD
BRANCH  13  15
HETATM   15  C   UNK N   1      25.330  16.558   5.148  0.00  0.00     0.077 C 
HETATM   16  C   UNK N   1      25.985  15.829   6.309  0.00  0.00     0.032 C 
BRANCH  15  17
HETATM   17  C   UNK N   1      26.090  16.797   3.845  0.00  0.00     0.026 C 
BRANCH  17  18
HETATM   18  C   UNK N   1      26.728  18.166   3.721  0.00  0.00     0.032 C 
BRANCH  18  19
HETATM   19  C   UNK N   1      28.098  18.264   4.405  0.00  0.00     0.272 C 
BRANCH  19  20
HETATM   20  N   UNK N   1      28.171  19.404   5.329  0.00  0.00     0.087 N 
BRANCH  20  21
HETATM   21  C   UNK N   1      27.995  18.927   6.707  0.00  0.00     0.268 C 
HETATM   22  C   UNK N   1      29.022  17.863   7.043  0.00  0.00     0.037 C 
ENDBRANCH  20  21
BRANCH  20  23
HETATM   23  C   UNK N   1      27.147  20.368   4.895  0.00  0.00     0.268 C 
HETATM   24  C   UNK N   1      26.434  21.120   6.012  0.00  0.00     0.037 C 
ENDBRANCH  20  23
ENDBRANCH  19  20
ENDBRANCH  18  19
ENDBRANCH  17  18
ENDBRANCH  15  17
ENDBRANCH  13  15
ENDBRANCH   4  13
TORSDOF 8
ENDMDL
MODEL 4
REMARK VINA RESULT:      -5.1     13.066     15.636
REMARK  8 active torsions:
REMARK  status: ('A' for Active; 'I' for Inactive)
REMARK    1  A    between atoms: N_2  and  C_9 
REMARK    2  A    between atoms: N_2  and  C_11 
REMARK    3  A    between atoms: N_2  and  C_12 
REMARK    4  A    between atoms: N_3  and  C_8 
REMARK    5  A    between atoms: N_3  and  C_13 
REMARK    6  A    between atoms: C_6  and  C_7 
REMARK    7  A    between atoms: C_6  and  C_8 
REMARK    8  A    between atoms: C_7  and  C_9 
ROOT
HETATM    1 Cl   UNK N   1      26.759  20.119   3.713  0.00  0.00    -0.084 Cl
HETATM    2  N   UNK N   1      27.757  18.836   8.562  0.00  0.00    -0.365 N 
ATOM      3  HN  UNK N   1      26.969  19.428   8.824  1.00  0.00     0.165 HD
HETATM    4  C   UNK N   1      29.899  17.227   7.856  0.00  0.00     0.042 A 
HETATM    5  C   UNK N   1      29.183  17.910   6.864  0.00  0.00     0.017 A 
HETATM    6  C   UNK N   1      29.521  17.355   9.195  0.00  0.00     0.047 A 
HETATM    7  C   UNK N   1      28.093  18.721   7.250  0.00  0.00     0.046 A 
HETATM    8  C   UNK N   1      29.507  17.778   5.508  0.00  0.00     0.018 A 
HETATM    9  C   UNK N   1      28.447  18.177   9.533  0.00  0.00     0.090 A 
HETATM   10  C   UNK N   1      27.350  19.393   6.276  0.00  0.00     0.054 A 
HETATM   11  C   UNK N   1      28.759  18.456   4.541  0.00  0.00     0.025 A 
HETATM   12  C   UNK N   1      27.684  19.262   4.926  0.00  0.00     0.036 A 
ENDROOT
BRANCH   4  13
HETATM   13  N   UNK N   1      30.926  16.329   7.506  0.00  0.00    -0.385 N 
HETATM   14  H   UNK N   1      30.825  15.701   6.755  0.00  0.00     0.160 HD
BRANCH  13  15
HETATM   15  C   UNK N   1      32.124  16.370   8.292  0.00  0.00     0.077 C 
HETATM   16  C   UNK N   1      32.942  17.638   8.115  0.00  0.00     0.032 C 
BRANCH  15  17
HETATM   17  C   UNK N   1      32.807  15.010   8.416  0.00  0.00     0.026 C 
BRANCH  17  18
HETATM   18  C   UNK N   1      32.584  14.077   7.243  0.00  0.00     0.032 C 
BRANCH  18  19
HETATM   19  C   UNK N   1      33.560  14.311   6.083  0.00  0.00     0.272 C 
BRANCH  19  20
HETATM   20  N   UNK N   1      32.920  15.004   4.956  0.00  0.00     0.087 N 
BRANCH  20  21
HETATM   21  C   UNK N   1      32.846  14.096   3.803  0.00  0.00     0.268 C 
HETATM   22  C   UNK N   1      31.473  14.151   3.164  0.00  0.00     0.037 C 
ENDBRANCH  20  21
BRANCH  20  23
HETATM   23  C   UNK N   1      33.705  16.223   4.708  0.00  0.00     0.268 C 
HETATM   24  C   UNK N   1      32.897  17.469   4.364  0.00  0.00     0.037 C 
ENDBRANCH  20  23
ENDBRANCH  19  20
ENDBRANCH  18  19
ENDBRANCH  17  18
ENDBRANCH  15  17
ENDBRANCH  13  15
ENDBRANCH   4  13
TORSDOF 8
ENDMDL
MODEL 5
REMARK VINA RESULT:      -5.0     15.693     18.523
REMARK  8 active torsions:
REMARK  status: ('A' for Active; 'I' for Inactive)
REMARK    1  A    between atoms: N_2  and  C_9 
REMARK    2  A    between atoms: N_2  and  C_11 
REMARK    3  A    between atoms: N_2  and  C_12 
REMARK    4  A    between atoms: N_3  and  C_8 
REMARK    5  A    between atoms: N_3  and  C_13 
REMARK    6  A    between atoms: C_6  and  C_7 
REMARK    7  A    between atoms: C_6  and  C_8 
REMARK    8  A    between atoms: C_7  and  C_9 
ROOT
HETATM    1 Cl   UNK N   1      23.077  11.538  13.068  0.00  0.00    -0.084 Cl
HETATM    2  N   UNK N   1      24.922  13.228   8.608  0.00  0.00    -0.365 N 
ATOM      3  HN  UNK N   1      25.846  12.970   8.954  1.00  0.00     0.165 HD
HETATM    4  C   UNK N   1      22.415  13.934   7.663  0.00  0.00     0.042 A 
HETATM    5  C   UNK N   1      22.548  13.385   8.945  0.00  0.00     0.017 A 
HETATM    6  C   UNK N   1      23.548  14.114   6.866  0.00  0.00     0.047 A 
HETATM    7  C   UNK N   1      23.837  13.030   9.402  0.00  0.00     0.046 A 
HETATM    8  C   UNK N   1      21.433  13.153   9.760  0.00  0.00     0.018 A 
HETATM    9  C   UNK N   1      24.803  13.763   7.361  0.00  0.00     0.090 A 
HETATM   10  C   UNK N   1      23.991  12.459  10.667  0.00  0.00     0.054 A 
HETATM   11  C   UNK N   1      21.598  12.584  11.026  0.00  0.00     0.025 A 
HETATM   12  C   UNK N   1      22.875  12.239  11.478  0.00  0.00     0.036 A 
ENDROOT
BRANCH   4  13
HETATM   13  N   UNK N   1      21.140  14.205   7.131  0.00  0.00    -0.385 N 
HETATM   14  H   UNK N   1      20.505  13.482   6.924  0.00  0.00     0.160 HD
BRANCH  13  15
HETATM   15  C   UNK N   1      20.807  15.581   6.904  0.00  0.00     0.077 C 
HETATM   16  C   UNK N   1      20.374  16.332   8.152  0.00  0.00     0.032 C 
BRANCH  15  17
HETATM   17  C   UNK N   1      20.107  15.816   5.567  0.00  0.00     0.026 C 
BRANCH  17  18
HETATM   18  C   UNK N   1      20.957  15.532   4.345  0.00  0.00     0.032 C 
BRANCH  18  19
HETATM   19  C   UNK N   1      21.348  16.795   3.567  0.00  0.00     0.272 C 
BRANCH  19  20
HETATM   20  N   UNK N   1      20.488  17.938   3.907  0.00  0.00     0.087 N 
BRANCH  20  21
HETATM   21  C   UNK N   1      19.552  18.190   2.803  0.00  0.00     0.268 C 
HETATM   22  C   UNK N   1      20.139  17.724   1.485  0.00  0.00     0.037 C 
ENDBRANCH  20  21
BRANCH  20  23
HETATM   23  C   UNK N   1      21.383  19.068   4.202  0.00  0.00     0.268 C 
HETATM   24  C   UNK N   1      22.857  18.843   3.883  0.00  0.00     0.037 C 
ENDBRANCH  20  23
ENDBRANCH  19  20
ENDBRANCH  18  19
ENDBRANCH  17  18
ENDBRANCH  15  17
ENDBRANCH  13  15
ENDBRANCH   4  13
TORSDOF 8
ENDMDL
MODEL 6
REMARK VINA RESULT:      -4.8      2.465      4.672
REMARK  8 active torsions:
REMARK  status: ('A' for Active; 'I' for Inactive)
REMARK    1  A    between atoms: N_2  and  C_9 
REMARK    2  A    between atoms: N_2  and  C_11 
REMARK    3  A    between atoms: N_2  and  C_12 
REMARK    4  A    between atoms: N_3  and  C_8 
REMARK    5  A    between atoms: N_3  and  C_13 
REMARK    6  A    between atoms: C_6  and  C_7 
REMARK    7  A    between atoms: C_6  and  C_8 
REMARK    8  A    between atoms: C_7  and  C_9 
ROOT
HETATM    1 Cl   UNK N   1      25.563  25.711  -9.300  0.00  0.00    -0.084 Cl
HETATM    2  N   UNK N   1      25.401  27.435  -4.488  0.00  0.00    -0.365 N 
ATOM      3  HN  UNK N   1      24.422  27.150  -4.476  1.00  0.00     0.165 HD
HETATM    4  C   UNK N   1      28.059  28.215  -4.516  0.00  0.00     0.042 A 
HETATM    5  C   UNK N   1      27.489  27.640  -5.659  0.00  0.00     0.017 A 
HETATM    6  C   UNK N   1      27.285  28.382  -3.365  0.00  0.00     0.047 A 
HETATM    7  C   UNK N   1      26.133  27.248  -5.618  0.00  0.00     0.046 A 
HETATM    8  C   UNK N   1      28.242  27.421  -6.819  0.00  0.00     0.018 A 
HETATM    9  C   UNK N   1      25.945  27.994  -3.372  0.00  0.00     0.090 A 
HETATM   10  C   UNK N   1      25.549  26.652  -6.739  0.00  0.00     0.054 A 
HETATM   11  C   UNK N   1      27.649  26.826  -7.936  0.00  0.00     0.025 A 
HETATM   12  C   UNK N   1      26.305  26.444  -7.895  0.00  0.00     0.036 A 
ENDROOT
BRANCH   4  13
HETATM   13  N   UNK N   1      29.432  28.525  -4.480  0.00  0.00    -0.385 N 
HETATM   14  H   UNK N   1      29.912  28.826  -5.285  0.00  0.00     0.160 HD
BRANCH  13  15
HETATM   15  C   UNK N   1      30.101  28.383  -3.220  0.00  0.00     0.077 C 
HETATM   16  C   UNK N   1      30.559  29.696  -2.607  0.00  0.00     0.032 C 
BRANCH  15  17
HETATM   17  C   UNK N   1      30.978  27.136  -3.144  0.00  0.00     0.026 C 
BRANCH  17  18
HETATM   18  C   UNK N   1      30.804  26.164  -4.294  0.00  0.00     0.032 C 
BRANCH  18  19
HETATM   19  C   UNK N   1      30.807  24.694  -3.856  0.00  0.00     0.272 C 
BRANCH  19  20
HETATM   20  N   UNK N   1      29.584  24.337  -3.122  0.00  0.00     0.087 N 
BRANCH  20  21
HETATM   21  C   UNK N   1      29.754  23.014  -2.505  0.00  0.00     0.268 C 
HETATM   22  C   UNK N   1      31.155  22.485  -2.746  0.00  0.00     0.037 C 
ENDBRANCH  20  21
BRANCH  20  23
HETATM   23  C   UNK N   1      28.475  24.409  -4.086  0.00  0.00     0.268 C 
HETATM   24  C   UNK N   1      27.075  24.371  -3.484  0.00  0.00     0.037 C 
ENDBRANCH  20  23
ENDBRANCH  19  20
ENDBRANCH  18  19
ENDBRANCH  17  18
ENDBRANCH  15  17
ENDBRANCH  13  15
ENDBRANCH   4  13
TORSDOF 8
ENDMDL
MODEL 7
REMARK VINA RESULT:      -4.8     12.170     15.202
REMARK  8 active torsions:
REMARK  status: ('A' for Active; 'I' for Inactive)
REMARK    1  A    between atoms: N_2  and  C_9 
REMARK    2  A    between atoms: N_2  and  C_11 
REMARK    3  A    between atoms: N_2  and  C_12 
REMARK    4  A    between atoms: N_3  and  C_8 
REMARK    5  A    between atoms: N_3  and  C_13 
REMARK    6  A    between atoms: C_6  and  C_7 
REMARK    7  A    between atoms: C_6  and  C_8 
REMARK    8  A    between atoms: C_7  and  C_9 
ROOT
HETATM    1 Cl   UNK N   1      24.748  20.611   3.203  0.00  0.00    -0.084 Cl
HETATM    2  N   UNK N   1      27.441  19.682   7.450  0.00  0.00    -0.365 N 
ATOM      3  HN  UNK N   1      26.938  20.461   7.875  1.00  0.00     0.165 HD
HETATM    4  C   UNK N   1      28.811  17.566   6.302  0.00  0.00     0.042 A 
HETATM    5  C   UNK N   1      27.869  18.277   5.548  0.00  0.00     0.017 A 
HETATM    6  C   UNK N   1      29.046  17.923   7.631  0.00  0.00     0.047 A 
HETATM    7  C   UNK N   1      27.181  19.350   6.158  0.00  0.00     0.046 A 
HETATM    8  C   UNK N   1      27.577  17.927   4.224  0.00  0.00     0.018 A 
HETATM    9  C   UNK N   1      28.355  18.997   8.190  0.00  0.00     0.090 A 
HETATM   10  C   UNK N   1      26.220  20.059   5.433  0.00  0.00     0.054 A 
HETATM   11  C   UNK N   1      26.616  18.644   3.506  0.00  0.00     0.025 A 
HETATM   12  C   UNK N   1      25.941  19.709   4.109  0.00  0.00     0.036 A 
ENDROOT
BRANCH   4  13
HETATM   13  N   UNK N   1      29.443  16.427   5.766  0.00  0.00    -0.385 N 
HETATM   14  H   UNK N   1      28.923  15.687   5.375  0.00  0.00     0.160 HD
BRANCH  13  15
HETATM   15  C   UNK N   1      30.875  16.392   5.813  0.00  0.00     0.077 C 
HETATM   16  C   UNK N   1      31.554  17.332   4.831  0.00  0.00     0.032 C 
BRANCH  15  17
HETATM   17  C   UNK N   1      31.432  14.995   6.072  0.00  0.00     0.026 C 
BRANCH  17  18
HETATM   18  C   UNK N   1      32.260  14.863   7.335  0.00  0.00     0.032 C 
BRANCH  18  19
HETATM   19  C   UNK N   1      33.758  15.109   7.111  0.00  0.00     0.272 C 
BRANCH  19  20
HETATM   20  N   UNK N   1      34.387  15.759   8.270  0.00  0.00     0.087 N 
BRANCH  20  21
HETATM   21  C   UNK N   1      34.673  14.750   9.299  0.00  0.00     0.268 C 
HETATM   22  C   UNK N   1      34.319  15.273  10.678  0.00  0.00     0.037 C 
ENDBRANCH  20  21
BRANCH  20  23
HETATM   23  C   UNK N   1      33.467  16.819   8.712  0.00  0.00     0.268 C 
HETATM   24  C   UNK N   1      33.675  18.184   8.064  0.00  0.00     0.037 C 
ENDBRANCH  20  23
ENDBRANCH  19  20
ENDBRANCH  18  19
ENDBRANCH  17  18
ENDBRANCH  15  17
ENDBRANCH  13  15
ENDBRANCH   4  13
TORSDOF 8
ENDMDL
MODEL 8
REMARK VINA RESULT:      -4.8     12.009     15.966
REMARK  8 active torsions:
REMARK  status: ('A' for Active; 'I' for Inactive)
REMARK    1  A    between atoms: N_2  and  C_9 
REMARK    2  A    between atoms: N_2  and  C_11 
REMARK    3  A    between atoms: N_2  and  C_12 
REMARK    4  A    between atoms: N_3  and  C_8 
REMARK    5  A    between atoms: N_3  and  C_13 
REMARK    6  A    between atoms: C_6  and  C_7 
REMARK    7  A    between atoms: C_6  and  C_8 
REMARK    8  A    between atoms: C_7  and  C_9 
ROOT
HETATM    1 Cl   UNK N   1      33.186  14.157   2.733  0.00  0.00    -0.084 Cl
HETATM    2  N   UNK N   1      34.299  17.384   6.540  0.00  0.00    -0.365 N 
ATOM      3  HN  UNK N   1      35.195  17.537   6.077  1.00  0.00     0.165 HD
HETATM    4  C   UNK N   1      31.869  16.974   7.803  0.00  0.00     0.042 A 
HETATM    5  C   UNK N   1      32.162  16.289   6.618  0.00  0.00     0.017 A 
HETATM    6  C   UNK N   1      32.801  17.867   8.336  0.00  0.00     0.047 A 
HETATM    7  C   UNK N   1      33.407  16.518   5.991  0.00  0.00     0.046 A 
HETATM    8  C   UNK N   1      31.240  15.413   6.032  0.00  0.00     0.018 A 
HETATM    9  C   UNK N   1      34.024  18.054   7.693  0.00  0.00     0.090 A 
HETATM   10  C   UNK N   1      33.713  15.863   4.795  0.00  0.00     0.054 A 
HETATM   11  C   UNK N   1      31.555  14.761   4.837  0.00  0.00     0.025 A 
HETATM   12  C   UNK N   1      32.790  14.985   4.221  0.00  0.00     0.036 A 
ENDROOT
BRANCH   4  13
HETATM   13  N   UNK N   1      30.601  16.853   8.404  0.00  0.00    -0.385 N 
HETATM   14  H   UNK N   1      30.299  16.003   8.800  0.00  0.00     0.160 HD
BRANCH  13  15
HETATM   15  C   UNK N   1      29.768  18.020   8.413  0.00  0.00     0.077 C 
HETATM   16  C   UNK N   1      29.298  18.438   9.796  0.00  0.00     0.032 C 
BRANCH  15  17
HETATM   17  C   UNK N   1      28.830  18.097   7.211  0.00  0.00     0.026 C 
BRANCH  17  18
HETATM   18  C   UNK N   1      27.894  16.914   7.057  0.00  0.00     0.032 C 
BRANCH  18  19
HETATM   19  C   UNK N   1      27.351  16.748   5.632  0.00  0.00     0.272 C 
BRANCH  19  20
HETATM   20  N   UNK N   1      27.871  17.778   4.722  0.00  0.00     0.087 N 
BRANCH  20  21
HETATM   21  C   UNK N   1      26.752  18.558   4.178  0.00  0.00     0.268 C 
HETATM   22  C   UNK N   1      27.211  19.945   3.771  0.00  0.00     0.037 C 
ENDBRANCH  20  21
BRANCH  20  23
HETATM   23  C   UNK N   1      28.665  17.078   3.700  0.00  0.00     0.268 C 
HETATM   24  C   UNK N   1      28.143  15.707   3.285  0.00  0.00     0.037 C 
ENDBRANCH  20  23
ENDBRANCH  19  20
ENDBRANCH  18  19
ENDBRANCH  17  18
ENDBRANCH  15  17
ENDBRANCH  13  15
ENDBRANCH   4  13
TORSDOF 8
ENDMDL
MODEL 9
REMARK VINA RESULT:      -4.8     13.112     16.213
REMARK  8 active torsions:
REMARK  status: ('A' for Active; 'I' for Inactive)
REMARK    1  A    between atoms: N_2  and  C_9 
REMARK    2  A    between atoms: N_2  and  C_11 
REMARK    3  A    between atoms: N_2  and  C_12 
REMARK    4  A    between atoms: N_3  and  C_8 
REMARK    5  A    between atoms: N_3  and  C_13 
REMARK    6  A    between atoms: C_6  and  C_7 
REMARK    7  A    between atoms: C_6  and  C_8 
REMARK    8  A    between atoms: C_7  and  C_9 
ROOT
HETATM    1 Cl   UNK N   1      26.064  20.020   4.015  0.00  0.00    -0.084 Cl
HETATM    2  N   UNK N   1      27.879  18.831   8.646  0.00  0.00    -0.365 N 
ATOM      3  HN  UNK N   1      27.069  19.319   9.029  1.00  0.00     0.165 HD
HETATM    4  C   UNK N   1      30.080  17.506   7.612  0.00  0.00     0.042 A 
HETATM    5  C   UNK N   1      29.155  18.102   6.745  0.00  0.00     0.017 A 
HETATM    6  C   UNK N   1      29.881  17.575   8.992  0.00  0.00     0.047 A 
HETATM    7  C   UNK N   1      28.039  18.769   7.298  0.00  0.00     0.046 A 
HETATM    8  C   UNK N   1      29.299  18.022   5.354  0.00  0.00     0.018 A 
HETATM    9  C   UNK N   1      28.773  18.256   9.496  0.00  0.00     0.090 A 
HETATM   10  C   UNK N   1      27.091  19.352   6.453  0.00  0.00     0.054 A 
HETATM   11  C   UNK N   1      28.347  18.610   4.518  0.00  0.00     0.025 A 
HETATM   12  C   UNK N   1      27.246  19.275   5.067  0.00  0.00     0.036 A 
ENDROOT
BRANCH   4  13
HETATM   13  N   UNK N   1      31.149  16.744   7.101  0.00  0.00    -0.385 N 
HETATM   14  H   UNK N   1      31.082  15.767   7.001  0.00  0.00     0.160 HD
BRANCH  13  15
HETATM   15  C   UNK N   1      32.339  17.455   6.734  0.00  0.00     0.077 C 
HETATM   16  C   UNK N   1      33.027  16.916   5.491  0.00  0.00     0.032 C 
BRANCH  15  17
HETATM   17  C   UNK N   1      33.153  17.924   7.937  0.00  0.00     0.026 C 
BRANCH  17  18
HETATM   18  C   UNK N   1      34.410  17.121   8.208  0.00  0.00     0.032 C 
BRANCH  18  19
HETATM   19  C   UNK N   1      34.240  16.079   9.321  0.00  0.00     0.272 C 
BRANCH  19  20
HETATM   20  N   UNK N   1      34.611  14.730   8.872  0.00  0.00     0.087 N 
BRANCH  20  21
HETATM   21  C   UNK N   1      35.346  14.823   7.603  0.00  0.00     0.268 C 
HETATM   22  C   UNK N   1      36.585  13.950   7.634  0.00  0.00     0.037 C 
ENDBRANCH  20  21
BRANCH  20  23
HETATM   23  C   UNK N   1      33.363  13.955   8.785  0.00  0.00     0.268 C 
HETATM   24  C   UNK N   1      32.877  13.645   7.373  0.00  0.00     0.037 C 
ENDBRANCH  20  23
ENDBRANCH  19  20
ENDBRANCH  18  19
ENDBRANCH  17  18
ENDBRANCH  15  17
ENDBRANCH  13  15
ENDBRANCH   4  13
TORSDOF 8
ENDMDL
