MODEL 1
REMARK VINA RESULT:      -4.5      0.000      0.000
REMARK  1 active torsions:
REMARK  status: ('A' for Active; 'I' for Inactive)
REMARK    1  A    between atoms: N_8  and  C_11 
ROOT
HETATM    1  N   UNK N   1      42.190  23.761   2.066  0.00  0.00    -0.346 N 
HETATM    2  N   UNK N   1      41.532  21.636   2.463  0.00  0.00    -0.337 N 
ATOM      3  HN  UNK N   1      40.967  20.788   2.509  1.00  0.00     0.168 HD
HETATM    4  N   UNK N   1      43.597  20.893   3.459  0.00  0.00    -0.337 N 
ATOM      5  HN  UNK N   1      43.271  19.940   3.626  1.00  0.00     0.168 HD
HETATM    6  N   UNK N   1      45.289  22.563   3.586  0.00  0.00    -0.337 N 
ATOM      7  HN  UNK N   1      46.235  22.833   3.857  1.00  0.00     0.168 HD
HETATM    8  C   UNK N   1      43.187  23.077   2.645  0.00  0.00     0.121 A 
HETATM    9  C   UNK N   1      42.791  21.813   2.880  0.00  0.00     0.138 A 
HETATM   10  C   UNK N   1      44.467  23.483   3.000  0.00  0.00     0.131 A 
HETATM   11  C   UNK N   1      41.179  22.852   1.964  0.00  0.00     0.182 A 
HETATM   12  C   UNK N   1      44.862  21.277   3.815  0.00  0.00     0.183 A 
HETATM   13  H   UNK N   1      42.188  24.703   1.780  0.00  0.00     0.167 HD
ENDROOT
BRANCH  10  14
HETATM   14  N   UNK N   1      44.914  24.800   2.769  0.00  0.00    -0.383 N 
HETATM   15  H   UNK N   1      45.876  24.985   2.682  0.00  0.00     0.157 HD
HETATM   16  H   UNK N   1      44.262  25.535   2.694  0.00  0.00     0.157 HD
ENDBRANCH  10  14
TORSDOF 1
ENDMDL
MODEL 2
REMARK VINA RESULT:      -4.4     22.695     23.344
REMARK  1 active torsions:
REMARK  status: ('A' for Active; 'I' for Inactive)
REMARK    1  A    between atoms: N_8  and  C_11 
ROOT
HETATM    1  N   UNK N   1      20.088  17.897   0.319  0.00  0.00    -0.346 N 
HETATM    2  N   UNK N   1      20.233  16.539   2.120  0.00  0.00    -0.337 N 
ATOM      3  HN  UNK N   1      20.227  15.708   2.711  1.00  0.00     0.168 HD
HETATM    4  N   UNK N   1      20.772  18.262   3.717  0.00  0.00    -0.337 N 
ATOM      5  HN  UNK N   1      20.830  17.624   4.511  1.00  0.00     0.168 HD
HETATM    6  N   UNK N   1      20.907  20.454   2.797  0.00  0.00    -0.337 N 
ATOM      7  HN  UNK N   1      21.071  21.452   2.931  1.00  0.00     0.168 HD
HETATM    8  C   UNK N   1      20.391  18.618   1.408  0.00  0.00     0.121 A 
HETATM    9  C   UNK N   1      20.477  17.806   2.478  0.00  0.00     0.138 A 
HETATM   10  C   UNK N   1      20.609  19.981   1.551  0.00  0.00     0.131 A 
HETATM   11  C   UNK N   1      19.995  16.618   0.782  0.00  0.00     0.182 A 
HETATM   12  C   UNK N   1      20.989  19.605   3.875  0.00  0.00     0.183 A 
HETATM   13  H   UNK N   1      19.961  18.217  -0.603  0.00  0.00     0.167 HD
ENDROOT
BRANCH  10  14
HETATM   14  N   UNK N   1      20.527  20.860   0.451  0.00  0.00    -0.383 N 
HETATM   15  H   UNK N   1      19.695  21.357   0.278  0.00  0.00     0.157 HD
HETATM   16  H   UNK N   1      21.303  20.977  -0.144  0.00  0.00     0.157 HD
ENDBRANCH  10  14
TORSDOF 1
ENDMDL
MODEL 3
REMARK VINA RESULT:      -4.3     12.946     14.354
REMARK  1 active torsions:
REMARK  status: ('A' for Active; 'I' for Inactive)
REMARK    1  A    between atoms: N_8  and  C_11 
ROOT
HETATM    1  N   UNK N   1      34.566  13.824  11.801  0.00  0.00    -0.346 N 
HETATM    2  N   UNK N   1      36.126  15.393  12.260  0.00  0.00    -0.337 N 
ATOM      3  HN  UNK N   1      36.909  15.886  12.689  1.00  0.00     0.168 HD
HETATM    4  N   UNK N   1      35.447  16.959  10.558  0.00  0.00    -0.337 N 
ATOM      5  HN  UNK N   1      36.162  17.649  10.789  1.00  0.00     0.168 HD
HETATM    6  N   UNK N   1      33.594  16.245   9.243  0.00  0.00    -0.337 N 
ATOM      7  HN  UNK N   1      32.936  16.427   8.485  1.00  0.00     0.168 HD
HETATM    8  C   UNK N   1      34.423  14.864  10.967  0.00  0.00     0.121 A 
HETATM    9  C   UNK N   1      35.353  15.796  11.244  0.00  0.00     0.138 A 
HETATM   10  C   UNK N   1      33.510  15.075   9.943  0.00  0.00     0.131 A 
HETATM   11  C   UNK N   1      35.622  14.172  12.589  0.00  0.00     0.182 A 
HETATM   12  C   UNK N   1      34.553  17.182   9.545  0.00  0.00     0.183 A 
HETATM   13  H   UNK N   1      34.032  12.998  11.835  0.00  0.00     0.167 HD
ENDROOT
BRANCH  10  14
HETATM   14  N   UNK N   1      32.522  14.120   9.626  0.00  0.00    -0.383 N 
HETATM   15  H   UNK N   1      32.511  13.700   8.737  0.00  0.00     0.157 HD
HETATM   16  H   UNK N   1      31.844  13.873  10.297  0.00  0.00     0.157 HD
ENDBRANCH  10  14
TORSDOF 1
ENDMDL
MODEL 4
REMARK VINA RESULT:      -4.3     22.440     24.107
REMARK  1 active torsions:
REMARK  status: ('A' for Active; 'I' for Inactive)
REMARK    1  A    between atoms: N_8  and  C_11 
ROOT
HETATM    1  N   UNK N   1      21.066  12.730  10.730  0.00  0.00    -0.346 N 
HETATM    2  N   UNK N   1      21.902  13.716   8.876  0.00  0.00    -0.337 N 
ATOM      3  HN  UNK N   1      21.968  14.209   7.986  1.00  0.00     0.168 HD
HETATM    4  N   UNK N   1      24.224  13.307   9.373  0.00  0.00    -0.337 N 
ATOM      5  HN  UNK N   1      24.571  13.759   8.527  1.00  0.00     0.168 HD
HETATM    6  N   UNK N   1      24.607  12.145  11.416  0.00  0.00    -0.337 N 
ATOM      7  HN  UNK N   1      25.263  11.737  12.082  1.00  0.00     0.168 HD
HETATM    8  C   UNK N   1      22.404  12.650  10.737  0.00  0.00     0.121 A 
HETATM    9  C   UNK N   1      22.897  13.238   9.632  0.00  0.00     0.138 A 
HETATM   10  C   UNK N   1      23.265  12.082  11.666  0.00  0.00     0.131 A 
HETATM   11  C   UNK N   1      20.779  13.391   9.574  0.00  0.00     0.182 A 
HETATM   12  C   UNK N   1      25.087  12.752  10.280  0.00  0.00     0.183 A 
HETATM   13  H   UNK N   1      20.436  12.389  11.405  0.00  0.00     0.167 HD
ENDROOT
BRANCH  10  14
HETATM   14  N   UNK N   1      22.782  11.458  12.835  0.00  0.00    -0.383 N 
HETATM   15  H   UNK N   1      22.614  10.489  12.842  0.00  0.00     0.157 HD
HETATM   16  H   UNK N   1      22.613  11.993  13.644  0.00  0.00     0.157 HD
ENDBRANCH  10  14
TORSDOF 1
ENDMDL
MODEL 5
REMARK VINA RESULT:      -4.3     11.910     13.261
REMARK  1 active torsions:
REMARK  status: ('A' for Active; 'I' for Inactive)
REMARK    1  A    between atoms: N_8  and  C_11 
ROOT
HETATM    1  N   UNK N   1      33.074  16.828   7.865  0.00  0.00    -0.346 N 
HETATM    2  N   UNK N   1      34.675  18.304   8.467  0.00  0.00    -0.337 N 
ATOM      3  HN  UNK N   1      35.296  19.113   8.472  1.00  0.00     0.168 HD
HETATM    4  N   UNK N   1      35.369  17.153  10.468  0.00  0.00    -0.337 N 
ATOM      5  HN  UNK N   1      36.085  17.837  10.713  1.00  0.00     0.168 HD
HETATM    6  N   UNK N   1      34.179  15.139  10.910  0.00  0.00    -0.337 N 
ATOM      7  HN  UNK N   1      34.025  14.324  11.506  1.00  0.00     0.168 HD
HETATM    8  C   UNK N   1      33.659  16.424   9.002  0.00  0.00     0.121 A 
HETATM    9  C   UNK N   1      34.612  17.306   9.356  0.00  0.00     0.138 A 
HETATM   10  C   UNK N   1      33.421  15.304   9.786  0.00  0.00     0.131 A 
HETATM   11  C   UNK N   1      33.716  17.989   7.554  0.00  0.00     0.182 A 
HETATM   12  C   UNK N   1      35.146  16.053  11.252  0.00  0.00     0.183 A 
HETATM   13  H   UNK N   1      32.346  16.386   7.369  0.00  0.00     0.167 HD
ENDROOT
BRANCH  10  14
HETATM   14  N   UNK N   1      32.431  14.360   9.444  0.00  0.00    -0.383 N 
HETATM   15  H   UNK N   1      31.910  14.471   8.617  0.00  0.00     0.157 HD
HETATM   16  H   UNK N   1      32.261  13.589  10.033  0.00  0.00     0.157 HD
ENDBRANCH  10  14
TORSDOF 1
ENDMDL
MODEL 6
REMARK VINA RESULT:      -4.3     22.757     23.693
REMARK  1 active torsions:
REMARK  status: ('A' for Active; 'I' for Inactive)
REMARK    1  A    between atoms: N_8  and  C_11 
ROOT
HETATM    1  N   UNK N   1      20.544  19.739   1.271  0.00  0.00    -0.346 N 
HETATM    2  N   UNK N   1      20.838  20.023   3.494  0.00  0.00    -0.337 N 
ATOM      3  HN  UNK N   1      21.037  20.448   4.399  1.00  0.00     0.168 HD
HETATM    4  N   UNK N   1      20.320  17.757   4.129  0.00  0.00    -0.337 N 
ATOM      5  HN  UNK N   1      20.460  17.916   5.127  1.00  0.00     0.168 HD
HETATM    6  N   UNK N   1      19.772  16.322   2.310  0.00  0.00    -0.337 N 
ATOM      7  HN  UNK N   1      19.501  15.397   1.973  1.00  0.00     0.168 HD
HETATM    8  C   UNK N   1      20.312  18.584   1.912  0.00  0.00     0.121 A 
HETATM    9  C   UNK N   1      20.488  18.758   3.234  0.00  0.00     0.138 A 
HETATM   10  C   UNK N   1      19.944  17.340   1.416  0.00  0.00     0.131 A 
HETATM   11  C   UNK N   1      20.867  20.612   2.267  0.00  0.00     0.182 A 
HETATM   12  C   UNK N   1      19.957  16.524   3.657  0.00  0.00     0.183 A 
HETATM   13  H   UNK N   1      20.494  19.915   0.304  0.00  0.00     0.167 HD
ENDROOT
BRANCH  10  14
HETATM   14  N   UNK N   1      19.751  17.124   0.036  0.00  0.00    -0.383 N 
HETATM   15  H   UNK N   1      18.978  17.524  -0.422  0.00  0.00     0.157 HD
HETATM   16  H   UNK N   1      20.392  16.571  -0.469  0.00  0.00     0.157 HD
ENDBRANCH  10  14
TORSDOF 1
ENDMDL
MODEL 7
REMARK VINA RESULT:      -4.1     14.996     16.104
REMARK  1 active torsions:
REMARK  status: ('A' for Active; 'I' for Inactive)
REMARK    1  A    between atoms: N_8  and  C_11 
ROOT
HETATM    1  N   UNK N   1      34.721  13.554  11.944  0.00  0.00    -0.346 N 
HETATM    2  N   UNK N   1      36.188  15.268  12.077  0.00  0.00    -0.337 N 
ATOM      3  HN  UNK N   1      36.742  16.090  11.841  1.00  0.00     0.168 HD
HETATM    4  N   UNK N   1      36.932  14.816  14.325  0.00  0.00    -0.337 N 
ATOM      5  HN  UNK N   1      37.586  15.598  14.355  1.00  0.00     0.168 HD
HETATM    6  N   UNK N   1      35.898  12.930  15.346  0.00  0.00    -0.337 N 
ATOM      7  HN  UNK N   1      35.798  12.316  16.156  1.00  0.00     0.168 HD
HETATM    8  C   UNK N   1      35.315  13.551  13.146  0.00  0.00     0.121 A 
HETATM    9  C   UNK N   1      36.187  14.573  13.221  0.00  0.00     0.138 A 
HETATM   10  C   UNK N   1      35.151  12.695  14.227  0.00  0.00     0.131 A 
HETATM   11  C   UNK N   1      35.275  14.621  11.302  0.00  0.00     0.182 A 
HETATM   12  C   UNK N   1      36.782  13.980  15.399  0.00  0.00     0.183 A 
HETATM   13  H   UNK N   1      34.042  12.928  11.603  0.00  0.00     0.167 HD
ENDROOT
BRANCH  10  14
HETATM   14  N   UNK N   1      34.246  11.614  14.182  0.00  0.00    -0.383 N 
HETATM   15  H   UNK N   1      34.530  10.750  13.807  0.00  0.00     0.157 HD
HETATM   16  H   UNK N   1      33.330  11.726  14.525  0.00  0.00     0.157 HD
ENDBRANCH  10  14
TORSDOF 1
ENDMDL
MODEL 8
REMARK VINA RESULT:      -4.1     12.412     13.521
REMARK  1 active torsions:
REMARK  status: ('A' for Active; 'I' for Inactive)
REMARK    1  A    between atoms: N_8  and  C_11 
ROOT
HETATM    1  N   UNK N   1      32.810  16.038   7.908  0.00  0.00    -0.346 N 
HETATM    2  N   UNK N   1      32.459  14.245   9.237  0.00  0.00    -0.337 N 
ATOM      3  HN  UNK N   1      32.100  13.362   9.599  1.00  0.00     0.168 HD
HETATM    4  N   UNK N   1      33.993  14.892  10.979  0.00  0.00    -0.337 N 
ATOM      5  HN  UNK N   1      33.813  14.071  11.558  1.00  0.00     0.168 HD
HETATM    6  N   UNK N   1      35.118  16.954  10.588  0.00  0.00    -0.337 N 
ATOM      7  HN  UNK N   1      35.785  17.661  10.898  1.00  0.00     0.168 HD
HETATM    8  C   UNK N   1      33.570  16.133   9.008  0.00  0.00     0.121 A 
HETATM    9  C   UNK N   1      33.358  15.063   9.796  0.00  0.00     0.138 A 
HETATM   10  C   UNK N   1      34.471  17.116   9.396  0.00  0.00     0.131 A 
HETATM   11  C   UNK N   1      32.133  14.867   8.071  0.00  0.00     0.182 A 
HETATM   12  C   UNK N   1      34.884  15.852  11.376  0.00  0.00     0.183 A 
HETATM   13  H   UNK N   1      32.754  16.671   7.155  0.00  0.00     0.167 HD
ENDROOT
BRANCH  10  14
HETATM   14  N   UNK N   1      34.717  18.249   8.594  0.00  0.00    -0.383 N 
HETATM   15  H   UNK N   1      34.878  19.124   9.014  0.00  0.00     0.157 HD
HETATM   16  H   UNK N   1      34.727  18.164   7.613  0.00  0.00     0.157 HD
ENDBRANCH  10  14
TORSDOF 1
ENDMDL
MODEL 9
REMARK VINA RESULT:      -4.1     15.451     16.446
REMARK  1 active torsions:
REMARK  status: ('A' for Active; 'I' for Inactive)
REMARK    1  A    between atoms: N_8  and  C_11 
ROOT
HETATM    1  N   UNK N   1      26.732  20.536   7.133  0.00  0.00    -0.346 N 
HETATM    2  N   UNK N   1      27.189  20.535   4.921  0.00  0.00    -0.337 N 
ATOM      3  HN  UNK N   1      27.198  20.785   3.932  1.00  0.00     0.168 HD
HETATM    4  N   UNK N   1      28.669  18.633   4.948  0.00  0.00    -0.337 N 
ATOM      5  HN  UNK N   1      28.856  18.658   3.946  1.00  0.00     0.168 HD
HETATM    6  N   UNK N   1      28.985  17.660   7.098  0.00  0.00    -0.337 N 
ATOM      7  HN  UNK N   1      29.423  16.946   7.681  1.00  0.00     0.168 HD
HETATM    8  C   UNK N   1      27.575  19.534   6.844  0.00  0.00     0.121 A 
HETATM    9  C   UNK N   1      27.844  19.537   5.526  0.00  0.00     0.138 A 
HETATM   10  C   UNK N   1      28.151  18.578   7.670  0.00  0.00     0.131 A 
HETATM   11  C   UNK N   1      26.509  21.140   5.933  0.00  0.00     0.182 A 
HETATM   12  C   UNK N   1      29.245  17.683   5.749  0.00  0.00     0.183 A 
HETATM   13  H   UNK N   1      26.361  20.780   8.012  0.00  0.00     0.167 HD
ENDROOT
BRANCH  10  14
HETATM   14  N   UNK N   1      27.890  18.546   9.055  0.00  0.00    -0.383 N 
HETATM   15  H   UNK N   1      27.729  19.383   9.545  0.00  0.00     0.157 HD
HETATM   16  H   UNK N   1      27.869  17.684   9.532  0.00  0.00     0.157 HD
ENDBRANCH  10  14
TORSDOF 1
ENDMDL
