MODEL 1
REMARK VINA RESULT:      -5.9      0.000      0.000
REMARK  0 active torsions:
REMARK  status: ('A' for Active; 'I' for Inactive)
ROOT
HETATM    1  O   UNK N   1      34.481  13.105  14.515  0.00  0.00    -0.287 OA
HETATM    2  O   UNK N   1      35.249   8.735  17.427  0.00  0.00    -0.288 OA
HETATM    3  C   UNK N   1      34.919  12.240  16.654  0.00  0.00     0.029 A 
HETATM    4  C   UNK N   1      35.123  11.083  17.430  0.00  0.00     0.028 A 
HETATM    5  C   UNK N   1      34.619  10.759  14.580  0.00  0.00    -0.007 A 
HETATM    6  C   UNK N   1      34.660  12.110  15.201  0.00  0.00     0.189 A 
HETATM    7  C   UNK N   1      35.075   9.754  16.778  0.00  0.00     0.183 A 
HETATM    8  C   UNK N   1      34.815   9.660  15.325  0.00  0.00     0.066 A 
HETATM    9  C   UNK N   1      34.962  13.502  17.263  0.00  0.00     0.016 A 
HETATM   10  C   UNK N   1      35.368  11.202  18.805  0.00  0.00     0.016 A 
HETATM   11  C   UNK N   1      34.360  10.608  13.118  0.00  0.00     0.052 C 
HETATM   12  C   UNK N   1      35.207  13.612  18.635  0.00  0.00     0.001 A 
HETATM   13  C   UNK N   1      35.410  12.463  19.404  0.00  0.00     0.001 A 
ENDROOT
TORSDOF 0
ENDMDL
MODEL 2
REMARK VINA RESULT:      -5.7     25.752     27.463
REMARK  0 active torsions:
REMARK  status: ('A' for Active; 'I' for Inactive)
ROOT
HETATM    1  O   UNK N   1      25.691  26.001  -7.755  0.00  0.00    -0.287 OA
HETATM    2  O   UNK N   1      26.510  23.949  -2.930  0.00  0.00    -0.288 OA
HETATM    3  C   UNK N   1      26.036  26.456  -5.477  0.00  0.00     0.029 A 
HETATM    4  C   UNK N   1      26.253  25.914  -4.195  0.00  0.00     0.028 A 
HETATM    5  C   UNK N   1      25.955  24.076  -6.433  0.00  0.00    -0.007 A 
HETATM    6  C   UNK N   1      25.880  25.546  -6.637  0.00  0.00     0.189 A 
HETATM    7  C   UNK N   1      26.322  24.444  -4.029  0.00  0.00     0.183 A 
HETATM    8  C   UNK N   1      26.162  23.565  -5.209  0.00  0.00     0.066 A 
HETATM    9  C   UNK N   1      25.970  27.845  -5.642  0.00  0.00     0.016 A 
HETATM   10  C   UNK N   1      26.402  26.770  -3.095  0.00  0.00     0.016 A 
HETATM   11  C   UNK N   1      25.800  23.145  -7.590  0.00  0.00     0.052 C 
HETATM   12  C   UNK N   1      26.119  28.692  -4.540  0.00  0.00     0.001 A 
HETATM   13  C   UNK N   1      26.334  28.155  -3.268  0.00  0.00     0.001 A 
ENDROOT
TORSDOF 0
ENDMDL
MODEL 3
REMARK VINA RESULT:      -5.6      7.636      9.822
REMARK  0 active torsions:
REMARK  status: ('A' for Active; 'I' for Inactive)
ROOT
HETATM    1  O   UNK N   1      32.168  14.827   7.684  0.00  0.00    -0.287 OA
HETATM    2  O   UNK N   1      35.254  19.065   8.514  0.00  0.00    -0.288 OA
HETATM    3  C   UNK N   1      33.735  15.849   9.104  0.00  0.00     0.029 A 
HETATM    4  C   UNK N   1      34.555  16.972   9.327  0.00  0.00     0.028 A 
HETATM    5  C   UNK N   1      32.907  16.926   6.927  0.00  0.00    -0.007 A 
HETATM    6  C   UNK N   1      32.884  15.795   7.892  0.00  0.00     0.189 A 
HETATM    7  C   UNK N   1      34.552  18.080   8.345  0.00  0.00     0.183 A 
HETATM    8  C   UNK N   1      33.691  17.994   7.145  0.00  0.00     0.066 A 
HETATM    9  C   UNK N   1      33.732  14.796  10.029  0.00  0.00     0.016 A 
HETATM   10  C   UNK N   1      35.362  17.027  10.472  0.00  0.00     0.016 A 
HETATM   11  C   UNK N   1      32.057  16.889   5.701  0.00  0.00     0.052 C 
HETATM   12  C   UNK N   1      34.539  14.858  11.168  0.00  0.00     0.001 A 
HETATM   13  C   UNK N   1      35.352  15.973  11.389  0.00  0.00     0.001 A 
ENDROOT
TORSDOF 0
ENDMDL
MODEL 4
REMARK VINA RESULT:      -5.6     11.063     13.112
REMARK  0 active torsions:
REMARK  status: ('A' for Active; 'I' for Inactive)
ROOT
HETATM    1  O   UNK N   1      29.259  17.035   6.696  0.00  0.00    -0.287 OA
HETATM    2  O   UNK N   1      34.486  17.920   6.930  0.00  0.00    -0.288 OA
HETATM    3  C   UNK N   1      31.278  17.113   5.499  0.00  0.00     0.029 A 
HETATM    4  C   UNK N   1      32.665  17.347   5.558  0.00  0.00     0.028 A 
HETATM    5  C   UNK N   1      31.121  17.604   8.013  0.00  0.00    -0.007 A 
HETATM    6  C   UNK N   1      30.463  17.236   6.731  0.00  0.00     0.189 A 
HETATM    7  C   UNK N   1      33.286  17.712   6.852  0.00  0.00     0.183 A 
HETATM    8  C   UNK N   1      32.444  17.826   8.063  0.00  0.00     0.066 A 
HETATM    9  C   UNK N   1      30.682  16.767   4.279  0.00  0.00     0.016 A 
HETATM   10  C   UNK N   1      33.439  17.232   4.395  0.00  0.00     0.016 A 
HETATM   11  C   UNK N   1      30.316  17.732   9.264  0.00  0.00     0.052 C 
HETATM   12  C   UNK N   1      31.461  16.655   3.123  0.00  0.00     0.001 A 
HETATM   13  C   UNK N   1      32.837  16.887   3.182  0.00  0.00     0.001 A 
ENDROOT
TORSDOF 0
ENDMDL
MODEL 5
REMARK VINA RESULT:      -5.5     13.225     14.972
REMARK  0 active torsions:
REMARK  status: ('A' for Active; 'I' for Inactive)
ROOT
HETATM    1  O   UNK N   1      24.223  14.146   7.414  0.00  0.00    -0.287 OA
HETATM    2  O   UNK N   1      19.593  13.761   9.980  0.00  0.00    -0.288 OA
HETATM    3  C   UNK N   1      23.103  13.300   9.297  0.00  0.00     0.029 A 
HETATM    4  C   UNK N   1      21.876  13.197   9.980  0.00  0.00     0.028 A 
HETATM    5  C   UNK N   1      21.934  14.677   7.474  0.00  0.00    -0.007 A 
HETATM    6  C   UNK N   1      23.165  14.047   8.018  0.00  0.00     0.189 A 
HETATM    7  C   UNK N   1      20.669  13.836   9.408  0.00  0.00     0.183 A 
HETATM    8  C   UNK N   1      20.767  14.574   8.130  0.00  0.00     0.066 A 
HETATM    9  C   UNK N   1      24.249  12.698   9.832  0.00  0.00     0.016 A 
HETATM   10  C   UNK N   1      21.811  12.491  11.190  0.00  0.00     0.016 A 
HETATM   11  C   UNK N   1      21.978  15.433   6.187  0.00  0.00     0.052 C 
HETATM   12  C   UNK N   1      24.177  11.996  11.038  0.00  0.00     0.001 A 
HETATM   13  C   UNK N   1      22.959  11.893  11.716  0.00  0.00     0.001 A 
ENDROOT
TORSDOF 0
ENDMDL
MODEL 6
REMARK VINA RESULT:      -5.5     11.139     12.463
REMARK  0 active torsions:
REMARK  status: ('A' for Active; 'I' for Inactive)
ROOT
HETATM    1  O   UNK N   1      30.384  16.435   4.165  0.00  0.00    -0.287 OA
HETATM    2  O   UNK N   1      34.485  17.949   7.174  0.00  0.00    -0.288 OA
HETATM    3  C   UNK N   1      31.081  17.162   6.287  0.00  0.00     0.029 A 
HETATM    4  C   UNK N   1      32.167  17.564   7.088  0.00  0.00     0.028 A 
HETATM    5  C   UNK N   1      32.695  16.837   4.318  0.00  0.00    -0.007 A 
HETATM    6  C   UNK N   1      31.316  16.786   4.873  0.00  0.00     0.189 A 
HETATM    7  C   UNK N   1      33.527  17.604   6.502  0.00  0.00     0.183 A 
HETATM    8  C   UNK N   1      33.726  17.222   5.087  0.00  0.00     0.066 A 
HETATM    9  C   UNK N   1      29.792  17.122   6.834  0.00  0.00     0.016 A 
HETATM   10  C   UNK N   1      31.949  17.921   8.426  0.00  0.00     0.016 A 
HETATM   11  C   UNK N   1      32.951  16.462   2.896  0.00  0.00     0.052 C 
HETATM   12  C   UNK N   1      29.583  17.479   8.168  0.00  0.00     0.001 A 
HETATM   13  C   UNK N   1      30.660  17.878   8.963  0.00  0.00     0.001 A 
ENDROOT
TORSDOF 0
ENDMDL
MODEL 7
REMARK VINA RESULT:      -5.4      0.732      2.869
REMARK  0 active torsions:
REMARK  status: ('A' for Active; 'I' for Inactive)
ROOT
HETATM    1  O   UNK N   1      35.492   8.689  16.644  0.00  0.00    -0.287 OA
HETATM    2  O   UNK N   1      34.772  13.454  14.421  0.00  0.00    -0.288 OA
HETATM    3  C   UNK N   1      35.269  10.998  17.012  0.00  0.00     0.029 A 
HETATM    4  C   UNK N   1      35.078  12.264  16.425  0.00  0.00     0.028 A 
HETATM    5  C   UNK N   1      35.183   9.938  14.677  0.00  0.00    -0.007 A 
HETATM    6  C   UNK N   1      35.327   9.794  16.149  0.00  0.00     0.189 A 
HETATM    7  C   UNK N   1      34.938  12.369  14.955  0.00  0.00     0.183 A 
HETATM    8  C   UNK N   1      35.001  11.147  14.123  0.00  0.00     0.066 A 
HETATM    9  C   UNK N   1      35.401  10.890  18.403  0.00  0.00     0.016 A 
HETATM   10  C   UNK N   1      35.022  13.405  17.238  0.00  0.00     0.016 A 
HETATM   11  C   UNK N   1      35.238   8.736  13.792  0.00  0.00     0.052 C 
HETATM   12  C   UNK N   1      35.345  12.032  19.206  0.00  0.00     0.001 A 
HETATM   13  C   UNK N   1      35.156  13.288  18.623  0.00  0.00     0.001 A 
ENDROOT
TORSDOF 0
ENDMDL
MODEL 8
REMARK VINA RESULT:      -5.4     13.141     14.908
REMARK  0 active torsions:
REMARK  status: ('A' for Active; 'I' for Inactive)
ROOT
HETATM    1  O   UNK N   1      19.955  14.185   8.618  0.00  0.00    -0.287 OA
HETATM    2  O   UNK N   1      25.182  13.399   8.141  0.00  0.00    -0.288 OA
HETATM    3  C   UNK N   1      21.879  13.241   9.578  0.00  0.00     0.029 A 
HETATM    4  C   UNK N   1      23.266  13.031   9.454  0.00  0.00     0.028 A 
HETATM    5  C   UNK N   1      21.907  14.519   7.353  0.00  0.00    -0.007 A 
HETATM    6  C   UNK N   1      21.158  13.995   8.525  0.00  0.00     0.189 A 
HETATM    7  C   UNK N   1      23.980  13.568   8.273  0.00  0.00     0.183 A 
HETATM    8  C   UNK N   1      23.229  14.316   7.241  0.00  0.00     0.066 A 
HETATM    9  C   UNK N   1      21.197  12.736  10.692  0.00  0.00     0.016 A 
HETATM   10  C   UNK N   1      23.952  12.318  10.447  0.00  0.00     0.016 A 
HETATM   11  C   UNK N   1      21.197  15.281   6.283  0.00  0.00     0.052 C 
HETATM   12  C   UNK N   1      21.888  12.026  11.678  0.00  0.00     0.001 A 
HETATM   13  C   UNK N   1      23.264  11.818  11.555  0.00  0.00     0.001 A 
ENDROOT
TORSDOF 0
ENDMDL
MODEL 9
REMARK VINA RESULT:      -5.4     13.527     15.340
REMARK  0 active torsions:
REMARK  status: ('A' for Active; 'I' for Inactive)
ROOT
HETATM    1  O   UNK N   1      19.607  13.970   9.837  0.00  0.00    -0.287 OA
HETATM    2  O   UNK N   1      24.522  11.975   9.673  0.00  0.00    -0.288 OA
HETATM    3  C   UNK N   1      21.685  13.996   8.744  0.00  0.00     0.029 A 
HETATM    4  C   UNK N   1      22.990  13.469   8.698  0.00  0.00     0.028 A 
HETATM    5  C   UNK N   1      21.186  12.496  10.765  0.00  0.00    -0.007 A 
HETATM    6  C   UNK N   1      20.742  13.521   9.785  0.00  0.00     0.189 A 
HETATM    7  C   UNK N   1      23.397  12.448   9.691  0.00  0.00     0.183 A 
HETATM    8  C   UNK N   1      22.431  11.997  10.716  0.00  0.00     0.066 A 
HETATM    9  C   UNK N   1      21.293  14.962   7.808  0.00  0.00     0.016 A 
HETATM   10  C   UNK N   1      23.886  13.914   7.715  0.00  0.00     0.016 A 
HETATM   11  C   UNK N   1      20.249  12.006  11.820  0.00  0.00     0.052 C 
HETATM   12  C   UNK N   1      22.191  15.401   6.832  0.00  0.00     0.001 A 
HETATM   13  C   UNK N   1      23.486  14.878   6.786  0.00  0.00     0.001 A 
ENDROOT
TORSDOF 0
ENDMDL
