REMARK  6 active torsions:
REMARK  status: ('A' for Active; 'I' for Inactive)
REMARK    1  A    between atoms: C_5  and  C_6 
REMARK    2  A    between atoms: C_6  and  C_7 
REMARK    3  A    between atoms: C_7  and  C_8 
REMARK    4  A    between atoms: C_8  and  C_9 
REMARK    5  A    between atoms: C_9  and  C_10 
REMARK    6  A    between atoms: C_10  and  O_12 
ROOT
HETATM    1  C   UNK N   1       2.491   0.984  -0.411  0.00  0.00     0.002 C 
ENDROOT
BRANCH   1   2
HETATM    2  C   UNK N   1       1.187   1.402   0.247  0.00  0.00     0.016 C 
BRANCH   2   3
HETATM    3  C   UNK N   1       0.003   0.631  -0.318  0.00  0.00     0.059 C 
HETATM    4  C   UNK N   1      -1.258   1.204   0.273  0.00  0.00     0.027 C 
HETATM    5  C   UNK N   1      -2.406   0.373  -0.243  0.00  0.00     0.087 C 
HETATM    6  S   UNK N   1      -2.045  -1.389   0.018  0.00  0.00    -0.097 SA
HETATM    7  S   UNK N   1       0.070  -1.118   0.170  0.00  0.00    -0.093 SA
ENDBRANCH   2   3
ENDBRANCH   1   2
BRANCH   1   8
HETATM    8  C   UNK N   1       3.150  -0.126   0.392  0.00  0.00     0.010 C 
BRANCH   8   9
HETATM    9  C   UNK N   1       4.478  -0.537  -0.228  0.00  0.00     0.110 C 
BRANCH   9  10
HETATM   10  C   UNK N   1       5.565   0.477  -0.015  0.00  0.00     0.139 C 
HETATM   11  O   UNK N   1       5.298   1.660   0.141  0.00  0.00    -0.650 OA
BRANCH  10  12
HETATM   12  O   UNK N   1       6.850   0.083  -0.027  0.00  0.00    -0.776 OA
HETATM   13  H   UNK N   1       7.060  -0.830  -0.035  0.00  0.00     0.167 HD
ENDBRANCH  10  12
ENDBRANCH   9  10
ENDBRANCH   8   9
ENDBRANCH   1   8
TORSDOF 6
