MODEL 1
REMARK VINA RESULT:      -4.6      0.000      0.000
REMARK  6 active torsions:
REMARK  status: ('A' for Active; 'I' for Inactive)
REMARK    1  A    between atoms: C_5  and  C_6 
REMARK    2  A    between atoms: C_6  and  C_7 
REMARK    3  A    between atoms: C_7  and  C_8 
REMARK    4  A    between atoms: C_8  and  C_9 
REMARK    5  A    between atoms: C_9  and  C_10 
REMARK    6  A    between atoms: C_10  and  O_12 
ROOT
HETATM    1  C   UNK N   1      20.911  13.448  10.089  0.00  0.00     0.002 C 
ENDROOT
BRANCH   1   2
HETATM    2  C   UNK N   1      21.972  13.638   9.019  0.00  0.00     0.016 C 
BRANCH   2   3
HETATM    3  C   UNK N   1      21.600  14.754   8.054  0.00  0.00     0.059 C 
HETATM    4  C   UNK N   1      20.690  15.715   8.774  0.00  0.00     0.027 C 
HETATM    5  C   UNK N   1      20.277  16.766   7.774  0.00  0.00     0.087 C 
HETATM    6  S   UNK N   1      19.671  15.960   6.262  0.00  0.00    -0.097 SA
HETATM    7  S   UNK N   1      20.671  14.107   6.634  0.00  0.00    -0.093 SA
ENDBRANCH   2   3
ENDBRANCH   1   2
BRANCH   1   8
HETATM    8  C   UNK N   1      21.280  12.281  10.991  0.00  0.00     0.010 C 
BRANCH   8   9
HETATM    9  C   UNK N   1      22.715  11.835  10.750  0.00  0.00     0.110 C 
BRANCH   9  10
HETATM   10  C   UNK N   1      23.588  11.983  11.963  0.00  0.00     0.139 C 
HETATM   11  O   UNK N   1      23.125  11.863  13.088  0.00  0.00    -0.650 OA
BRANCH  10  12
HETATM   12  O   UNK N   1      24.889  12.284  11.810  0.00  0.00    -0.776 OA
HETATM   13  H   UNK N   1      25.539  11.804  12.284  0.00  0.00     0.167 HD
ENDBRANCH  10  12
ENDBRANCH   9  10
ENDBRANCH   8   9
ENDBRANCH   1   8
TORSDOF 6
ENDMDL
MODEL 2
REMARK VINA RESULT:      -4.4     10.180     10.770
REMARK  6 active torsions:
REMARK  status: ('A' for Active; 'I' for Inactive)
REMARK    1  A    between atoms: C_5  and  C_6 
REMARK    2  A    between atoms: C_6  and  C_7 
REMARK    3  A    between atoms: C_7  and  C_8 
REMARK    4  A    between atoms: C_8  and  C_9 
REMARK    5  A    between atoms: C_9  and  C_10 
REMARK    6  A    between atoms: C_10  and  O_12 
ROOT
HETATM    1  C   UNK N   1      30.459  17.365   7.704  0.00  0.00     0.002 C 
ENDROOT
BRANCH   1   2
HETATM    2  C   UNK N   1      29.558  16.821   6.608  0.00  0.00     0.016 C 
BRANCH   2   3
HETATM    3  C   UNK N   1      28.416  17.777   6.298  0.00  0.00     0.059 C 
HETATM    4  C   UNK N   1      28.755  18.524   5.035  0.00  0.00     0.027 C 
HETATM    5  C   UNK N   1      27.645  19.516   4.794  0.00  0.00     0.087 C 
HETATM    6  S   UNK N   1      27.342  20.467   6.313  0.00  0.00    -0.097 SA
HETATM    7  S   UNK N   1      28.226  19.018   7.612  0.00  0.00    -0.093 SA
ENDBRANCH   2   3
ENDBRANCH   1   2
BRANCH   1   8
HETATM    8  C   UNK N   1      31.917  17.240   7.293  0.00  0.00     0.010 C 
BRANCH   8   9
HETATM    9  C   UNK N   1      32.836  17.859   8.336  0.00  0.00     0.110 C 
BRANCH   9  10
HETATM   10  C   UNK N   1      34.167  18.271   7.777  0.00  0.00     0.139 C 
HETATM   11  O   UNK N   1      34.869  19.085   8.361  0.00  0.00    -0.650 OA
BRANCH  10  12
HETATM   12  O   UNK N   1      34.579  17.762   6.603  0.00  0.00    -0.776 OA
HETATM   13  H   UNK N   1      35.439  17.398   6.526  0.00  0.00     0.167 HD
ENDBRANCH  10  12
ENDBRANCH   9  10
ENDBRANCH   8   9
ENDBRANCH   1   8
TORSDOF 6
ENDMDL
MODEL 3
REMARK VINA RESULT:      -4.4     11.507     12.231
REMARK  6 active torsions:
REMARK  status: ('A' for Active; 'I' for Inactive)
REMARK    1  A    between atoms: C_5  and  C_6 
REMARK    2  A    between atoms: C_6  and  C_7 
REMARK    3  A    between atoms: C_7  and  C_8 
REMARK    4  A    between atoms: C_8  and  C_9 
REMARK    5  A    between atoms: C_9  and  C_10 
REMARK    6  A    between atoms: C_10  and  O_12 
ROOT
HETATM    1  C   UNK N   1      30.955  17.374   7.624  0.00  0.00     0.002 C 
ENDROOT
BRANCH   1   2
HETATM    2  C   UNK N   1      30.532  17.137   6.184  0.00  0.00     0.016 C 
BRANCH   2   3
HETATM    3  C   UNK N   1      31.654  16.513   5.367  0.00  0.00     0.059 C 
HETATM    4  C   UNK N   1      31.891  17.376   4.156  0.00  0.00     0.027 C 
HETATM    5  C   UNK N   1      32.952  16.695   3.327  0.00  0.00     0.087 C 
HETATM    6  S   UNK N   1      32.501  14.952   3.079  0.00  0.00    -0.097 SA
HETATM    7  S   UNK N   1      31.183  14.866   4.761  0.00  0.00    -0.093 SA
ENDBRANCH   2   3
ENDBRANCH   1   2
BRANCH   1   8
HETATM    8  C   UNK N   1      32.354  16.825   7.856  0.00  0.00     0.010 C 
BRANCH   8   9
HETATM    9  C   UNK N   1      33.195  17.796   8.672  0.00  0.00     0.110 C 
BRANCH   9  10
HETATM   10  C   UNK N   1      34.383  18.322   7.918  0.00  0.00     0.139 C 
HETATM   11  O   UNK N   1      35.178  19.082   8.452  0.00  0.00    -0.650 OA
BRANCH  10  12
HETATM   12  O   UNK N   1      34.556  17.977   6.631  0.00  0.00    -0.776 OA
HETATM   13  H   UNK N   1      35.347  18.209   6.186  0.00  0.00     0.167 HD
ENDBRANCH  10  12
ENDBRANCH   9  10
ENDBRANCH   8   9
ENDBRANCH   1   8
TORSDOF 6
ENDMDL
MODEL 4
REMARK VINA RESULT:      -4.3     10.190     10.779
REMARK  6 active torsions:
REMARK  status: ('A' for Active; 'I' for Inactive)
REMARK    1  A    between atoms: C_5  and  C_6 
REMARK    2  A    between atoms: C_6  and  C_7 
REMARK    3  A    between atoms: C_7  and  C_8 
REMARK    4  A    between atoms: C_8  and  C_9 
REMARK    5  A    between atoms: C_9  and  C_10 
REMARK    6  A    between atoms: C_10  and  O_12 
ROOT
HETATM    1  C   UNK N   1      31.430  16.185   7.773  0.00  0.00     0.002 C 
ENDROOT
BRANCH   1   2
HETATM    2  C   UNK N   1      30.384  17.156   8.293  0.00  0.00     0.016 C 
BRANCH   2   3
HETATM    3  C   UNK N   1      29.597  17.792   7.157  0.00  0.00     0.059 C 
HETATM    4  C   UNK N   1      28.554  18.699   7.756  0.00  0.00     0.027 C 
HETATM    5  C   UNK N   1      27.742  19.254   6.613  0.00  0.00     0.087 C 
HETATM    6  S   UNK N   1      27.199  17.894   5.537  0.00  0.00    -0.097 SA
HETATM    7  S   UNK N   1      28.714  16.534   6.189  0.00  0.00    -0.093 SA
ENDBRANCH   2   3
ENDBRANCH   1   2
BRANCH   1   8
HETATM    8  C   UNK N   1      32.763  16.434   8.461  0.00  0.00     0.010 C 
BRANCH   8   9
HETATM    9  C   UNK N   1      33.056  17.924   8.566  0.00  0.00     0.110 C 
BRANCH   9  10
HETATM   10  C   UNK N   1      34.335  18.320   7.885  0.00  0.00     0.139 C 
HETATM   11  O   UNK N   1      35.148  19.040   8.447  0.00  0.00    -0.650 OA
BRANCH  10  12
HETATM   12  O   UNK N   1      34.573  17.904   6.630  0.00  0.00    -0.776 OA
HETATM   13  H   UNK N   1      33.863  17.798   6.028  0.00  0.00     0.167 HD
ENDBRANCH  10  12
ENDBRANCH   9  10
ENDBRANCH   8   9
ENDBRANCH   1   8
TORSDOF 6
ENDMDL
MODEL 5
REMARK VINA RESULT:      -4.2     11.549     12.326
REMARK  6 active torsions:
REMARK  status: ('A' for Active; 'I' for Inactive)
REMARK    1  A    between atoms: C_5  and  C_6 
REMARK    2  A    between atoms: C_6  and  C_7 
REMARK    3  A    between atoms: C_7  and  C_8 
REMARK    4  A    between atoms: C_8  and  C_9 
REMARK    5  A    between atoms: C_9  and  C_10 
REMARK    6  A    between atoms: C_10  and  O_12 
ROOT
HETATM    1  C   UNK N   1      32.479  15.343   9.321  0.00  0.00     0.002 C 
ENDROOT
BRANCH   1   2
HETATM    2  C   UNK N   1      32.271  16.668   8.607  0.00  0.00     0.016 C 
BRANCH   2   3
HETATM    3  C   UNK N   1      32.382  16.513   7.098  0.00  0.00     0.059 C 
HETATM    4  C   UNK N   1      33.341  17.556   6.586  0.00  0.00     0.027 C 
HETATM    5  C   UNK N   1      33.372  17.430   5.084  0.00  0.00     0.087 C 
HETATM    6  S   UNK N   1      31.672  17.421   4.441  0.00  0.00    -0.097 SA
HETATM    7  S   UNK N   1      30.784  16.822   6.291  0.00  0.00    -0.093 SA
ENDBRANCH   2   3
ENDBRANCH   1   2
BRANCH   1   8
HETATM    8  C   UNK N   1      33.960  15.008   9.383  0.00  0.00     0.010 C 
BRANCH   8   9
HETATM    9  C   UNK N   1      34.556  15.403  10.727  0.00  0.00     0.110 C 
BRANCH   9  10
HETATM   10  C   UNK N   1      35.656  16.419  10.607  0.00  0.00     0.139 C 
HETATM   11  O   UNK N   1      35.426  17.548  10.199  0.00  0.00    -0.650 OA
BRANCH  10  12
HETATM   12  O   UNK N   1      36.916  16.071  10.923  0.00  0.00    -0.776 OA
HETATM   13  H   UNK N   1      37.552  16.734  11.106  0.00  0.00     0.167 HD
ENDBRANCH  10  12
ENDBRANCH   9  10
ENDBRANCH   8   9
ENDBRANCH   1   8
TORSDOF 6
ENDMDL
MODEL 6
REMARK VINA RESULT:      -4.2     10.262     10.913
REMARK  6 active torsions:
REMARK  status: ('A' for Active; 'I' for Inactive)
REMARK    1  A    between atoms: C_5  and  C_6 
REMARK    2  A    between atoms: C_6  and  C_7 
REMARK    3  A    between atoms: C_7  and  C_8 
REMARK    4  A    between atoms: C_8  and  C_9 
REMARK    5  A    between atoms: C_9  and  C_10 
REMARK    6  A    between atoms: C_10  and  O_12 
ROOT
HETATM    1  C   UNK N   1      31.205  17.242   6.687  0.00  0.00     0.002 C 
ENDROOT
BRANCH   1   2
HETATM    2  C   UNK N   1      29.813  17.116   7.281  0.00  0.00     0.016 C 
BRANCH   2   3
HETATM    3  C   UNK N   1      28.735  17.258   6.217  0.00  0.00     0.059 C 
HETATM    4  C   UNK N   1      29.394  17.177   4.865  0.00  0.00     0.027 C 
HETATM    5  C   UNK N   1      28.316  17.398   3.833  0.00  0.00     0.087 C 
HETATM    6  S   UNK N   1      27.371  18.893   4.253  0.00  0.00    -0.097 SA
HETATM    7  S   UNK N   1      27.929  18.883   6.317  0.00  0.00    -0.093 SA
ENDBRANCH   2   3
ENDBRANCH   1   2
BRANCH   1   8
HETATM    8  C   UNK N   1      32.246  16.759   7.684  0.00  0.00     0.010 C 
BRANCH   8   9
HETATM    9  C   UNK N   1      32.922  17.931   8.381  0.00  0.00     0.110 C 
BRANCH   9  10
HETATM   10  C   UNK N   1      34.253  18.284   7.780  0.00  0.00     0.139 C 
HETATM   11  O   UNK N   1      34.618  17.784   6.726  0.00  0.00    -0.650 OA
BRANCH  10  12
HETATM   12  O   UNK N   1      35.066  19.138   8.426  0.00  0.00    -0.776 OA
HETATM   13  H   UNK N   1      34.758  19.595   9.183  0.00  0.00     0.167 HD
ENDBRANCH  10  12
ENDBRANCH   9  10
ENDBRANCH   8   9
ENDBRANCH   1   8
TORSDOF 6
ENDMDL
MODEL 7
REMARK VINA RESULT:      -4.2     11.135     12.063
REMARK  6 active torsions:
REMARK  status: ('A' for Active; 'I' for Inactive)
REMARK    1  A    between atoms: C_5  and  C_6 
REMARK    2  A    between atoms: C_6  and  C_7 
REMARK    3  A    between atoms: C_7  and  C_8 
REMARK    4  A    between atoms: C_8  and  C_9 
REMARK    5  A    between atoms: C_9  and  C_10 
REMARK    6  A    between atoms: C_10  and  O_12 
ROOT
HETATM    1  C   UNK N   1      31.845  17.260   8.315  0.00  0.00     0.002 C 
ENDROOT
BRANCH   1   2
HETATM    2  C   UNK N   1      33.132  18.063   8.235  0.00  0.00     0.016 C 
BRANCH   2   3
HETATM    3  C   UNK N   1      34.353  17.158   8.159  0.00  0.00     0.059 C 
HETATM    4  C   UNK N   1      33.984  15.934   7.364  0.00  0.00     0.027 C 
HETATM    5  C   UNK N   1      35.185  15.023   7.371  0.00  0.00     0.087 C 
HETATM    6  S   UNK N   1      35.772  14.807   9.078  0.00  0.00    -0.097 SA
HETATM    7  S   UNK N   1      34.845  16.587   9.813  0.00  0.00    -0.093 SA
ENDBRANCH   2   3
ENDBRANCH   1   2
BRANCH   1   8
HETATM    8  C   UNK N   1      30.702  18.147   8.781  0.00  0.00     0.010 C 
BRANCH   8   9
HETATM    9  C   UNK N   1      29.413  17.815   8.043  0.00  0.00     0.110 C 
BRANCH   9  10
HETATM   10  C   UNK N   1      28.188  17.975   8.897  0.00  0.00     0.139 C 
HETATM   11  O   UNK N   1      27.856  17.104   9.687  0.00  0.00    -0.650 OA
BRANCH  10  12
HETATM   12  O   UNK N   1      27.431  19.078   8.768  0.00  0.00    -0.776 OA
HETATM   13  H   UNK N   1      27.794  19.921   8.957  0.00  0.00     0.167 HD
ENDBRANCH  10  12
ENDBRANCH   9  10
ENDBRANCH   8   9
ENDBRANCH   1   8
TORSDOF 6
ENDMDL
MODEL 8
REMARK VINA RESULT:      -4.1     10.331     11.323
REMARK  6 active torsions:
REMARK  status: ('A' for Active; 'I' for Inactive)
REMARK    1  A    between atoms: C_5  and  C_6 
REMARK    2  A    between atoms: C_6  and  C_7 
REMARK    3  A    between atoms: C_7  and  C_8 
REMARK    4  A    between atoms: C_8  and  C_9 
REMARK    5  A    between atoms: C_9  and  C_10 
REMARK    6  A    between atoms: C_10  and  O_12 
ROOT
HETATM    1  C   UNK N   1      29.366  17.774   7.645  0.00  0.00     0.002 C 
ENDROOT
BRANCH   1   2
HETATM    2  C   UNK N   1      30.550  17.875   8.593  0.00  0.00     0.016 C 
BRANCH   2   3
HETATM    3  C   UNK N   1      31.804  17.260   7.989  0.00  0.00     0.059 C 
HETATM    4  C   UNK N   1      32.931  18.247   8.137  0.00  0.00     0.027 C 
HETATM    5  C   UNK N   1      34.138  17.644   7.463  0.00  0.00     0.087 C 
HETATM    6  S   UNK N   1      33.685  17.084   5.795  0.00  0.00    -0.097 SA
HETATM    7  S   UNK N   1      31.592  16.959   6.210  0.00  0.00    -0.093 SA
ENDBRANCH   2   3
ENDBRANCH   1   2
BRANCH   1   8
HETATM    8  C   UNK N   1      28.354  18.865   7.953  0.00  0.00     0.010 C 
BRANCH   8   9
HETATM    9  C   UNK N   1      27.808  19.483   6.674  0.00  0.00     0.110 C 
BRANCH   9  10
HETATM   10  C   UNK N   1      26.990  20.719   6.921  0.00  0.00     0.139 C 
HETATM   11  O   UNK N   1      27.116  21.707   6.212  0.00  0.00    -0.650 OA
BRANCH  10  12
HETATM   12  O   UNK N   1      26.131  20.749   7.955  0.00  0.00    -0.776 OA
HETATM   13  H   UNK N   1      25.246  21.025   7.820  0.00  0.00     0.167 HD
ENDBRANCH  10  12
ENDBRANCH   9  10
ENDBRANCH   8   9
ENDBRANCH   1   8
TORSDOF 6
ENDMDL
MODEL 9
REMARK VINA RESULT:      -4.1     17.720     18.696
REMARK  6 active torsions:
REMARK  status: ('A' for Active; 'I' for Inactive)
REMARK    1  A    between atoms: C_5  and  C_6 
REMARK    2  A    between atoms: C_6  and  C_7 
REMARK    3  A    between atoms: C_7  and  C_8 
REMARK    4  A    between atoms: C_8  and  C_9 
REMARK    5  A    between atoms: C_9  and  C_10 
REMARK    6  A    between atoms: C_10  and  O_12 
ROOT
HETATM    1  C   UNK N   1      28.247  24.367  -5.208  0.00  0.00     0.002 C 
ENDROOT
BRANCH   1   2
HETATM    2  C   UNK N   1      26.787  23.951  -5.157  0.00  0.00     0.016 C 
BRANCH   2   3
HETATM    3  C   UNK N   1      25.884  25.119  -4.791  0.00  0.00     0.059 C 
HETATM    4  C   UNK N   1      25.610  25.912  -6.042  0.00  0.00     0.027 C 
HETATM    5  C   UNK N   1      24.779  27.104  -5.637  0.00  0.00     0.087 C 
HETATM    6  S   UNK N   1      25.567  27.943  -4.230  0.00  0.00    -0.097 SA
HETATM    7  S   UNK N   1      26.708  26.241  -3.623  0.00  0.00    -0.093 SA
ENDBRANCH   2   3
ENDBRANCH   1   2
BRANCH   1   8
HETATM    8  C   UNK N   1      29.121  23.290  -4.586  0.00  0.00     0.010 C 
BRANCH   8   9
HETATM    9  C   UNK N   1      30.027  23.873  -3.511  0.00  0.00     0.110 C 
BRANCH   9  10
HETATM   10  C   UNK N   1      30.504  22.846  -2.524  0.00  0.00     0.139 C 
HETATM   11  O   UNK N   1      30.394  23.032  -1.321  0.00  0.00    -0.650 OA
BRANCH  10  12
HETATM   12  O   UNK N   1      31.089  21.720  -2.970  0.00  0.00    -0.776 OA
HETATM   13  H   UNK N   1      31.403  21.082  -2.360  0.00  0.00     0.167 HD
ENDBRANCH  10  12
ENDBRANCH   9  10
ENDBRANCH   8   9
ENDBRANCH   1   8
TORSDOF 6
ENDMDL
