MODEL 1
REMARK VINA RESULT:      -4.2      0.000      0.000
REMARK  2 active torsions:
REMARK  status: ('A' for Active; 'I' for Inactive)
REMARK    1  A    between atoms: O_1  and  C_8 
REMARK    2  A    between atoms: C_4  and  C_8 
ROOT
HETATM    1  N   UNK N   1      35.070  17.177  10.503  0.00  0.00    -0.408 N 
HETATM    2  C   UNK N   1      34.624  17.037   9.131  0.00  0.00     0.175 A 
HETATM    3  C   UNK N   1      34.167  15.653   8.772  0.00  0.00     0.037 A 
HETATM    4  C   UNK N   1      34.356  14.882  10.058  0.00  0.00     0.022 A 
HETATM    5  C   UNK N   1      34.912  15.853  11.096  0.00  0.00     0.115 A 
HETATM    6  H   UNK N   1      35.419  18.021  10.958  0.00  0.00     0.154 HD
ENDROOT
BRANCH   2   7
HETATM    7  C   UNK N   1      34.660  18.239   8.235  0.00  0.00     0.163 C 
HETATM    8  O   UNK N   1      34.059  18.229   7.180  0.00  0.00    -0.648 OA
BRANCH   7   9
HETATM    9  O   UNK N   1      35.359  19.335   8.600  0.00  0.00    -0.775 OA
HETATM   10  H   UNK N   1      35.705  19.403   9.468  0.00  0.00     0.167 HD
ENDBRANCH   7   9
ENDBRANCH   2   7
TORSDOF 2
ENDMDL
MODEL 2
REMARK VINA RESULT:      -4.2     15.668     16.240
REMARK  2 active torsions:
REMARK  status: ('A' for Active; 'I' for Inactive)
REMARK    1  A    between atoms: O_1  and  C_8 
REMARK    2  A    between atoms: C_4  and  C_8 
ROOT
HETATM    1  N   UNK N   1      20.185  18.115   0.572  0.00  0.00    -0.408 N 
HETATM    2  C   UNK N   1      20.617  19.048   1.595  0.00  0.00     0.175 A 
HETATM    3  C   UNK N   1      20.678  18.461   2.974  0.00  0.00     0.037 A 
HETATM    4  C   UNK N   1      20.239  17.031   2.761  0.00  0.00     0.022 A 
HETATM    5  C   UNK N   1      19.946  16.858   1.273  0.00  0.00     0.115 A 
HETATM    6  H   UNK N   1      20.073  18.298  -0.426  0.00  0.00     0.154 HD
ENDROOT
BRANCH   2   7
HETATM    7  C   UNK N   1      20.948  20.454   1.194  0.00  0.00     0.163 C 
HETATM    8  O   UNK N   1      21.431  21.220   2.003  0.00  0.00    -0.648 OA
BRANCH   7   9
HETATM    9  O   UNK N   1      20.710  20.873  -0.068  0.00  0.00    -0.775 OA
HETATM   10  H   UNK N   1      19.893  21.280  -0.280  0.00  0.00     0.167 HD
ENDBRANCH   7   9
ENDBRANCH   2   7
TORSDOF 2
ENDMDL
MODEL 3
REMARK VINA RESULT:      -4.1     12.897     13.488
REMARK  2 active torsions:
REMARK  status: ('A' for Active; 'I' for Inactive)
REMARK    1  A    between atoms: O_1  and  C_8 
REMARK    2  A    between atoms: C_4  and  C_8 
ROOT
HETATM    1  N   UNK N   1      21.352  11.934  11.852  0.00  0.00    -0.408 N 
HETATM    2  C   UNK N   1      22.632  12.415  11.371  0.00  0.00     0.175 A 
HETATM    3  C   UNK N   1      22.547  13.248  10.126  0.00  0.00     0.037 A 
HETATM    4  C   UNK N   1      21.066  13.272   9.827  0.00  0.00     0.022 A 
HETATM    5  C   UNK N   1      20.367  12.454  10.909  0.00  0.00     0.115 A 
HETATM    6  H   UNK N   1      21.177  11.356  12.674  0.00  0.00     0.154 HD
ENDROOT
BRANCH   2   7
HETATM    7  C   UNK N   1      23.872  12.049  12.131  0.00  0.00     0.163 C 
HETATM    8  O   UNK N   1      23.823  11.891  13.334  0.00  0.00    -0.648 OA
BRANCH   7   9
HETATM    9  O   UNK N   1      25.045  11.896  11.481  0.00  0.00    -0.775 OA
HETATM   10  H   UNK N   1      25.103  11.312  10.750  0.00  0.00     0.167 HD
ENDBRANCH   7   9
ENDBRANCH   2   7
TORSDOF 2
ENDMDL
MODEL 4
REMARK VINA RESULT:      -4.1     12.552     13.094
REMARK  2 active torsions:
REMARK  status: ('A' for Active; 'I' for Inactive)
REMARK    1  A    between atoms: O_1  and  C_8 
REMARK    2  A    between atoms: C_4  and  C_8 
ROOT
HETATM    1  N   UNK N   1      21.961  11.783  11.503  0.00  0.00    -0.408 N 
HETATM    2  C   UNK N   1      22.763  12.604  10.618  0.00  0.00     0.175 A 
HETATM    3  C   UNK N   1      21.973  13.602   9.824  0.00  0.00     0.037 A 
HETATM    4  C   UNK N   1      20.553  13.358  10.276  0.00  0.00     0.022 A 
HETATM    5  C   UNK N   1      20.587  12.233  11.307  0.00  0.00     0.115 A 
HETATM    6  H   UNK N   1      22.288  11.047  12.131  0.00  0.00     0.154 HD
ENDROOT
BRANCH   2   7
HETATM    7  C   UNK N   1      24.247  12.388  10.581  0.00  0.00     0.163 C 
HETATM    8  O   UNK N   1      24.819  12.280   9.516  0.00  0.00    -0.648 OA
BRANCH   7   9
HETATM    9  O   UNK N   1      24.950  12.314  11.732  0.00  0.00    -0.775 OA
HETATM   10  H   UNK N   1      25.813  11.950  11.730  0.00  0.00     0.167 HD
ENDBRANCH   7   9
ENDBRANCH   2   7
TORSDOF 2
ENDMDL
MODEL 5
REMARK VINA RESULT:      -4.1      2.426      3.216
REMARK  2 active torsions:
REMARK  status: ('A' for Active; 'I' for Inactive)
REMARK    1  A    between atoms: O_1  and  C_8 
REMARK    2  A    between atoms: C_4  and  C_8 
ROOT
HETATM    1  N   UNK N   1      32.321  17.577   8.736  0.00  0.00    -0.408 N 
HETATM    2  C   UNK N   1      33.546  17.801   7.994  0.00  0.00     0.175 A 
HETATM    3  C   UNK N   1      33.423  17.556   6.518  0.00  0.00     0.037 A 
HETATM    4  C   UNK N   1      31.979  17.144   6.356  0.00  0.00     0.022 A 
HETATM    5  C   UNK N   1      31.336  17.170   7.740  0.00  0.00     0.115 A 
HETATM    6  H   UNK N   1      32.178  17.683   9.741  0.00  0.00     0.154 HD
ENDROOT
BRANCH   2   7
HETATM    7  C   UNK N   1      34.771  18.238   8.740  0.00  0.00     0.163 C 
HETATM    8  O   UNK N   1      35.327  19.276   8.443  0.00  0.00    -0.648 OA
BRANCH   7   9
HETATM    9  O   UNK N   1      35.261  17.478   9.744  0.00  0.00    -0.775 OA
HETATM   10  H   UNK N   1      34.816  17.448  10.568  0.00  0.00     0.167 HD
ENDBRANCH   7   9
ENDBRANCH   2   7
TORSDOF 2
ENDMDL
MODEL 6
REMARK VINA RESULT:      -3.9     12.992     13.578
REMARK  2 active torsions:
REMARK  status: ('A' for Active; 'I' for Inactive)
REMARK    1  A    between atoms: O_1  and  C_8 
REMARK    2  A    between atoms: C_4  and  C_8 
ROOT
HETATM    1  N   UNK N   1      23.271  12.346  11.566  0.00  0.00    -0.408 N 
HETATM    2  C   UNK N   1      22.239  12.315  10.548  0.00  0.00     0.175 A 
HETATM    3  C   UNK N   1      22.762  12.164   9.149  0.00  0.00     0.037 A 
HETATM    4  C   UNK N   1      24.259  12.096   9.345  0.00  0.00     0.022 A 
HETATM    5  C   UNK N   1      24.531  12.212  10.842  0.00  0.00     0.115 A 
HETATM    6  H   UNK N   1      23.144  12.441  12.574  0.00  0.00     0.154 HD
ENDROOT
BRANCH   2   7
HETATM    7  C   UNK N   1      20.806  12.433  10.970  0.00  0.00     0.163 C 
HETATM    8  O   UNK N   1      20.045  13.147  10.349  0.00  0.00    -0.648 OA
BRANCH   7   9
HETATM    9  O   UNK N   1      20.356  11.746  12.043  0.00  0.00    -0.775 OA
HETATM   10  H   UNK N   1      19.444  11.757  12.258  0.00  0.00     0.167 HD
ENDBRANCH   7   9
ENDBRANCH   2   7
TORSDOF 2
ENDMDL
MODEL 7
REMARK VINA RESULT:      -3.9     11.853     12.531
REMARK  2 active torsions:
REMARK  status: ('A' for Active; 'I' for Inactive)
REMARK    1  A    between atoms: O_1  and  C_8 
REMARK    2  A    between atoms: C_4  and  C_8 
ROOT
HETATM    1  N   UNK N   1      24.767  13.091  10.657  0.00  0.00    -0.408 N 
HETATM    2  C   UNK N   1      23.672  12.165  10.867  0.00  0.00     0.175 A 
HETATM    3  C   UNK N   1      23.131  11.557   9.606  0.00  0.00     0.037 A 
HETATM    4  C   UNK N   1      23.987  12.181   8.528  0.00  0.00     0.022 A 
HETATM    5  C   UNK N   1      24.979  13.117   9.214  0.00  0.00     0.115 A 
HETATM    6  H   UNK N   1      25.280  13.615  11.368  0.00  0.00     0.154 HD
ENDROOT
BRANCH   2   7
HETATM    7  C   UNK N   1      23.201  11.911  12.268  0.00  0.00     0.163 C 
HETATM    8  O   UNK N   1      23.957  12.078  13.204  0.00  0.00    -0.648 OA
BRANCH   7   9
HETATM    9  O   UNK N   1      21.936  11.495  12.493  0.00  0.00    -0.775 OA
HETATM   10  H   UNK N   1      21.216  11.952  12.105  0.00  0.00     0.167 HD
ENDBRANCH   7   9
ENDBRANCH   2   7
TORSDOF 2
ENDMDL
MODEL 8
REMARK VINA RESULT:      -3.9     11.228     11.911
REMARK  2 active torsions:
REMARK  status: ('A' for Active; 'I' for Inactive)
REMARK    1  A    between atoms: O_1  and  C_8 
REMARK    2  A    between atoms: C_4  and  C_8 
ROOT
HETATM    1  N   UNK N   1      42.748  23.463   2.797  0.00  0.00    -0.408 N 
HETATM    2  C   UNK N   1      43.168  22.271   3.507  0.00  0.00     0.175 A 
HETATM    3  C   UNK N   1      42.443  21.024   3.095  0.00  0.00     0.037 A 
HETATM    4  C   UNK N   1      41.490  21.514   2.030  0.00  0.00     0.022 A 
HETATM    5  C   UNK N   1      41.708  23.017   1.876  0.00  0.00     0.115 A 
HETATM    6  H   UNK N   1      43.104  24.412   2.916  0.00  0.00     0.154 HD
ENDROOT
BRANCH   2   7
HETATM    7  C   UNK N   1      44.244  22.391   4.544  0.00  0.00     0.163 C 
HETATM    8  O   UNK N   1      43.959  22.694   5.685  0.00  0.00    -0.648 OA
BRANCH   7   9
HETATM    9  O   UNK N   1      45.534  22.164   4.213  0.00  0.00    -0.775 OA
HETATM   10  H   UNK N   1      45.750  21.470   3.621  0.00  0.00     0.167 HD
ENDBRANCH   7   9
ENDBRANCH   2   7
TORSDOF 2
ENDMDL
MODEL 9
REMARK VINA RESULT:      -3.8     14.820     15.338
REMARK  2 active torsions:
REMARK  status: ('A' for Active; 'I' for Inactive)
REMARK    1  A    between atoms: O_1  and  C_8 
REMARK    2  A    between atoms: C_4  and  C_8 
ROOT
HETATM    1  N   UNK N   1      21.530  19.067   3.999  0.00  0.00    -0.408 N 
HETATM    2  C   UNK N   1      20.888  19.357   2.732  0.00  0.00     0.175 A 
HETATM    3  C   UNK N   1      19.844  18.358   2.329  0.00  0.00     0.037 A 
HETATM    4  C   UNK N   1      19.859  17.365   3.468  0.00  0.00     0.022 A 
HETATM    5  C   UNK N   1      20.907  17.836   4.473  0.00  0.00     0.115 A 
HETATM    6  H   UNK N   1      22.262  19.607   4.461  0.00  0.00     0.154 HD
ENDROOT
BRANCH   2   7
HETATM    7  C   UNK N   1      21.311  20.580   1.974  0.00  0.00     0.163 C 
HETATM    8  O   UNK N   1      21.345  20.562   0.760  0.00  0.00    -0.648 OA
BRANCH   7   9
HETATM    9  O   UNK N   1      21.654  21.705   2.638  0.00  0.00    -0.775 OA
HETATM   10  H   UNK N   1      21.023  22.145   3.172  0.00  0.00     0.167 HD
ENDBRANCH   7   9
ENDBRANCH   2   7
TORSDOF 2
ENDMDL
