REMARK  15 active torsions:
REMARK  status: ('A' for Active; 'I' for Inactive)
REMARK    1  A    between atoms: N_1  and  C_2 
REMARK    2  A    between atoms: C_14  and  N_13 
REMARK    3  A    between atoms: C_16  and  C_34 
REMARK    4  A    between atoms: C_17  and  O_18 
REMARK    5  A    between atoms: C_19  and  O_20 
REMARK    6  A    between atoms: O_21  and  P_23 
REMARK    7  A    between atoms: C_34  and  O_21 
REMARK    8  A    between atoms: P_23  and  O_25 
REMARK    9  A    between atoms: P_23  and  O_24 
REMARK   10  A    between atoms: O_25  and  P_27 
REMARK   11  A    between atoms: P_27  and  O_29 
REMARK   12  A    between atoms: P_27  and  O_28 
REMARK   13  A    between atoms: O_29  and  P_32 
REMARK   14  A    between atoms: P_32  and  O_31 
REMARK   15  A    between atoms: P_32  and  O_33 
ROOT
HETATM    1  C   UNK N   1       5.599   2.681   0.133  0.00  0.00     0.262 C 
HETATM    2  O   UNK N   1       4.863   1.715  -0.566  0.00  0.00    -0.353 OA
HETATM    3  C   UNK N   1       5.804   0.755  -0.987  0.00  0.00     0.180 C 
HETATM    4  C   UNK N   1       7.211   1.209  -0.581  0.00  0.00     0.182 C 
HETATM    5  C   UNK N   1       6.961   2.693  -0.519  0.00  0.00     0.198 C 
ENDROOT
BRANCH   3   6
HETATM    6  C   UNK N   1       5.384  -0.640  -0.512  0.00  0.00     0.215 C 
BRANCH   6   7
HETATM    7  O   UNK N   1       4.963  -0.605   0.826  0.00  0.00    -0.294 OA
BRANCH   7   8
HETATM    8  P   UNK N   1       3.211  -0.601   0.810  0.00  0.00     0.401 P 
HETATM    9  O   UNK N   1       2.762  -2.071   1.031  0.00  0.00    -0.631 OA
BRANCH   8  10
HETATM   10  O   UNK N   1       2.560  -0.021  -0.709  0.00  0.00    -0.195 OA
BRANCH  10  11
HETATM   11  P   UNK N   1       0.831  -0.291  -0.719  0.00  0.00     0.410 P 
HETATM   12  O   UNK N   1       0.582  -1.822  -0.659  0.00  0.00    -0.631 OA
BRANCH  11  13
HETATM   13  O   UNK N   1      -0.006   0.458   0.622  0.00  0.00    -0.195 OA
BRANCH  13  14
HETATM   14  P   UNK N   1      -1.693   0.599   0.174  0.00  0.00     0.399 P 
HETATM   15  O   UNK N   1      -2.182  -0.758  -0.404  0.00  0.00    -0.631 OA
BRANCH  14  16
HETATM   16  O   UNK N   1      -2.682   0.914   1.565  0.00  0.00    -0.307 OA
HETATM   17  H   UNK N   1      -2.806   1.481   2.342  0.00  0.00     0.222 HD
ENDBRANCH  14  16
BRANCH  14  18
HETATM   18  O   UNK N   1      -1.956   1.814  -1.038  0.00  0.00    -0.307 OA
HETATM   19  H   UNK N   1      -1.442   2.282  -1.714  0.00  0.00     0.222 HD
ENDBRANCH  14  18
ENDBRANCH  13  14
ENDBRANCH  11  13
BRANCH  11  20
HETATM   20  O   UNK N   1       0.195   0.242  -2.245  0.00  0.00    -0.307 OA
HETATM   21  H   UNK N   1       0.275   0.698  -3.098  0.00  0.00     0.222 HD
ENDBRANCH  11  20
ENDBRANCH  10  11
ENDBRANCH   8  10
BRANCH   8  22
HETATM   22  O   UNK N   1       2.615   0.336   2.145  0.00  0.00    -0.307 OA
HETATM   23  H   UNK N   1       2.902   0.886   2.891  0.00  0.00     0.222 HD
ENDBRANCH   8  22
ENDBRANCH   7   8
ENDBRANCH   6   7
ENDBRANCH   3   6
BRANCH   4  24
HETATM   24  O   UNK N   1       7.538   0.730   0.695  0.00  0.00    -0.390 OA
HETATM   25  H   UNK N   1       7.363   0.368   1.578  0.00  0.00     0.210 HD
ENDBRANCH   4  24
BRANCH   1  26
HETATM   26  N   UNK N   1       4.901   3.965   0.108  0.00  0.00    -0.297 N 
HETATM   27  C   UNK N   1       3.575   4.144   0.097  0.00  0.00     0.142 A 
HETATM   28  N   UNK N   1       2.608   3.194   0.057  0.00  0.00    -0.336 N 
HETATM   29  C   UNK N   1       3.299   5.458   0.145  0.00  0.00     0.122 A 
HETATM   30  C   UNK N   1       1.303   3.603   0.057  0.00  0.00     0.183 A 
ATOM     31  HN  UNK N   1       2.848   2.203   0.028  1.00  0.00     0.168 HD
HETATM   32  N   UNK N   1       0.996   4.941   0.104  0.00  0.00    -0.337 N 
HETATM   33  C   UNK N   1       1.980   5.888   0.150  0.00  0.00     0.131 A 
ATOM     34  HN  UNK N   1       0.018   5.232   0.104  1.00  0.00     0.168 HD
HETATM   35  N   UNK N   1       4.444   6.164   0.194  0.00  0.00    -0.346 N 
HETATM   36  C   UNK N   1       5.426   5.216   0.179  0.00  0.00     0.188 A 
ATOM     37  HN  UNK N   1       4.554   7.177   0.234  1.00  0.00     0.167 HD
BRANCH  33  38
HETATM   38  N   UNK N   1       1.657   7.258   0.208  0.00  0.00    -0.383 N 
HETATM   39  H   UNK N   1       2.373   7.933   0.249  0.00  0.00     0.157 HD
HETATM   40  H   UNK N   1       0.714   7.541   0.208  0.00  0.00     0.157 HD
ENDBRANCH  33  38
ENDBRANCH   1  26
BRANCH   5  41
HETATM   41  O   UNK N   1       7.915   3.356   0.258  0.00  0.00    -0.388 OA
HETATM   42  H   UNK N   1       8.644   3.013   0.797  0.00  0.00     0.210 HD
ENDBRANCH   5  41
TORSDOF 15
