MODEL 1
REMARK VINA RESULT:      -7.4      0.000      0.000
REMARK  15 active torsions:
REMARK  status: ('A' for Active; 'I' for Inactive)
REMARK    1  A    between atoms: N_1  and  C_2 
REMARK    2  A    between atoms: C_14  and  N_13 
REMARK    3  A    between atoms: C_16  and  C_34 
REMARK    4  A    between atoms: C_17  and  O_18 
REMARK    5  A    between atoms: C_19  and  O_20 
REMARK    6  A    between atoms: O_21  and  P_23 
REMARK    7  A    between atoms: C_34  and  O_21 
REMARK    8  A    between atoms: P_23  and  O_25 
REMARK    9  A    between atoms: P_23  and  O_24 
REMARK   10  A    between atoms: O_25  and  P_27 
REMARK   11  A    between atoms: P_27  and  O_29 
REMARK   12  A    between atoms: P_27  and  O_28 
REMARK   13  A    between atoms: O_29  and  P_32 
REMARK   14  A    between atoms: P_32  and  O_31 
REMARK   15  A    between atoms: P_32  and  O_33 
ROOT
HETATM    1  C   UNK N   1      35.169  14.070  12.011  0.00  0.00     0.262 C 
HETATM    2  O   UNK N   1      35.499  15.417  11.812  0.00  0.00    -0.353 OA
HETATM    3  C   UNK N   1      35.698  15.556  10.424  0.00  0.00     0.180 C 
HETATM    4  C   UNK N   1      35.553  14.187   9.749  0.00  0.00     0.182 C 
HETATM    5  C   UNK N   1      35.902  13.316  10.928  0.00  0.00     0.198 C 
ENDROOT
BRANCH   3   6
HETATM    6  C   UNK N   1      34.810  16.676   9.872  0.00  0.00     0.215 C 
BRANCH   6   7
HETATM    7  O   UNK N   1      34.535  16.469   8.512  0.00  0.00    -0.294 OA
BRANCH   7   8
HETATM    8  P   UNK N   1      33.944  17.990   7.873  0.00  0.00     0.401 P 
HETATM    9  O   UNK N   1      34.897  19.094   8.406  0.00  0.00    -0.631 OA
BRANCH   8  10
HETATM   10  O   UNK N   1      32.308  18.340   8.392  0.00  0.00    -0.195 OA
BRANCH  10  11
HETATM   11  P   UNK N   1      31.314  16.929   8.104  0.00  0.00     0.410 P 
HETATM   12  O   UNK N   1      31.250  16.107   9.419  0.00  0.00    -0.631 OA
BRANCH  11  13
HETATM   13  O   UNK N   1      29.679  17.310   7.611  0.00  0.00    -0.195 OA
BRANCH  13  14
HETATM   14  P   UNK N   1      28.867  18.018   8.991  0.00  0.00     0.399 P 
HETATM   15  O   UNK N   1      28.130  16.900   9.778  0.00  0.00    -0.631 OA
BRANCH  14  16
HETATM   16  O   UNK N   1      30.010  18.713  10.096  0.00  0.00    -0.307 OA
HETATM   17  H   UNK N   1      30.946  18.766  10.345  0.00  0.00     0.222 HD
ENDBRANCH  14  16
BRANCH  14  18
HETATM   18  O   UNK N   1      27.684  19.202   8.526  0.00  0.00    -0.307 OA
HETATM   19  H   UNK N   1      26.795  19.478   8.796  0.00  0.00     0.222 HD
ENDBRANCH  14  18
ENDBRANCH  13  14
ENDBRANCH  11  13
BRANCH  11  20
HETATM   20  O   UNK N   1      32.111  15.916   6.940  0.00  0.00    -0.307 OA
HETATM   21  H   UNK N   1      32.214  15.084   6.451  0.00  0.00     0.222 HD
ENDBRANCH  11  20
ENDBRANCH  10  11
ENDBRANCH   8  10
BRANCH   8  22
HETATM   22  O   UNK N   1      34.064  17.984   6.141  0.00  0.00    -0.307 OA
HETATM   23  H   UNK N   1      33.533  17.926   5.331  0.00  0.00     0.222 HD
ENDBRANCH   8  22
ENDBRANCH   7   8
ENDBRANCH   6   7
ENDBRANCH   3   6
BRANCH   4  24
HETATM   24  O   UNK N   1      34.224  13.960   9.369  0.00  0.00    -0.390 OA
HETATM   25  H   UNK N   1      33.384  14.151   8.921  0.00  0.00     0.210 HD
ENDBRANCH   4  24
BRANCH   1  26
HETATM   26  N   UNK N   1      35.507  13.662  13.373  0.00  0.00    -0.297 N 
HETATM   27  C   UNK N   1      35.031  12.591  14.018  0.00  0.00     0.142 A 
HETATM   28  N   UNK N   1      34.112  11.696  13.579  0.00  0.00    -0.336 N 
HETATM   29  C   UNK N   1      35.618  12.496  15.224  0.00  0.00     0.122 A 
HETATM   30  C   UNK N   1      33.770  10.664  14.409  0.00  0.00     0.183 A 
ATOM     31  HN  UNK N   1      33.689  11.790  12.656  1.00  0.00     0.168 HD
HETATM   32  N   UNK N   1      34.355  10.547  15.647  0.00  0.00    -0.337 N 
HETATM   33  C   UNK N   1      35.284  11.453  16.075  0.00  0.00     0.131 A 
ATOM     34  HN  UNK N   1      34.091   9.772  16.256  1.00  0.00     0.168 HD
HETATM   35  N   UNK N   1      36.495  13.504  15.386  0.00  0.00    -0.346 N 
HETATM   36  C   UNK N   1      36.416  14.211  14.220  0.00  0.00     0.188 A 
ATOM     37  HN  UNK N   1      37.085  13.697  16.194  1.00  0.00     0.167 HD
BRANCH  33  38
HETATM   38  N   UNK N   1      35.887  11.320  17.341  0.00  0.00    -0.383 N 
HETATM   39  H   UNK N   1      36.459  10.543  17.537  0.00  0.00     0.157 HD
HETATM   40  H   UNK N   1      35.735  12.006  18.032  0.00  0.00     0.157 HD
ENDBRANCH  33  38
ENDBRANCH   1  26
BRANCH   5  41
HETATM   41  O   UNK N   1      35.427  12.010  10.776  0.00  0.00    -0.388 OA
HETATM   42  H   UNK N   1      34.601  11.676  10.396  0.00  0.00     0.210 HD
ENDBRANCH   5  41
TORSDOF 15
ENDMDL
MODEL 2
REMARK VINA RESULT:      -7.4      7.224     10.167
REMARK  15 active torsions:
REMARK  status: ('A' for Active; 'I' for Inactive)
REMARK    1  A    between atoms: N_1  and  C_2 
REMARK    2  A    between atoms: C_14  and  N_13 
REMARK    3  A    between atoms: C_16  and  C_34 
REMARK    4  A    between atoms: C_17  and  O_18 
REMARK    5  A    between atoms: C_19  and  O_20 
REMARK    6  A    between atoms: O_21  and  P_23 
REMARK    7  A    between atoms: C_34  and  O_21 
REMARK    8  A    between atoms: P_23  and  O_25 
REMARK    9  A    between atoms: P_23  and  O_24 
REMARK   10  A    between atoms: O_25  and  P_27 
REMARK   11  A    between atoms: P_27  and  O_29 
REMARK   12  A    between atoms: P_27  and  O_28 
REMARK   13  A    between atoms: O_29  and  P_32 
REMARK   14  A    between atoms: P_32  and  O_31 
REMARK   15  A    between atoms: P_32  and  O_33 
ROOT
HETATM    1  C   UNK N   1      28.599  17.346   7.527  0.00  0.00     0.262 C 
HETATM    2  O   UNK N   1      29.834  17.603   6.915  0.00  0.00    -0.353 OA
HETATM    3  C   UNK N   1      30.686  18.033   7.951  0.00  0.00     0.180 C 
HETATM    4  C   UNK N   1      29.894  18.115   9.261  0.00  0.00     0.182 C 
HETATM    5  C   UNK N   1      28.518  18.315   8.682  0.00  0.00     0.198 C 
ENDROOT
BRANCH   3   6
HETATM    6  C   UNK N   1      31.954  17.173   7.983  0.00  0.00     0.215 C 
BRANCH   6   7
HETATM    7  O   UNK N   1      32.871  17.673   8.920  0.00  0.00    -0.294 OA
BRANCH   7   8
HETATM    8  P   UNK N   1      34.447  17.647   8.156  0.00  0.00     0.401 P 
HETATM    9  O   UNK N   1      34.200  17.741   6.626  0.00  0.00    -0.631 OA
BRANCH   8  10
HETATM   10  O   UNK N   1      35.334  16.179   8.508  0.00  0.00    -0.195 OA
BRANCH  10  11
HETATM   11  P   UNK N   1      35.542  16.049  10.241  0.00  0.00     0.410 P 
HETATM   12  O   UNK N   1      35.255  17.441  10.866  0.00  0.00    -0.631 OA
BRANCH  11  13
HETATM   13  O   UNK N   1      34.481  14.878  10.991  0.00  0.00    -0.195 OA
BRANCH  13  14
HETATM   14  P   UNK N   1      35.430  13.986  12.162  0.00  0.00     0.399 P 
HETATM   15  O   UNK N   1      36.435  13.068  11.411  0.00  0.00    -0.631 OA
BRANCH  14  16
HETATM   16  O   UNK N   1      36.391  15.058  13.131  0.00  0.00    -0.307 OA
HETATM   17  H   UNK N   1      37.068  15.115  13.823  0.00  0.00     0.222 HD
ENDBRANCH  14  16
BRANCH  14  18
HETATM   18  O   UNK N   1      34.449  12.974  13.176  0.00  0.00    -0.307 OA
HETATM   19  H   UNK N   1      33.967  12.136  13.109  0.00  0.00     0.222 HD
ENDBRANCH  14  18
ENDBRANCH  13  14
ENDBRANCH  11  13
BRANCH  11  20
HETATM   20  O   UNK N   1      37.211  15.704  10.576  0.00  0.00    -0.307 OA
HETATM   21  H   UNK N   1      38.088  15.946  10.914  0.00  0.00     0.222 HD
ENDBRANCH  11  20
ENDBRANCH  10  11
ENDBRANCH   8  10
BRANCH   8  22
HETATM   22  O   UNK N   1      35.351  19.053   8.629  0.00  0.00    -0.307 OA
HETATM   23  H   UNK N   1      35.258  19.997   8.834  0.00  0.00     0.222 HD
ENDBRANCH   8  22
ENDBRANCH   7   8
ENDBRANCH   6   7
ENDBRANCH   3   6
BRANCH   4  24
HETATM   24  O   UNK N   1      29.946  16.895   9.949  0.00  0.00    -0.390 OA
HETATM   25  H   UNK N   1      29.783  15.948  10.089  0.00  0.00     0.210 HD
ENDBRANCH   4  24
BRANCH   1  26
HETATM   26  N   UNK N   1      27.517  17.469   6.552  0.00  0.00    -0.297 N 
HETATM   27  C   UNK N   1      27.183  18.574   5.876  0.00  0.00     0.142 A 
HETATM   28  N   UNK N   1      27.732  19.810   5.980  0.00  0.00    -0.336 N 
HETATM   29  C   UNK N   1      26.186  18.293   5.021  0.00  0.00     0.122 A 
HETATM   30  C   UNK N   1      27.235  20.804   5.183  0.00  0.00     0.183 A 
ATOM     31  HN  UNK N   1      28.493  19.992   6.634  1.00  0.00     0.168 HD
HETATM   32  N   UNK N   1      26.215  20.542   4.302  0.00  0.00    -0.337 N 
HETATM   33  C   UNK N   1      25.675  19.290   4.203  0.00  0.00     0.131 A 
ATOM     34  HN  UNK N   1      25.854  21.293   3.713  1.00  0.00     0.168 HD
HETATM   35  N   UNK N   1      25.852  16.993   5.119  0.00  0.00    -0.346 N 
HETATM   36  C   UNK N   1      26.698  16.498   6.070  0.00  0.00     0.188 A 
ATOM     37  HN  UNK N   1      25.132  16.490   4.601  1.00  0.00     0.167 HD
BRANCH  33  38
HETATM   38  N   UNK N   1      24.635  19.027   3.289  0.00  0.00    -0.383 N 
HETATM   39  H   UNK N   1      23.983  18.312   3.476  0.00  0.00     0.157 HD
HETATM   40  H   UNK N   1      24.560  19.557   2.463  0.00  0.00     0.157 HD
ENDBRANCH  33  38
ENDBRANCH   1  26
BRANCH   5  41
HETATM   41  O   UNK N   1      27.510  17.976   9.589  0.00  0.00    -0.388 OA
HETATM   42  H   UNK N   1      26.897  18.532  10.093  0.00  0.00     0.210 HD
ENDBRANCH   5  41
TORSDOF 15
ENDMDL
MODEL 3
REMARK VINA RESULT:      -7.3     11.250     13.523
REMARK  15 active torsions:
REMARK  status: ('A' for Active; 'I' for Inactive)
REMARK    1  A    between atoms: N_1  and  C_2 
REMARK    2  A    between atoms: C_14  and  N_13 
REMARK    3  A    between atoms: C_16  and  C_34 
REMARK    4  A    between atoms: C_17  and  O_18 
REMARK    5  A    between atoms: C_19  and  O_20 
REMARK    6  A    between atoms: O_21  and  P_23 
REMARK    7  A    between atoms: C_34  and  O_21 
REMARK    8  A    between atoms: P_23  and  O_25 
REMARK    9  A    between atoms: P_23  and  O_24 
REMARK   10  A    between atoms: O_25  and  P_27 
REMARK   11  A    between atoms: P_27  and  O_29 
REMARK   12  A    between atoms: P_27  and  O_28 
REMARK   13  A    between atoms: O_29  and  P_32 
REMARK   14  A    between atoms: P_32  and  O_31 
REMARK   15  A    between atoms: P_32  and  O_33 
ROOT
HETATM    1  C   UNK N   1      21.793  14.649   7.863  0.00  0.00     0.262 C 
HETATM    2  O   UNK N   1      21.734  13.842   6.720  0.00  0.00    -0.353 OA
HETATM    3  C   UNK N   1      21.227  14.669   5.699  0.00  0.00     0.180 C 
HETATM    4  C   UNK N   1      20.886  16.046   6.282  0.00  0.00     0.182 C 
HETATM    5  C   UNK N   1      20.660  15.636   7.713  0.00  0.00     0.198 C 
ENDROOT
BRANCH   3   6
HETATM    6  C   UNK N   1      22.175  14.665   4.495  0.00  0.00     0.215 C 
BRANCH   6   7
HETATM    7  O   UNK N   1      21.639  13.909   3.441  0.00  0.00    -0.294 OA
BRANCH   7   8
HETATM    8  P   UNK N   1      20.722  15.014   2.437  0.00  0.00     0.401 P 
HETATM    9  O   UNK N   1      20.818  14.476   0.984  0.00  0.00    -0.631 OA
BRANCH   8  10
HETATM   10  O   UNK N   1      21.356  16.646   2.491  0.00  0.00    -0.195 OA
BRANCH  10  11
HETATM   11  P   UNK N   1      20.076  17.760   2.063  0.00  0.00     0.410 P 
HETATM   12  O   UNK N   1      19.125  17.893   3.282  0.00  0.00    -0.631 OA
BRANCH  11  13
HETATM   13  O   UNK N   1      20.648  19.356   1.631  0.00  0.00    -0.195 OA
BRANCH  13  14
HETATM   14  P   UNK N   1      21.320  20.080   3.077  0.00  0.00     0.399 P 
HETATM   15  O   UNK N   1      20.211  20.887   3.807  0.00  0.00    -0.631 OA
BRANCH  14  16
HETATM   16  O   UNK N   1      21.846  18.862   4.196  0.00  0.00    -0.307 OA
HETATM   17  H   UNK N   1      22.581  18.551   4.747  0.00  0.00     0.222 HD
ENDBRANCH  14  16
BRANCH  14  18
HETATM   18  O   UNK N   1      22.622  21.174   2.724  0.00  0.00    -0.307 OA
HETATM   19  H   UNK N   1      23.490  21.405   3.090  0.00  0.00     0.222 HD
ENDBRANCH  14  18
ENDBRANCH  13  14
ENDBRANCH  11  13
BRANCH  11  20
HETATM   20  O   UNK N   1      19.130  17.056   0.787  0.00  0.00    -0.307 OA
HETATM   21  H   UNK N   1      18.449  16.449   0.457  0.00  0.00     0.222 HD
ENDBRANCH  11  20
ENDBRANCH  10  11
ENDBRANCH   8  10
BRANCH   8  22
HETATM   22  O   UNK N   1      19.049  14.977   2.901  0.00  0.00    -0.307 OA
HETATM   23  H   UNK N   1      18.270  14.399   2.934  0.00  0.00     0.222 HD
ENDBRANCH   8  22
ENDBRANCH   7   8
ENDBRANCH   6   7
ENDBRANCH   3   6
BRANCH   4  24
HETATM   24  O   UNK N   1      21.991  16.905   6.204  0.00  0.00    -0.390 OA
HETATM   25  H   UNK N   1      22.927  17.154   6.264  0.00  0.00     0.210 HD
ENDBRANCH   4  24
BRANCH   1  26
HETATM   26  N   UNK N   1      21.727  13.825   9.069  0.00  0.00    -0.297 N 
HETATM   27  C   UNK N   1      22.768  13.314   9.736  0.00  0.00     0.142 A 
HETATM   28  N   UNK N   1      24.084  13.405   9.419  0.00  0.00    -0.336 N 
HETATM   29  C   UNK N   1      22.328  12.671  10.830  0.00  0.00     0.122 A 
HETATM   30  C   UNK N   1      24.989  12.805  10.251  0.00  0.00     0.183 A 
ATOM     31  HN  UNK N   1      24.388  13.906   8.584  1.00  0.00     0.168 HD
HETATM   32  N   UNK N   1      24.563  12.141  11.375  0.00  0.00    -0.337 N 
HETATM   33  C   UNK N   1      23.235  12.062  11.686  0.00  0.00     0.131 A 
ATOM     34  HN  UNK N   1      25.250  11.699  11.987  1.00  0.00     0.168 HD
HETATM   35  N   UNK N   1      20.987  12.755  10.902  0.00  0.00    -0.346 N 
HETATM   36  C   UNK N   1      20.635  13.483   9.802  0.00  0.00     0.188 A 
ATOM     37  HN  UNK N   1      20.372  12.364  11.615  1.00  0.00     0.167 HD
BRANCH  33  38
HETATM   38  N   UNK N   1      22.807  11.386  12.846  0.00  0.00    -0.383 N 
HETATM   39  H   UNK N   1      23.465  10.951  13.435  0.00  0.00     0.157 HD
HETATM   40  H   UNK N   1      21.849  11.350  13.068  0.00  0.00     0.157 HD
ENDBRANCH  33  38
ENDBRANCH   1  26
BRANCH   5  41
HETATM   41  O   UNK N   1      20.776  16.714   8.595  0.00  0.00    -0.388 OA
HETATM   42  H   UNK N   1      21.088  17.621   8.451  0.00  0.00     0.210 HD
ENDBRANCH   5  41
TORSDOF 15
ENDMDL
MODEL 4
REMARK VINA RESULT:      -7.2      2.968      4.780
REMARK  15 active torsions:
REMARK  status: ('A' for Active; 'I' for Inactive)
REMARK    1  A    between atoms: N_1  and  C_2 
REMARK    2  A    between atoms: C_14  and  N_13 
REMARK    3  A    between atoms: C_16  and  C_34 
REMARK    4  A    between atoms: C_17  and  O_18 
REMARK    5  A    between atoms: C_19  and  O_20 
REMARK    6  A    between atoms: O_21  and  P_23 
REMARK    7  A    between atoms: C_34  and  O_21 
REMARK    8  A    between atoms: P_23  and  O_25 
REMARK    9  A    between atoms: P_23  and  O_24 
REMARK   10  A    between atoms: O_25  and  P_27 
REMARK   11  A    between atoms: P_27  and  O_29 
REMARK   12  A    between atoms: P_27  and  O_28 
REMARK   13  A    between atoms: O_29  and  P_32 
REMARK   14  A    between atoms: P_32  and  O_31 
REMARK   15  A    between atoms: P_32  and  O_33 
ROOT
HETATM    1  C   UNK N   1      34.665  16.449   8.348  0.00  0.00     0.262 C 
HETATM    2  O   UNK N   1      33.553  15.667   8.009  0.00  0.00    -0.353 OA
HETATM    3  C   UNK N   1      32.727  16.501   7.231  0.00  0.00     0.180 C 
HETATM    4  C   UNK N   1      33.344  17.903   7.158  0.00  0.00     0.182 C 
HETATM    5  C   UNK N   1      34.145  17.864   8.432  0.00  0.00     0.198 C 
ENDROOT
BRANCH   3   6
HETATM    6  C   UNK N   1      32.416  15.832   5.888  0.00  0.00     0.215 C 
BRANCH   6   7
HETATM    7  O   UNK N   1      32.010  16.783   4.940  0.00  0.00    -0.294 OA
BRANCH   7   8
HETATM    8  P   UNK N   1      30.280  16.596   4.737  0.00  0.00     0.401 P 
HETATM    9  O   UNK N   1      30.046  16.208   3.252  0.00  0.00    -0.631 OA
BRANCH   8  10
HETATM   10  O   UNK N   1      29.405  18.071   5.093  0.00  0.00    -0.195 OA
BRANCH  10  11
HETATM   11  P   UNK N   1      28.599  17.888   6.636  0.00  0.00     0.410 P 
HETATM   12  O   UNK N   1      27.282  17.101   6.401  0.00  0.00    -0.631 OA
BRANCH  11  13
HETATM   13  O   UNK N   1      29.550  17.033   7.829  0.00  0.00    -0.195 OA
BRANCH  13  14
HETATM   14  P   UNK N   1      29.146  17.700   9.397  0.00  0.00     0.399 P 
HETATM   15  O   UNK N   1      29.941  19.019   9.610  0.00  0.00    -0.631 OA
BRANCH  14  16
HETATM   16  O   UNK N   1      27.467  18.133   9.476  0.00  0.00    -0.307 OA
HETATM   17  H   UNK N   1      26.558  17.795   9.492  0.00  0.00     0.222 HD
ENDBRANCH  14  16
BRANCH  14  18
HETATM   18  O   UNK N   1      29.551  16.624  10.698  0.00  0.00    -0.307 OA
HETATM   19  H   UNK N   1      29.097  16.159  11.418  0.00  0.00     0.222 HD
ENDBRANCH  14  18
ENDBRANCH  13  14
ENDBRANCH  11  13
BRANCH  11  20
HETATM   20  O   UNK N   1      28.126  19.460   7.205  0.00  0.00    -0.307 OA
HETATM   21  H   UNK N   1      28.234  20.423   7.259  0.00  0.00     0.222 HD
ENDBRANCH  11  20
ENDBRANCH  10  11
ENDBRANCH   8  10
BRANCH   8  22
HETATM   22  O   UNK N   1      29.714  15.280   5.719  0.00  0.00    -0.307 OA
HETATM   23  H   UNK N   1      29.322  14.394   5.670  0.00  0.00     0.222 HD
ENDBRANCH   8  22
ENDBRANCH   7   8
ENDBRANCH   6   7
ENDBRANCH   3   6
BRANCH   4  24
HETATM   24  O   UNK N   1      34.207  18.008   6.058  0.00  0.00    -0.390 OA
HETATM   25  H   UNK N   1      34.453  18.001   5.120  0.00  0.00     0.210 HD
ENDBRANCH   4  24
BRANCH   1  26
HETATM   26  N   UNK N   1      35.278  15.952   9.578  0.00  0.00    -0.297 N 
HETATM   27  C   UNK N   1      35.665  14.693   9.815  0.00  0.00     0.142 A 
HETATM   28  N   UNK N   1      35.531  13.615   9.004  0.00  0.00    -0.336 N 
HETATM   29  C   UNK N   1      36.249  14.623  11.024  0.00  0.00     0.122 A 
HETATM   30  C   UNK N   1      36.006  12.411   9.448  0.00  0.00     0.183 A 
ATOM     31  HN  UNK N   1      35.090  13.700   8.088  1.00  0.00     0.168 HD
HETATM   32  N   UNK N   1      36.605  12.315  10.681  0.00  0.00    -0.337 N 
HETATM   33  C   UNK N   1      36.739  13.411  11.486  0.00  0.00     0.131 A 
ATOM     34  HN  UNK N   1      36.954  11.411  10.999  1.00  0.00     0.168 HD
HETATM   35  N   UNK N   1      36.259  15.841  11.597  0.00  0.00    -0.346 N 
HETATM   36  C   UNK N   1      35.659  16.652  10.678  0.00  0.00     0.188 A 
ATOM     37  HN  UNK N   1      36.630  16.100  12.511  1.00  0.00     0.167 HD
BRANCH  33  38
HETATM   38  N   UNK N   1      37.363  13.305  12.745  0.00  0.00    -0.383 N 
HETATM   39  H   UNK N   1      37.994  14.000  13.042  0.00  0.00     0.157 HD
HETATM   40  H   UNK N   1      37.169  12.536  13.327  0.00  0.00     0.157 HD
ENDBRANCH  33  38
ENDBRANCH   1  26
BRANCH   5  41
HETATM   41  O   UNK N   1      35.176  18.809   8.435  0.00  0.00    -0.388 OA
HETATM   42  H   UNK N   1      35.167  19.758   8.243  0.00  0.00     0.210 HD
ENDBRANCH   5  41
TORSDOF 15
ENDMDL
MODEL 5
REMARK VINA RESULT:      -7.2      1.109      2.497
REMARK  15 active torsions:
REMARK  status: ('A' for Active; 'I' for Inactive)
REMARK    1  A    between atoms: N_1  and  C_2 
REMARK    2  A    between atoms: C_14  and  N_13 
REMARK    3  A    between atoms: C_16  and  C_34 
REMARK    4  A    between atoms: C_17  and  O_18 
REMARK    5  A    between atoms: C_19  and  O_20 
REMARK    6  A    between atoms: O_21  and  P_23 
REMARK    7  A    between atoms: C_34  and  O_21 
REMARK    8  A    between atoms: P_23  and  O_25 
REMARK    9  A    between atoms: P_23  and  O_24 
REMARK   10  A    between atoms: O_25  and  P_27 
REMARK   11  A    between atoms: P_27  and  O_29 
REMARK   12  A    between atoms: P_27  and  O_28 
REMARK   13  A    between atoms: O_29  and  P_32 
REMARK   14  A    between atoms: P_32  and  O_31 
REMARK   15  A    between atoms: P_32  and  O_33 
ROOT
HETATM    1  C   UNK N   1      35.352  14.070  12.049  0.00  0.00     0.262 C 
HETATM    2  O   UNK N   1      35.632  15.435  11.903  0.00  0.00    -0.353 OA
HETATM    3  C   UNK N   1      35.938  15.614  10.539  0.00  0.00     0.180 C 
HETATM    4  C   UNK N   1      35.914  14.255   9.830  0.00  0.00     0.182 C 
HETATM    5  C   UNK N   1      36.207  13.375  11.016  0.00  0.00     0.198 C 
ENDROOT
BRANCH   3   6
HETATM    6  C   UNK N   1      35.044  16.703   9.937  0.00  0.00     0.215 C 
BRANCH   6   7
HETATM    7  O   UNK N   1      34.916  16.532   8.550  0.00  0.00    -0.294 OA
BRANCH   7   8
HETATM    8  P   UNK N   1      34.175  17.990   7.922  0.00  0.00     0.401 P 
HETATM    9  O   UNK N   1      35.022  19.180   8.447  0.00  0.00    -0.631 OA
BRANCH   8  10
HETATM   10  O   UNK N   1      32.518  18.180   8.459  0.00  0.00    -0.195 OA
BRANCH  10  11
HETATM   11  P   UNK N   1      31.577  16.829   7.865  0.00  0.00     0.410 P 
HETATM   12  O   UNK N   1      30.104  17.037   8.309  0.00  0.00    -0.631 OA
BRANCH  11  13
HETATM   13  O   UNK N   1      31.611  16.659   6.124  0.00  0.00    -0.195 OA
BRANCH  13  14
HETATM   14  P   UNK N   1      32.240  15.065   5.765  0.00  0.00     0.399 P 
HETATM   15  O   UNK N   1      31.272  13.994   6.341  0.00  0.00    -0.631 OA
BRANCH  14  16
HETATM   16  O   UNK N   1      32.298  14.790   4.053  0.00  0.00    -0.307 OA
HETATM   17  H   UNK N   1      31.822  14.890   3.214  0.00  0.00     0.222 HD
ENDBRANCH  14  16
BRANCH  14  18
HETATM   18  O   UNK N   1      33.803  14.797   6.471  0.00  0.00    -0.307 OA
HETATM   19  H   UNK N   1      34.646  14.387   6.223  0.00  0.00     0.222 HD
ENDBRANCH  14  18
ENDBRANCH  13  14
ENDBRANCH  11  13
BRANCH  11  20
HETATM   20  O   UNK N   1      32.120  15.382   8.657  0.00  0.00    -0.307 OA
HETATM   21  H   UNK N   1      32.611  14.915   9.352  0.00  0.00     0.222 HD
ENDBRANCH  11  20
ENDBRANCH  10  11
ENDBRANCH   8  10
BRANCH   8  22
HETATM   22  O   UNK N   1      34.275  17.998   6.188  0.00  0.00    -0.307 OA
HETATM   23  H   UNK N   1      33.733  18.021   5.384  0.00  0.00     0.222 HD
ENDBRANCH   8  22
ENDBRANCH   7   8
ENDBRANCH   6   7
ENDBRANCH   3   6
BRANCH   4  24
HETATM   24  O   UNK N   1      34.632  13.975   9.337  0.00  0.00    -0.390 OA
HETATM   25  H   UNK N   1      33.905  13.996   8.695  0.00  0.00     0.210 HD
ENDBRANCH   4  24
BRANCH   1  26
HETATM   26  N   UNK N   1      35.598  13.647  13.426  0.00  0.00    -0.297 N 
HETATM   27  C   UNK N   1      35.075  12.573  14.029  0.00  0.00     0.142 A 
HETATM   28  N   UNK N   1      34.182  11.687  13.522  0.00  0.00    -0.336 N 
HETATM   29  C   UNK N   1      35.579  12.464  15.269  0.00  0.00     0.122 A 
HETATM   30  C   UNK N   1      33.780  10.650  14.318  0.00  0.00     0.183 A 
ATOM     31  HN  UNK N   1      33.821  11.792  12.573  1.00  0.00     0.168 HD
HETATM   32  N   UNK N   1      34.281  10.519  15.590  0.00  0.00    -0.337 N 
HETATM   33  C   UNK N   1      35.185  11.415  16.087  0.00  0.00     0.131 A 
ATOM     34  HN  UNK N   1      33.973   9.740  16.173  1.00  0.00     0.168 HD
HETATM   35  N   UNK N   1      36.449  13.466  15.498  0.00  0.00    -0.346 N 
HETATM   36  C   UNK N   1      36.451  14.183  14.337  0.00  0.00     0.188 A 
ATOM     37  HN  UNK N   1      36.986  13.648  16.346  1.00  0.00     0.167 HD
BRANCH  33  38
HETATM   38  N   UNK N   1      35.702  11.268  17.389  0.00  0.00    -0.383 N 
HETATM   39  H   UNK N   1      35.547  11.968  18.064  0.00  0.00     0.157 HD
HETATM   40  H   UNK N   1      36.218  10.463  17.625  0.00  0.00     0.157 HD
ENDBRANCH  33  38
ENDBRANCH   1  26
BRANCH   5  41
HETATM   41  O   UNK N   1      35.810  12.052  10.802  0.00  0.00    -0.388 OA
HETATM   42  H   UNK N   1      35.928  11.470  10.036  0.00  0.00     0.210 HD
ENDBRANCH   5  41
TORSDOF 15
ENDMDL
MODEL 6
REMARK VINA RESULT:      -7.0      5.557      8.717
REMARK  15 active torsions:
REMARK  status: ('A' for Active; 'I' for Inactive)
REMARK    1  A    between atoms: N_1  and  C_2 
REMARK    2  A    between atoms: C_14  and  N_13 
REMARK    3  A    between atoms: C_16  and  C_34 
REMARK    4  A    between atoms: C_17  and  O_18 
REMARK    5  A    between atoms: C_19  and  O_20 
REMARK    6  A    between atoms: O_21  and  P_23 
REMARK    7  A    between atoms: C_34  and  O_21 
REMARK    8  A    between atoms: P_23  and  O_25 
REMARK    9  A    between atoms: P_23  and  O_24 
REMARK   10  A    between atoms: O_25  and  P_27 
REMARK   11  A    between atoms: P_27  and  O_29 
REMARK   12  A    between atoms: P_27  and  O_28 
REMARK   13  A    between atoms: O_29  and  P_32 
REMARK   14  A    between atoms: P_32  and  O_31 
REMARK   15  A    between atoms: P_32  and  O_33 
ROOT
HETATM    1  C   UNK N   1      32.813  17.003   8.540  0.00  0.00     0.262 C 
HETATM    2  O   UNK N   1      32.798  15.781   9.226  0.00  0.00    -0.353 OA
HETATM    3  C   UNK N   1      34.151  15.447   9.430  0.00  0.00     0.180 C 
HETATM    4  C   UNK N   1      35.043  16.497   8.756  0.00  0.00     0.182 C 
HETATM    5  C   UNK N   1      34.073  16.978   7.709  0.00  0.00     0.198 C 
ENDROOT
BRANCH   3   6
HETATM    6  C   UNK N   1      34.415  15.196  10.919  0.00  0.00     0.215 C 
BRANCH   6   7
HETATM    7  O   UNK N   1      35.772  15.382  11.223  0.00  0.00    -0.294 OA
BRANCH   7   8
HETATM    8  P   UNK N   1      36.480  13.788  11.393  0.00  0.00     0.401 P 
HETATM    9  O   UNK N   1      37.608  13.687  10.330  0.00  0.00    -0.631 OA
BRANCH   8  10
HETATM   10  O   UNK N   1      35.315  12.509  11.121  0.00  0.00    -0.195 OA
BRANCH  10  11
HETATM   11  P   UNK N   1      34.917  11.775  12.659  0.00  0.00     0.410 P 
HETATM   12  O   UNK N   1      36.156  10.977  13.147  0.00  0.00    -0.631 OA
BRANCH  11  13
HETATM   13  O   UNK N   1      34.480  12.930  13.898  0.00  0.00    -0.195 OA
BRANCH  13  14
HETATM   14  P   UNK N   1      34.945  12.244  15.441  0.00  0.00     0.399 P 
HETATM   15  O   UNK N   1      34.318  13.089  16.584  0.00  0.00    -0.631 OA
BRANCH  14  16
HETATM   16  O   UNK N   1      34.309  10.639  15.625  0.00  0.00    -0.307 OA
HETATM   17  H   UNK N   1      34.380   9.806  16.117  0.00  0.00     0.222 HD
ENDBRANCH  14  16
BRANCH  14  18
HETATM   18  O   UNK N   1      36.665  12.239  15.671  0.00  0.00    -0.307 OA
HETATM   19  H   UNK N   1      37.466  12.165  15.129  0.00  0.00     0.222 HD
ENDBRANCH  14  18
ENDBRANCH  13  14
ENDBRANCH  11  13
BRANCH  11  20
HETATM   20  O   UNK N   1      33.658  10.605  12.406  0.00  0.00    -0.307 OA
HETATM   21  H   UNK N   1      33.026   9.939  12.722  0.00  0.00     0.222 HD
ENDBRANCH  11  20
ENDBRANCH  10  11
ENDBRANCH   8  10
BRANCH   8  22
HETATM   22  O   UNK N   1      37.219  13.639  12.958  0.00  0.00    -0.307 OA
HETATM   23  H   UNK N   1      37.697  14.142  13.636  0.00  0.00     0.222 HD
ENDBRANCH   8  22
ENDBRANCH   7   8
ENDBRANCH   6   7
ENDBRANCH   3   6
BRANCH   4  24
HETATM   24  O   UNK N   1      35.337  17.541   9.644  0.00  0.00    -0.390 OA
HETATM   25  H   UNK N   1      35.909  18.138  10.151  0.00  0.00     0.210 HD
ENDBRANCH   4  24
BRANCH   1  26
HETATM   26  N   UNK N   1      31.580  17.166   7.771  0.00  0.00    -0.297 N 
HETATM   27  C   UNK N   1      30.381  17.499   8.262  0.00  0.00     0.142 A 
HETATM   28  N   UNK N   1      30.041  17.706   9.558  0.00  0.00    -0.336 N 
HETATM   29  C   UNK N   1      29.502  17.624   7.253  0.00  0.00     0.122 A 
HETATM   30  C   UNK N   1      28.746  18.046   9.838  0.00  0.00     0.183 A 
ATOM     31  HN  UNK N   1      30.732  17.611  10.303  1.00  0.00     0.168 HD
HETATM   32  N   UNK N   1      27.829  18.178   8.824  0.00  0.00    -0.337 N 
HETATM   33  C   UNK N   1      28.186  17.972   7.521  0.00  0.00     0.131 A 
ATOM     34  HN  UNK N   1      26.867  18.433   9.047  1.00  0.00     0.168 HD
HETATM   35  N   UNK N   1      30.115  17.378   6.080  0.00  0.00    -0.346 N 
HETATM   36  C   UNK N   1      31.407  17.105   6.425  0.00  0.00     0.188 A 
ATOM     37  HN  UNK N   1      29.708  17.394   5.145  1.00  0.00     0.167 HD
BRANCH  33  38
HETATM   38  N   UNK N   1      27.242  18.119   6.485  0.00  0.00    -0.383 N 
HETATM   39  H   UNK N   1      26.474  17.505   6.427  0.00  0.00     0.157 HD
HETATM   40  H   UNK N   1      27.351  18.836   5.819  0.00  0.00     0.157 HD
ENDBRANCH  33  38
ENDBRANCH   1  26
BRANCH   5  41
HETATM   41  O   UNK N   1      34.411  18.243   7.219  0.00  0.00    -0.388 OA
HETATM   42  H   UNK N   1      34.688  19.048   7.681  0.00  0.00     0.210 HD
ENDBRANCH   5  41
TORSDOF 15
ENDMDL
MODEL 7
REMARK VINA RESULT:      -7.0      2.482      4.196
REMARK  15 active torsions:
REMARK  status: ('A' for Active; 'I' for Inactive)
REMARK    1  A    between atoms: N_1  and  C_2 
REMARK    2  A    between atoms: C_14  and  N_13 
REMARK    3  A    between atoms: C_16  and  C_34 
REMARK    4  A    between atoms: C_17  and  O_18 
REMARK    5  A    between atoms: C_19  and  O_20 
REMARK    6  A    between atoms: O_21  and  P_23 
REMARK    7  A    between atoms: C_34  and  O_21 
REMARK    8  A    between atoms: P_23  and  O_25 
REMARK    9  A    between atoms: P_23  and  O_24 
REMARK   10  A    between atoms: O_25  and  P_27 
REMARK   11  A    between atoms: P_27  and  O_29 
REMARK   12  A    between atoms: P_27  and  O_28 
REMARK   13  A    between atoms: O_29  and  P_32 
REMARK   14  A    between atoms: P_32  and  O_31 
REMARK   15  A    between atoms: P_32  and  O_33 
ROOT
HETATM    1  C   UNK N   1      35.130  12.148  14.363  0.00  0.00     0.262 C 
HETATM    2  O   UNK N   1      36.033  13.202  14.169  0.00  0.00    -0.353 OA
HETATM    3  C   UNK N   1      36.296  13.225  12.786  0.00  0.00     0.180 C 
HETATM    4  C   UNK N   1      35.563  12.061  12.109  0.00  0.00     0.182 C 
HETATM    5  C   UNK N   1      35.465  11.136  13.293  0.00  0.00     0.198 C 
ENDROOT
BRANCH   3   6
HETATM    6  C   UNK N   1      36.013  14.620  12.217  0.00  0.00     0.215 C 
BRANCH   6   7
HETATM    7  O   UNK N   1      36.142  14.624  10.820  0.00  0.00    -0.294 OA
BRANCH   7   8
HETATM    8  P   UNK N   1      34.971  15.771  10.202  0.00  0.00     0.401 P 
HETATM    9  O   UNK N   1      33.585  15.076  10.282  0.00  0.00    -0.631 OA
BRANCH   8  10
HETATM   10  O   UNK N   1      35.294  16.225   8.542  0.00  0.00    -0.195 OA
BRANCH  10  11
HETATM   11  P   UNK N   1      34.448  17.716   8.191  0.00  0.00     0.410 P 
HETATM   12  O   UNK N   1      35.291  18.892   8.753  0.00  0.00    -0.631 OA
BRANCH  11  13
HETATM   13  O   UNK N   1      34.183  17.990   6.484  0.00  0.00    -0.195 OA
BRANCH  13  14
HETATM   14  P   UNK N   1      33.253  16.638   5.873  0.00  0.00     0.399 P 
HETATM   15  O   UNK N   1      31.978  17.175   5.165  0.00  0.00    -0.631 OA
BRANCH  14  16
HETATM   16  O   UNK N   1      34.143  15.766   4.666  0.00  0.00    -0.307 OA
HETATM   17  H   UNK N   1      34.481  14.897   4.398  0.00  0.00     0.222 HD
ENDBRANCH  14  16
BRANCH  14  18
HETATM   18  O   UNK N   1      32.742  15.563   7.137  0.00  0.00    -0.307 OA
HETATM   19  H   UNK N   1      33.138  14.904   7.728  0.00  0.00     0.222 HD
ENDBRANCH  14  18
ENDBRANCH  13  14
ENDBRANCH  11  13
BRANCH  11  20
HETATM   20  O   UNK N   1      32.954  17.727   9.077  0.00  0.00    -0.307 OA
HETATM   21  H   UNK N   1      32.416  17.951   9.853  0.00  0.00     0.222 HD
ENDBRANCH  11  20
ENDBRANCH  10  11
ENDBRANCH   8  10
BRANCH   8  22
HETATM   22  O   UNK N   1      34.918  17.167  11.233  0.00  0.00    -0.307 OA
HETATM   23  H   UNK N   1      34.845  18.135  11.220  0.00  0.00     0.222 HD
ENDBRANCH   8  22
ENDBRANCH   7   8
ENDBRANCH   6   7
ENDBRANCH   3   6
BRANCH   4  24
HETATM   24  O   UNK N   1      34.279  12.451  11.704  0.00  0.00    -0.390 OA
HETATM   25  H   UNK N   1      33.337  12.330  11.504  0.00  0.00     0.210 HD
ENDBRANCH   4  24
BRANCH   1  26
HETATM   26  N   UNK N   1      35.228  11.643  15.731  0.00  0.00    -0.297 N 
HETATM   27  C   UNK N   1      35.265  12.382  16.846  0.00  0.00     0.142 A 
HETATM   28  N   UNK N   1      35.270  13.734  16.947  0.00  0.00    -0.336 N 
HETATM   29  C   UNK N   1      35.285  11.574  17.919  0.00  0.00     0.122 A 
HETATM   30  C   UNK N   1      35.308  14.286  18.198  0.00  0.00     0.183 A 
ATOM     31  HN  UNK N   1      35.247  14.322  16.114  1.00  0.00     0.168 HD
HETATM   32  N   UNK N   1      35.331  13.481  19.310  0.00  0.00    -0.337 N 
HETATM   33  C   UNK N   1      35.319  12.119  19.194  0.00  0.00     0.131 A 
ATOM     34  HN  UNK N   1      35.358  13.906  20.237  1.00  0.00     0.168 HD
HETATM   35  N   UNK N   1      35.256  10.288  17.524  0.00  0.00    -0.346 N 
HETATM   36  C   UNK N   1      35.211  10.354  16.161  0.00  0.00     0.188 A 
ATOM     37  HN  UNK N   1      35.265   9.452  18.108  1.00  0.00     0.167 HD
BRANCH  33  38
HETATM   38  N   UNK N   1      35.333  11.300  20.340  0.00  0.00    -0.383 N 
HETATM   39  H   UNK N   1      35.527  10.338  20.257  0.00  0.00     0.157 HD
HETATM   40  H   UNK N   1      35.147  11.690  21.225  0.00  0.00     0.157 HD
ENDBRANCH  33  38
ENDBRANCH   1  26
BRANCH   5  41
HETATM   41  O   UNK N   1      34.457  10.180  13.133  0.00  0.00    -0.388 OA
HETATM   42  H   UNK N   1      34.065   9.559  13.766  0.00  0.00     0.210 HD
ENDBRANCH   5  41
TORSDOF 15
ENDMDL
MODEL 8
REMARK VINA RESULT:      -7.0      7.118      9.818
REMARK  15 active torsions:
REMARK  status: ('A' for Active; 'I' for Inactive)
REMARK    1  A    between atoms: N_1  and  C_2 
REMARK    2  A    between atoms: C_14  and  N_13 
REMARK    3  A    between atoms: C_16  and  C_34 
REMARK    4  A    between atoms: C_17  and  O_18 
REMARK    5  A    between atoms: C_19  and  O_20 
REMARK    6  A    between atoms: O_21  and  P_23 
REMARK    7  A    between atoms: C_34  and  O_21 
REMARK    8  A    between atoms: P_23  and  O_25 
REMARK    9  A    between atoms: P_23  and  O_24 
REMARK   10  A    between atoms: O_25  and  P_27 
REMARK   11  A    between atoms: P_27  and  O_29 
REMARK   12  A    between atoms: P_27  and  O_28 
REMARK   13  A    between atoms: O_29  and  P_32 
REMARK   14  A    between atoms: P_32  and  O_31 
REMARK   15  A    between atoms: P_32  and  O_33 
ROOT
HETATM    1  C   UNK N   1      28.622  17.317   7.441  0.00  0.00     0.262 C 
HETATM    2  O   UNK N   1      29.907  17.396   6.887  0.00  0.00    -0.353 OA
HETATM    3  C   UNK N   1      30.729  17.908   7.911  0.00  0.00     0.180 C 
HETATM    4  C   UNK N   1      29.870  18.231   9.139  0.00  0.00     0.182 C 
HETATM    5  C   UNK N   1      28.551  18.444   8.444  0.00  0.00     0.198 C 
ENDROOT
BRANCH   3   6
HETATM    6  C   UNK N   1      31.920  16.974   8.149  0.00  0.00     0.215 C 
BRANCH   6   7
HETATM    7  O   UNK N   1      32.732  17.457   9.186  0.00  0.00    -0.294 OA
BRANCH   7   8
HETATM    8  P   UNK N   1      34.390  17.104   8.743  0.00  0.00     0.401 P 
HETATM    9  O   UNK N   1      34.637  17.786   7.370  0.00  0.00    -0.631 OA
BRANCH   8  10
HETATM   10  O   UNK N   1      34.688  15.385   8.595  0.00  0.00    -0.195 OA
BRANCH  10  11
HETATM   11  P   UNK N   1      34.695  14.676  10.195  0.00  0.00     0.410 P 
HETATM   12  O   UNK N   1      34.685  13.132  10.038  0.00  0.00    -0.631 OA
BRANCH  11  13
HETATM   13  O   UNK N   1      36.086  15.124  11.157  0.00  0.00    -0.195 OA
BRANCH  13  14
HETATM   14  P   UNK N   1      36.121  14.067  12.552  0.00  0.00     0.399 P 
HETATM   15  O   UNK N   1      37.076  12.875  12.264  0.00  0.00    -0.631 OA
BRANCH  14  16
HETATM   16  O   UNK N   1      36.775  14.884  13.937  0.00  0.00    -0.307 OA
HETATM   17  H   UNK N   1      37.011  14.799  14.874  0.00  0.00     0.222 HD
ENDBRANCH  14  16
BRANCH  14  18
HETATM   18  O   UNK N   1      34.557  13.411  12.925  0.00  0.00    -0.307 OA
HETATM   19  H   UNK N   1      33.913  13.448  13.649  0.00  0.00     0.222 HD
ENDBRANCH  14  18
ENDBRANCH  13  14
ENDBRANCH  11  13
BRANCH  11  20
HETATM   20  O   UNK N   1      33.209  15.090  10.992  0.00  0.00    -0.307 OA
HETATM   21  H   UNK N   1      32.683  15.287  11.784  0.00  0.00     0.222 HD
ENDBRANCH  11  20
ENDBRANCH  10  11
ENDBRANCH   8  10
BRANCH   8  22
HETATM   22  O   UNK N   1      35.471  17.831   9.892  0.00  0.00    -0.307 OA
HETATM   23  H   UNK N   1      35.787  17.759  10.806  0.00  0.00     0.222 HD
ENDBRANCH   8  22
ENDBRANCH   7   8
ENDBRANCH   6   7
ENDBRANCH   3   6
BRANCH   4  24
HETATM   24  O   UNK N   1      29.783  17.121   9.990  0.00  0.00    -0.390 OA
HETATM   25  H   UNK N   1      29.978  16.221  10.296  0.00  0.00     0.210 HD
ENDBRANCH   4  24
BRANCH   1  26
HETATM   26  N   UNK N   1      27.612  17.376   6.387  0.00  0.00    -0.297 N 
HETATM   27  C   UNK N   1      26.519  16.609   6.295  0.00  0.00     0.142 A 
HETATM   28  N   UNK N   1      26.143  15.596   7.114  0.00  0.00    -0.336 N 
HETATM   29  C   UNK N   1      25.789  16.993   5.234  0.00  0.00     0.122 A 
HETATM   30  C   UNK N   1      24.975  14.942   6.835  0.00  0.00     0.183 A 
ATOM     31  HN  UNK N   1      26.715  15.331   7.916  1.00  0.00     0.168 HD
HETATM   32  N   UNK N   1      24.212  15.315   5.755  0.00  0.00    -0.337 N 
HETATM   33  C   UNK N   1      24.600  16.342   4.941  0.00  0.00     0.131 A 
ATOM     34  HN  UNK N   1      23.343  14.819   5.559  1.00  0.00     0.168 HD
HETATM   35  N   UNK N   1      26.391  18.026   4.615  0.00  0.00    -0.346 N 
HETATM   36  C   UNK N   1      27.516  18.253   5.353  0.00  0.00     0.188 A 
ATOM     37  HN  UNK N   1      26.077  18.527   3.784  1.00  0.00     0.167 HD
BRANCH  33  38
HETATM   38  N   UNK N   1      23.807  16.726   3.841  0.00  0.00    -0.383 N 
HETATM   39  H   UNK N   1      23.386  16.040   3.273  0.00  0.00     0.157 HD
HETATM   40  H   UNK N   1      23.674  17.680   3.641  0.00  0.00     0.157 HD
ENDBRANCH  33  38
ENDBRANCH   1  26
BRANCH   5  41
HETATM   41  O   UNK N   1      27.468  18.309   9.317  0.00  0.00    -0.388 OA
HETATM   42  H   UNK N   1      26.614  17.864   9.205  0.00  0.00     0.210 HD
ENDBRANCH   5  41
TORSDOF 15
ENDMDL
MODEL 9
REMARK VINA RESULT:      -7.0      5.676      8.995
REMARK  15 active torsions:
REMARK  status: ('A' for Active; 'I' for Inactive)
REMARK    1  A    between atoms: N_1  and  C_2 
REMARK    2  A    between atoms: C_14  and  N_13 
REMARK    3  A    between atoms: C_16  and  C_34 
REMARK    4  A    between atoms: C_17  and  O_18 
REMARK    5  A    between atoms: C_19  and  O_20 
REMARK    6  A    between atoms: O_21  and  P_23 
REMARK    7  A    between atoms: C_34  and  O_21 
REMARK    8  A    between atoms: P_23  and  O_25 
REMARK    9  A    between atoms: P_23  and  O_24 
REMARK   10  A    between atoms: O_25  and  P_27 
REMARK   11  A    between atoms: P_27  and  O_29 
REMARK   12  A    between atoms: P_27  and  O_28 
REMARK   13  A    between atoms: O_29  and  P_32 
REMARK   14  A    between atoms: P_32  and  O_31 
REMARK   15  A    between atoms: P_32  and  O_33 
ROOT
HETATM    1  C   UNK N   1      32.869  16.930   8.625  0.00  0.00     0.262 C 
HETATM    2  O   UNK N   1      32.835  15.720   9.331  0.00  0.00    -0.353 OA
HETATM    3  C   UNK N   1      34.182  15.393   9.584  0.00  0.00     0.180 C 
HETATM    4  C   UNK N   1      35.092  16.435   8.922  0.00  0.00     0.182 C 
HETATM    5  C   UNK N   1      34.156  16.896   7.836  0.00  0.00     0.198 C 
ENDROOT
BRANCH   3   6
HETATM    6  C   UNK N   1      34.398  15.167  11.084  0.00  0.00     0.215 C 
BRANCH   6   7
HETATM    7  O   UNK N   1      35.761  15.007  11.372  0.00  0.00    -0.294 OA
BRANCH   7   8
HETATM    8  P   UNK N   1      35.913  13.539  12.318  0.00  0.00     0.401 P 
HETATM    9  O   UNK N   1      35.285  12.399  11.472  0.00  0.00    -0.631 OA
BRANCH   8  10
HETATM   10  O   UNK N   1      35.078  13.647  13.853  0.00  0.00    -0.195 OA
BRANCH  10  11
HETATM   11  P   UNK N   1      36.130  13.033  15.110  0.00  0.00     0.410 P 
HETATM   12  O   UNK N   1      35.373  13.129  16.462  0.00  0.00    -0.631 OA
BRANCH  11  13
HETATM   13  O   UNK N   1      36.620  11.371  14.868  0.00  0.00    -0.195 OA
BRANCH  13  14
HETATM   14  P   UNK N   1      35.168  10.431  14.593  0.00  0.00     0.399 P 
HETATM   15  O   UNK N   1      35.143   9.232  15.581  0.00  0.00    -0.631 OA
BRANCH  14  16
HETATM   16  O   UNK N   1      33.747  11.367  14.935  0.00  0.00    -0.307 OA
HETATM   17  H   UNK N   1      33.108  11.624  15.619  0.00  0.00     0.222 HD
ENDBRANCH  14  16
BRANCH  14  18
HETATM   18  O   UNK N   1      35.091   9.789  12.982  0.00  0.00    -0.307 OA
HETATM   19  H   UNK N   1      34.782   8.983  12.540  0.00  0.00     0.222 HD
ENDBRANCH  14  18
ENDBRANCH  13  14
ENDBRANCH  11  13
BRANCH  11  20
HETATM   20  O   UNK N   1      37.503  14.088  15.249  0.00  0.00    -0.307 OA
HETATM   21  H   UNK N   1      38.454  14.274  15.193  0.00  0.00     0.222 HD
ENDBRANCH  11  20
ENDBRANCH  10  11
ENDBRANCH   8  10
BRANCH   8  22
HETATM   22  O   UNK N   1      37.593  13.160  12.544  0.00  0.00    -0.307 OA
HETATM   23  H   UNK N   1      38.257  12.972  13.227  0.00  0.00     0.222 HD
ENDBRANCH   8  22
ENDBRANCH   7   8
ENDBRANCH   6   7
ENDBRANCH   3   6
BRANCH   4  24
HETATM   24  O   UNK N   1      35.355  17.494   9.802  0.00  0.00    -0.390 OA
HETATM   25  H   UNK N   1      35.299  18.403  10.137  0.00  0.00     0.210 HD
ENDBRANCH   4  24
BRANCH   1  26
HETATM   26  N   UNK N   1      31.661  17.077   7.814  0.00  0.00    -0.297 N 
HETATM   27  C   UNK N   1      30.428  17.322   8.270  0.00  0.00     0.142 A 
HETATM   28  N   UNK N   1      30.026  17.436   9.561  0.00  0.00    -0.336 N 
HETATM   29  C   UNK N   1      29.585  17.462   7.233  0.00  0.00     0.122 A 
HETATM   30  C   UNK N   1      28.705  17.696   9.803  0.00  0.00     0.183 A 
ATOM     31  HN  UNK N   1      30.690  17.332  10.328  1.00  0.00     0.168 HD
HETATM   32  N   UNK N   1      27.824  17.841   8.759  0.00  0.00    -0.337 N 
HETATM   33  C   UNK N   1      28.243  17.729   7.463  0.00  0.00     0.131 A 
ATOM     34  HN  UNK N   1      26.841  18.034   8.954  1.00  0.00     0.168 HD
HETATM   35  N   UNK N   1      30.257  17.315   6.076  0.00  0.00    -0.346 N 
HETATM   36  C   UNK N   1      31.546  17.086   6.461  0.00  0.00     0.188 A 
ATOM     37  HN  UNK N   1      29.887  17.365   5.127  1.00  0.00     0.167 HD
BRANCH  33  38
HETATM   38  N   UNK N   1      27.336  17.889   6.398  0.00  0.00    -0.383 N 
HETATM   39  H   UNK N   1      27.005  18.786   6.161  0.00  0.00     0.157 HD
HETATM   40  H   UNK N   1      27.031  17.103   5.889  0.00  0.00     0.157 HD
ENDBRANCH  33  38
ENDBRANCH   1  26
BRANCH   5  41
HETATM   41  O   UNK N   1      34.506  18.154   7.337  0.00  0.00    -0.388 OA
HETATM   42  H   UNK N   1      35.122  18.821   7.675  0.00  0.00     0.210 HD
ENDBRANCH   5  41
TORSDOF 15
ENDMDL
