MODEL 1
REMARK VINA RESULT:      -4.6      0.000      0.000
REMARK  2 active torsions:
REMARK  status: ('A' for Active; 'I' for Inactive)
REMARK    1  A    between atoms: O_1  and  C_10 
REMARK    2  A    between atoms: C_5  and  C_10 
ROOT
HETATM    1  N   UNK N   1      21.820  11.682  11.803  0.00  0.00    -0.374 N 
ATOM      2  HN  UNK N   1      21.674  11.024  12.569  1.00  0.00     0.164 HD
HETATM    3  C   UNK N   1      23.311  12.819  10.311  0.00  0.00     0.053 A 
HETATM    4  C   UNK N   1      22.213  13.465   9.730  0.00  0.00     0.021 A 
HETATM    5  C   UNK N   1      23.085  11.919  11.361  0.00  0.00     0.105 A 
HETATM    6  C   UNK N   1      20.925  13.208  10.197  0.00  0.00     0.018 A 
HETATM    7  C   UNK N   1      20.746  12.303  11.246  0.00  0.00     0.087 A 
ENDROOT
BRANCH   3   8
HETATM    8  C   UNK N   1      24.679  13.083   9.825  0.00  0.00     0.177 C 
HETATM    9  O   UNK N   1      24.928  13.043   8.631  0.00  0.00    -0.646 OA
BRANCH   8  10
HETATM   10  O   UNK N   1      25.665  13.370  10.698  0.00  0.00    -0.773 OA
HETATM   11  H   UNK N   1      25.511  13.297  11.620  0.00  0.00     0.167 HD
ENDBRANCH   8  10
ENDBRANCH   3   8
TORSDOF 2
ENDMDL
MODEL 2
REMARK VINA RESULT:      -4.5     11.297     12.262
REMARK  2 active torsions:
REMARK  status: ('A' for Active; 'I' for Inactive)
REMARK    1  A    between atoms: O_1  and  C_10 
REMARK    2  A    between atoms: C_5  and  C_10 
ROOT
HETATM    1  N   UNK N   1      34.808  15.886  11.029  0.00  0.00    -0.374 N 
ATOM      2  HN  UNK N   1      35.334  15.778  11.897  1.00  0.00     0.164 HD
HETATM    3  C   UNK N   1      34.391  17.094   9.003  0.00  0.00     0.053 A 
HETATM    4  C   UNK N   1      33.384  16.178   8.680  0.00  0.00     0.021 A 
HETATM    5  C   UNK N   1      35.099  16.925  10.200  0.00  0.00     0.105 A 
HETATM    6  C   UNK N   1      33.101  15.120   9.544  0.00  0.00     0.018 A 
HETATM    7  C   UNK N   1      33.832  14.989  10.727  0.00  0.00     0.087 A 
ENDROOT
BRANCH   3   8
HETATM    8  C   UNK N   1      34.699  18.218   8.097  0.00  0.00     0.177 C 
HETATM    9  O   UNK N   1      35.216  19.235   8.530  0.00  0.00    -0.646 OA
BRANCH   8  10
HETATM   10  O   UNK N   1      34.411  18.129   6.783  0.00  0.00    -0.773 OA
HETATM   11  H   UNK N   1      33.611  18.486   6.454  0.00  0.00     0.167 HD
ENDBRANCH   8  10
ENDBRANCH   3   8
TORSDOF 2
ENDMDL
MODEL 3
REMARK VINA RESULT:      -4.4     11.010     11.919
REMARK  2 active torsions:
REMARK  status: ('A' for Active; 'I' for Inactive)
REMARK    1  A    between atoms: O_1  and  C_10 
REMARK    2  A    between atoms: C_5  and  C_10 
ROOT
HETATM    1  N   UNK N   1      31.179  17.220   6.941  0.00  0.00    -0.374 N 
ATOM      2  HN  UNK N   1      30.206  17.079   7.213  1.00  0.00     0.164 HD
HETATM    3  C   UNK N   1      33.437  17.749   7.543  0.00  0.00     0.053 A 
HETATM    4  C   UNK N   1      33.814  17.601   6.204  0.00  0.00     0.021 A 
HETATM    5  C   UNK N   1      32.094  17.550   7.893  0.00  0.00     0.105 A 
HETATM    6  C   UNK N   1      32.860  17.261   5.244  0.00  0.00     0.018 A 
HETATM    7  C   UNK N   1      31.533  17.073   5.636  0.00  0.00     0.087 A 
ENDROOT
BRANCH   3   8
HETATM    8  C   UNK N   1      34.437  18.107   8.568  0.00  0.00     0.177 C 
HETATM    9  O   UNK N   1      35.202  19.040   8.382  0.00  0.00    -0.646 OA
BRANCH   8  10
HETATM   10  O   UNK N   1      34.512  17.407   9.717  0.00  0.00    -0.773 OA
HETATM   11  H   UNK N   1      35.161  16.739   9.817  0.00  0.00     0.167 HD
ENDBRANCH   8  10
ENDBRANCH   3   8
TORSDOF 2
ENDMDL
MODEL 4
REMARK VINA RESULT:      -4.3      2.673      3.526
REMARK  2 active torsions:
REMARK  status: ('A' for Active; 'I' for Inactive)
REMARK    1  A    between atoms: O_1  and  C_10 
REMARK    2  A    between atoms: C_5  and  C_10 
ROOT
HETATM    1  N   UNK N   1      24.165  12.839  10.492  0.00  0.00    -0.374 N 
ATOM      2  HN  UNK N   1      25.115  13.066  10.199  1.00  0.00     0.164 HD
HETATM    3  C   UNK N   1      21.801  12.979  10.129  0.00  0.00     0.053 A 
HETATM    4  C   UNK N   1      21.592  12.225  11.289  0.00  0.00     0.021 A 
HETATM    5  C   UNK N   1      23.115  13.278   9.746  0.00  0.00     0.105 A 
HETATM    6  C   UNK N   1      22.682  11.785  12.041  0.00  0.00     0.018 A 
HETATM    7  C   UNK N   1      23.975  12.105  11.622  0.00  0.00     0.087 A 
ENDROOT
BRANCH   3   8
HETATM    8  C   UNK N   1      20.656  13.450   9.326  0.00  0.00     0.177 C 
HETATM    9  O   UNK N   1      20.683  13.371   8.108  0.00  0.00    -0.646 OA
BRANCH   8  10
HETATM   10  O   UNK N   1      19.571  13.972   9.932  0.00  0.00    -0.773 OA
HETATM   11  H   UNK N   1      19.376  13.745  10.820  0.00  0.00     0.167 HD
ENDBRANCH   8  10
ENDBRANCH   3   8
TORSDOF 2
ENDMDL
MODEL 5
REMARK VINA RESULT:      -4.3      9.491     10.320
REMARK  2 active torsions:
REMARK  status: ('A' for Active; 'I' for Inactive)
REMARK    1  A    between atoms: O_1  and  C_10 
REMARK    2  A    between atoms: C_5  and  C_10 
ROOT
HETATM    1  N   UNK N   1      19.367  17.487   2.984  0.00  0.00    -0.374 N 
ATOM      2  HN  UNK N   1      18.565  16.957   2.644  1.00  0.00     0.164 HD
HETATM    3  C   UNK N   1      20.869  19.340   2.749  0.00  0.00     0.053 A 
HETATM    4  C   UNK N   1      21.541  18.924   3.904  0.00  0.00     0.021 A 
HETATM    5  C   UNK N   1      19.769  18.595   2.302  0.00  0.00     0.105 A 
HETATM    6  C   UNK N   1      21.113  17.786   4.588  0.00  0.00     0.018 A 
HETATM    7  C   UNK N   1      20.012  17.073   4.107  0.00  0.00     0.087 A 
ENDROOT
BRANCH   3   8
HETATM    8  C   UNK N   1      21.312  20.542   2.017  0.00  0.00     0.177 C 
HETATM    9  O   UNK N   1      21.343  20.544   0.797  0.00  0.00    -0.646 OA
BRANCH   8  10
HETATM   10  O   UNK N   1      21.686  21.647   2.691  0.00  0.00    -0.773 OA
HETATM   11  H   UNK N   1      21.038  22.203   3.077  0.00  0.00     0.167 HD
ENDBRANCH   8  10
ENDBRANCH   3   8
TORSDOF 2
ENDMDL
MODEL 6
REMARK VINA RESULT:      -4.1      9.976     10.862
REMARK  2 active torsions:
REMARK  status: ('A' for Active; 'I' for Inactive)
REMARK    1  A    between atoms: O_1  and  C_10 
REMARK    2  A    between atoms: C_5  and  C_10 
ROOT
HETATM    1  N   UNK N   1      21.778  18.845   4.329  0.00  0.00    -0.374 N 
ATOM      2  HN  UNK N   1      22.352  19.045   5.149  1.00  0.00     0.164 HD
HETATM    3  C   UNK N   1      20.896  19.524   2.207  0.00  0.00     0.053 A 
HETATM    4  C   UNK N   1      20.225  18.300   2.110  0.00  0.00     0.021 A 
HETATM    5  C   UNK N   1      21.678  19.777   3.343  0.00  0.00     0.105 A 
HETATM    6  C   UNK N   1      20.342  17.357   3.132  0.00  0.00     0.018 A 
HETATM    7  C   UNK N   1      21.131  17.651   4.245  0.00  0.00     0.087 A 
ENDROOT
BRANCH   3   8
HETATM    8  C   UNK N   1      20.781  20.529   1.133  0.00  0.00     0.177 C 
HETATM    9  O   UNK N   1      20.827  21.720   1.394  0.00  0.00    -0.646 OA
BRANCH   8  10
HETATM   10  O   UNK N   1      20.624  20.137  -0.148  0.00  0.00    -0.773 OA
HETATM   11  H   UNK N   1      20.552  20.778  -0.828  0.00  0.00     0.167 HD
ENDBRANCH   8  10
ENDBRANCH   3   8
TORSDOF 2
ENDMDL
MODEL 7
REMARK VINA RESULT:      -4.1     21.547     22.274
REMARK  2 active torsions:
REMARK  status: ('A' for Active; 'I' for Inactive)
REMARK    1  A    between atoms: O_1  and  C_10 
REMARK    2  A    between atoms: C_5  and  C_10 
ROOT
HETATM    1  N   UNK N   1      27.468  27.689  -7.082  0.00  0.00    -0.374 N 
ATOM      2  HN  UNK N   1      28.288  27.975  -7.617  1.00  0.00     0.164 HD
HETATM    3  C   UNK N   1      26.100  27.901  -5.126  0.00  0.00     0.053 A 
HETATM    4  C   UNK N   1      25.246  26.915  -5.633  0.00  0.00     0.021 A 
HETATM    5  C   UNK N   1      27.220  28.277  -5.879  0.00  0.00     0.105 A 
HETATM    6  C   UNK N   1      25.518  26.326  -6.868  0.00  0.00     0.018 A 
HETATM    7  C   UNK N   1      26.645  26.730  -7.585  0.00  0.00     0.087 A 
ENDROOT
BRANCH   3   8
HETATM    8  C   UNK N   1      25.824  28.533  -3.821  0.00  0.00     0.177 C 
HETATM    9  O   UNK N   1      25.497  27.851  -2.863  0.00  0.00    -0.646 OA
BRANCH   8  10
HETATM   10  O   UNK N   1      25.930  29.869  -3.678  0.00  0.00    -0.773 OA
HETATM   11  H   UNK N   1      25.210  30.362  -3.337  0.00  0.00     0.167 HD
ENDBRANCH   8  10
ENDBRANCH   3   8
TORSDOF 2
ENDMDL
MODEL 8
REMARK VINA RESULT:      -4.0      7.923      9.444
REMARK  2 active torsions:
REMARK  status: ('A' for Active; 'I' for Inactive)
REMARK    1  A    between atoms: O_1  and  C_10 
REMARK    2  A    between atoms: C_5  and  C_10 
ROOT
HETATM    1  N   UNK N   1      30.785  17.016   6.370  0.00  0.00    -0.374 N 
ATOM      2  HN  UNK N   1      30.829  16.640   5.423  1.00  0.00     0.164 HD
HETATM    3  C   UNK N   1      29.485  17.729   8.253  0.00  0.00     0.053 A 
HETATM    4  C   UNK N   1      30.667  18.034   8.936  0.00  0.00     0.021 A 
HETATM    5  C   UNK N   1      29.570  17.213   6.952  0.00  0.00     0.105 A 
HETATM    6  C   UNK N   1      31.902  17.824   8.322  0.00  0.00     0.018 A 
HETATM    7  C   UNK N   1      31.941  17.309   7.025  0.00  0.00     0.087 A 
ENDROOT
BRANCH   3   8
HETATM    8  C   UNK N   1      28.173  17.946   8.892  0.00  0.00     0.177 C 
HETATM    9  O   UNK N   1      27.693  17.093   9.622  0.00  0.00    -0.646 OA
BRANCH   8  10
HETATM   10  O   UNK N   1      27.494  19.090   8.674  0.00  0.00    -0.773 OA
HETATM   11  H   UNK N   1      26.705  19.264   9.149  0.00  0.00     0.167 HD
ENDBRANCH   8  10
ENDBRANCH   3   8
TORSDOF 2
ENDMDL
MODEL 9
REMARK VINA RESULT:      -4.0     19.613     20.425
REMARK  2 active torsions:
REMARK  status: ('A' for Active; 'I' for Inactive)
REMARK    1  A    between atoms: O_1  and  C_10 
REMARK    2  A    between atoms: C_5  and  C_10 
ROOT
HETATM    1  N   UNK N   1      25.292  25.098  -5.976  0.00  0.00    -0.374 N 
ATOM      2  HN  UNK N   1      24.799  24.974  -6.860  1.00  0.00     0.164 HD
HETATM    3  C   UNK N   1      25.969  26.519  -4.169  0.00  0.00     0.053 A 
HETATM    4  C   UNK N   1      26.626  25.432  -3.579  0.00  0.00     0.021 A 
HETATM    5  C   UNK N   1      25.299  26.324  -5.384  0.00  0.00     0.105 A 
HETATM    6  C   UNK N   1      26.606  24.184  -4.202  0.00  0.00     0.018 A 
HETATM    7  C   UNK N   1      25.927  24.035  -5.413  0.00  0.00     0.087 A 
ENDROOT
BRANCH   3   8
HETATM    8  C   UNK N   1      25.983  27.844  -3.520  0.00  0.00     0.177 C 
HETATM    9  O   UNK N   1      26.447  27.977  -2.398  0.00  0.00    -0.646 OA
BRANCH   8  10
HETATM   10  O   UNK N   1      25.483  28.919  -4.162  0.00  0.00    -0.773 OA
HETATM   11  H   UNK N   1      25.351  28.891  -5.089  0.00  0.00     0.167 HD
ENDBRANCH   8  10
ENDBRANCH   3   8
TORSDOF 2
ENDMDL
