MODEL 1
REMARK VINA RESULT:      -7.3      0.000      0.000
REMARK  7 active torsions:
REMARK  status: ('A' for Active; 'I' for Inactive)
REMARK    1  A    between atoms: C_6  and  C_8 
REMARK    2  A    between atoms: C_14  and  O_16 
REMARK    3  A    between atoms: C_25  and  C_18 
REMARK    4  A    between atoms: C_18  and  C_19 
REMARK    5  A    between atoms: C_19  and  C_20 
REMARK    6  A    between atoms: C_20  and  C_24 
REMARK    7  A    between atoms: C_24  and  C_22 
ROOT
HETATM    1  C   UNK N   1      29.169  26.170  -4.624  0.00  0.00     0.010 C 
HETATM    2  C   UNK N   1      29.271  23.398  -5.603  0.00  0.00    -0.075 C 
HETATM    3  C   UNK N   1      26.687  23.548  -5.691  0.00  0.00     0.010 C 
HETATM    4  C   UNK N   1      25.708  24.665  -5.297  0.00  0.00     0.006 C 
HETATM    5  C   UNK N   1      30.517  25.491  -5.018  0.00  0.00     0.005 C 
HETATM    6  C   UNK N   1      29.393  22.070  -5.525  0.00  0.00     0.004 C 
HETATM    7  C   UNK N   1      30.400  24.309  -6.013  0.00  0.00     0.034 C 
HETATM    8  C   UNK N   1      26.562  25.808  -4.719  0.00  0.00    -0.002 C 
HETATM    9  C   UNK N   1      28.003  24.024  -5.108  0.00  0.00     0.023 C 
HETATM   10  C   UNK N   1      27.956  25.535  -5.321  0.00  0.00    -0.033 C 
HETATM   11  C   UNK N   1      27.995  25.912  -6.814  0.00  0.00     0.016 C 
ENDROOT
BRANCH   6  12
HETATM   12  C   UNK N   1      30.591  21.291  -5.871  0.00  0.00     0.008 C 
HETATM   13  C   UNK N   1      31.578  21.019  -4.991  0.00  0.00    -0.050 C 
HETATM   14  C   UNK N   1      31.574  21.446  -3.537  0.00  0.00    -0.061 C 
HETATM   15  C   UNK N   1      32.759  20.249  -5.524  0.00  0.00     0.070 C 
HETATM   16  C   UNK N   1      32.764  21.187  -2.654  0.00  0.00     0.041 C 
HETATM   17  C   UNK N   1      30.516  22.021  -2.960  0.00  0.00     0.019 C 
HETATM   18  C   UNK N   1      34.006  20.760  -3.423  0.00  0.00     0.036 C 
HETATM   19  C   UNK N   1      33.654  19.680  -4.427  0.00  0.00     0.122 C 
BRANCH  19  20
HETATM   20  O   UNK N   1      34.822  19.175  -4.996  0.00  0.00    -0.395 OA
HETATM   21  H   UNK N   1      34.801  18.343  -5.495  0.00  0.00     0.210 HD
ENDBRANCH  19  20
ENDBRANCH   6  12
BRANCH   8  22
HETATM   22  C   UNK N   1      25.910  27.195  -4.893  0.00  0.00    -0.014 C 
HETATM   23  C   UNK N   1      24.622  27.131  -5.693  0.00  0.00     0.010 C 
BRANCH  22  24
HETATM   24  C   UNK N   1      25.710  27.992  -3.609  0.00  0.00     0.005 C 
BRANCH  24  25
HETATM   25  C   UNK N   1      26.851  28.985  -3.425  0.00  0.00     0.001 C 
BRANCH  25  26
HETATM   26  C   UNK N   1      26.834  30.043  -4.520  0.00  0.00     0.004 C 
BRANCH  26  27
HETATM   27  C   UNK N   1      28.222  30.264  -5.104  0.00  0.00    -0.023 C 
HETATM   28  C   UNK N   1      29.291  29.762  -4.151  0.00  0.00     0.009 C 
HETATM   29  C   UNK N   1      28.339  29.513  -6.415  0.00  0.00     0.009 C 
ENDBRANCH  26  27
ENDBRANCH  25  26
ENDBRANCH  24  25
ENDBRANCH  22  24
ENDBRANCH   8  22
TORSDOF 7
ENDMDL
MODEL 2
REMARK VINA RESULT:      -7.0     21.423     26.238
REMARK  7 active torsions:
REMARK  status: ('A' for Active; 'I' for Inactive)
REMARK    1  A    between atoms: C_6  and  C_8 
REMARK    2  A    between atoms: C_14  and  O_16 
REMARK    3  A    between atoms: C_25  and  C_18 
REMARK    4  A    between atoms: C_18  and  C_19 
REMARK    5  A    between atoms: C_19  and  C_20 
REMARK    6  A    between atoms: C_20  and  C_24 
REMARK    7  A    between atoms: C_24  and  C_22 
ROOT
HETATM    1  C   UNK N   1      35.374  11.696  18.078  0.00  0.00     0.010 C 
HETATM    2  C   UNK N   1      36.049  12.499  15.330  0.00  0.00    -0.075 C 
HETATM    3  C   UNK N   1      36.951  10.086  15.062  0.00  0.00     0.010 C 
HETATM    4  C   UNK N   1      37.058   8.913  16.049  0.00  0.00     0.006 C 
HETATM    5  C   UNK N   1      34.888  13.051  17.480  0.00  0.00     0.005 C 
HETATM    6  C   UNK N   1      36.754  13.087  14.359  0.00  0.00     0.004 C 
HETATM    7  C   UNK N   1      34.808  13.106  15.933  0.00  0.00     0.034 C 
HETATM    8  C   UNK N   1      36.547   9.436  17.403  0.00  0.00    -0.002 C 
HETATM    9  C   UNK N   1      36.606  11.259  15.960  0.00  0.00     0.023 C 
HETATM   10  C   UNK N   1      35.674  10.643  17.000  0.00  0.00    -0.033 C 
HETATM   11  C   UNK N   1      34.342  10.177  16.383  0.00  0.00     0.016 C 
ENDROOT
BRANCH   6  12
HETATM   12  C   UNK N   1      36.417  14.354  13.693  0.00  0.00     0.008 C 
HETATM   13  C   UNK N   1      35.850  14.419  12.469  0.00  0.00    -0.050 C 
HETATM   14  C   UNK N   1      35.460  13.213  11.638  0.00  0.00    -0.061 C 
HETATM   15  C   UNK N   1      35.615  15.800  11.912  0.00  0.00     0.070 C 
HETATM   16  C   UNK N   1      34.927  13.380  10.241  0.00  0.00     0.041 C 
HETATM   17  C   UNK N   1      35.522  11.966  12.108  0.00  0.00     0.019 C 
HETATM   18  C   UNK N   1      35.112  14.787   9.687  0.00  0.00     0.036 C 
HETATM   19  C   UNK N   1      34.673  15.814  10.712  0.00  0.00     0.122 C 
BRANCH  19  20
HETATM   20  O   UNK N   1      34.680  17.081  10.132  0.00  0.00    -0.395 OA
HETATM   21  H   UNK N   1      33.873  17.435   9.724  0.00  0.00     0.210 HD
ENDBRANCH  19  20
ENDBRANCH   6  12
BRANCH   8  22
HETATM   22  C   UNK N   1      35.955   8.325  18.294  0.00  0.00    -0.014 C 
HETATM   23  C   UNK N   1      36.519   6.956  17.961  0.00  0.00     0.010 C 
BRANCH  22  24
HETATM   24  C   UNK N   1      36.016   8.584  19.795  0.00  0.00     0.005 C 
BRANCH  24  25
HETATM   25  C   UNK N   1      34.634   8.958  20.318  0.00  0.00     0.001 C 
BRANCH  25  26
HETATM   26  C   UNK N   1      33.542   8.244  19.534  0.00  0.00     0.004 C 
BRANCH  26  27
HETATM   27  C   UNK N   1      32.158   8.733  19.933  0.00  0.00    -0.023 C 
HETATM   28  C   UNK N   1      31.172   7.580  19.968  0.00  0.00     0.009 C 
HETATM   29  C   UNK N   1      32.227   9.363  21.309  0.00  0.00     0.009 C 
ENDBRANCH  26  27
ENDBRANCH  25  26
ENDBRANCH  24  25
ENDBRANCH  22  24
ENDBRANCH   8  22
TORSDOF 7
ENDMDL
MODEL 3
REMARK VINA RESULT:      -6.9     11.238     14.799
REMARK  7 active torsions:
REMARK  status: ('A' for Active; 'I' for Inactive)
REMARK    1  A    between atoms: C_6  and  C_8 
REMARK    2  A    between atoms: C_14  and  O_16 
REMARK    3  A    between atoms: C_25  and  C_18 
REMARK    4  A    between atoms: C_18  and  C_19 
REMARK    5  A    between atoms: C_19  and  C_20 
REMARK    6  A    between atoms: C_20  and  C_24 
REMARK    7  A    between atoms: C_24  and  C_22 
ROOT
HETATM    1  C   UNK N   1      28.036  19.438   4.257  0.00  0.00     0.010 C 
HETATM    2  C   UNK N   1      25.327  18.432   4.804  0.00  0.00    -0.075 C 
HETATM    3  C   UNK N   1      26.517  16.470   6.006  0.00  0.00     0.010 C 
HETATM    4  C   UNK N   1      28.003  16.126   6.188  0.00  0.00     0.006 C 
HETATM    5  C   UNK N   1      26.770  20.299   3.963  0.00  0.00     0.005 C 
HETATM    6  C   UNK N   1      24.162  17.831   4.543  0.00  0.00     0.004 C 
HETATM    7  C   UNK N   1      25.508  19.928   4.783  0.00  0.00     0.034 C 
HETATM    8  C   UNK N   1      28.796  17.202   5.423  0.00  0.00    -0.002 C 
HETATM    9  C   UNK N   1      26.546  17.575   4.968  0.00  0.00     0.023 C 
HETATM   10  C   UNK N   1      27.794  18.373   5.337  0.00  0.00    -0.033 C 
HETATM   11  C   UNK N   1      27.652  19.076   6.700  0.00  0.00     0.016 C 
ENDROOT
BRANCH   6  12
HETATM   12  C   UNK N   1      22.887  18.506   4.259  0.00  0.00     0.008 C 
HETATM   13  C   UNK N   1      21.883  17.931   3.562  0.00  0.00    -0.050 C 
HETATM   14  C   UNK N   1      21.920  16.521   3.009  0.00  0.00    -0.061 C 
HETATM   15  C   UNK N   1      20.662  18.782   3.320  0.00  0.00     0.070 C 
HETATM   16  C   UNK N   1      20.797  15.998   2.156  0.00  0.00     0.041 C 
HETATM   17  C   UNK N   1      22.908  15.667   3.285  0.00  0.00     0.019 C 
HETATM   18  C   UNK N   1      19.839  17.084   1.686  0.00  0.00     0.036 C 
HETATM   19  C   UNK N   1      19.454  17.980   2.846  0.00  0.00     0.122 C 
BRANCH  19  20
HETATM   20  O   UNK N   1      18.446  18.855   2.443  0.00  0.00    -0.395 OA
HETATM   21  H   UNK N   1      18.642  19.568   1.814  0.00  0.00     0.210 HD
ENDBRANCH  19  20
ENDBRANCH   6  12
BRANCH   8  22
HETATM   22  C   UNK N   1      30.205  17.439   6.002  0.00  0.00    -0.014 C 
HETATM   23  C   UNK N   1      30.457  16.625   7.258  0.00  0.00     0.010 C 
BRANCH  22  24
HETATM   24  C   UNK N   1      31.356  17.281   5.016  0.00  0.00     0.005 C 
BRANCH  24  25
HETATM   25  C   UNK N   1      32.476  16.462   5.645  0.00  0.00     0.001 C 
BRANCH  25  26
HETATM   26  C   UNK N   1      33.758  17.277   5.745  0.00  0.00     0.004 C 
BRANCH  26  27
HETATM   27  C   UNK N   1      34.320  17.261   7.160  0.00  0.00    -0.023 C 
HETATM   28  C   UNK N   1      33.660  18.330   8.010  0.00  0.00     0.009 C 
HETATM   29  C   UNK N   1      34.064  15.905   7.785  0.00  0.00     0.009 C 
ENDBRANCH  26  27
ENDBRANCH  25  26
ENDBRANCH  24  25
ENDBRANCH  22  24
ENDBRANCH   8  22
TORSDOF 7
ENDMDL
MODEL 4
REMARK VINA RESULT:      -6.8      1.472      2.706
REMARK  7 active torsions:
REMARK  status: ('A' for Active; 'I' for Inactive)
REMARK    1  A    between atoms: C_6  and  C_8 
REMARK    2  A    between atoms: C_14  and  O_16 
REMARK    3  A    between atoms: C_25  and  C_18 
REMARK    4  A    between atoms: C_18  and  C_19 
REMARK    5  A    between atoms: C_19  and  C_20 
REMARK    6  A    between atoms: C_20  and  C_24 
REMARK    7  A    between atoms: C_24  and  C_22 
ROOT
HETATM    1  C   UNK N   1      27.971  24.314  -3.920  0.00  0.00     0.010 C 
HETATM    2  C   UNK N   1      29.810  22.304  -5.030  0.00  0.00    -0.075 C 
HETATM    3  C   UNK N   1      28.607  22.744  -7.282  0.00  0.00     0.010 C 
HETATM    4  C   UNK N   1      27.425  23.651  -7.656  0.00  0.00     0.006 C 
HETATM    5  C   UNK N   1      29.169  23.756  -3.092  0.00  0.00     0.005 C 
HETATM    6  C   UNK N   1      30.284  21.083  -5.291  0.00  0.00     0.004 C 
HETATM    7  C   UNK N   1      30.342  23.180  -3.924  0.00  0.00     0.034 C 
HETATM    8  C   UNK N   1      26.950  24.308  -6.347  0.00  0.00    -0.002 C 
HETATM    9  C   UNK N   1      28.587  22.762  -5.766  0.00  0.00     0.023 C 
HETATM   10  C   UNK N   1      28.190  24.198  -5.436  0.00  0.00    -0.033 C 
HETATM   11  C   UNK N   1      29.272  25.211  -5.855  0.00  0.00     0.016 C 
ENDROOT
BRANCH   6  12
HETATM   12  C   UNK N   1      31.410  20.430  -4.606  0.00  0.00     0.008 C 
HETATM   13  C   UNK N   1      32.490  19.943  -5.254  0.00  0.00    -0.050 C 
HETATM   14  C   UNK N   1      32.702  20.027  -6.753  0.00  0.00    -0.061 C 
HETATM   15  C   UNK N   1      33.531  19.260  -4.404  0.00  0.00     0.070 C 
HETATM   16  C   UNK N   1      33.887  19.365  -7.401  0.00  0.00     0.041 C 
HETATM   17  C   UNK N   1      31.891  20.719  -7.555  0.00  0.00     0.019 C 
HETATM   18  C   UNK N   1      34.623  18.403  -6.478  0.00  0.00     0.036 C 
HETATM   19  C   UNK N   1      34.857  19.050  -5.128  0.00  0.00     0.122 C 
BRANCH  19  20
HETATM   20  O   UNK N   1      35.681  18.231  -4.357  0.00  0.00    -0.395 OA
HETATM   21  H   UNK N   1      36.462  17.813  -4.754  0.00  0.00     0.210 HD
ENDBRANCH  19  20
ENDBRANCH   6  12
BRANCH   8  22
HETATM   22  C   UNK N   1      26.280  25.679  -6.569  0.00  0.00    -0.014 C 
HETATM   23  C   UNK N   1      25.893  25.904  -8.020  0.00  0.00     0.010 C 
BRANCH  22  24
HETATM   24  C   UNK N   1      25.112  25.998  -5.643  0.00  0.00     0.005 C 
BRANCH  24  25
HETATM   25  C   UNK N   1      25.136  27.473  -5.259  0.00  0.00     0.001 C 
BRANCH  25  26
HETATM   26  C   UNK N   1      25.954  27.694  -3.995  0.00  0.00     0.004 C 
BRANCH  26  27
HETATM   27  C   UNK N   1      26.989  28.793  -4.186  0.00  0.00    -0.023 C 
HETATM   28  C   UNK N   1      27.358  28.934  -5.651  0.00  0.00     0.009 C 
HETATM   29  C   UNK N   1      26.419  30.108  -3.693  0.00  0.00     0.009 C 
ENDBRANCH  26  27
ENDBRANCH  25  26
ENDBRANCH  24  25
ENDBRANCH  22  24
ENDBRANCH   8  22
TORSDOF 7
ENDMDL
MODEL 5
REMARK VINA RESULT:      -6.7     11.123     14.534
REMARK  7 active torsions:
REMARK  status: ('A' for Active; 'I' for Inactive)
REMARK    1  A    between atoms: C_6  and  C_8 
REMARK    2  A    between atoms: C_14  and  O_16 
REMARK    3  A    between atoms: C_25  and  C_18 
REMARK    4  A    between atoms: C_18  and  C_19 
REMARK    5  A    between atoms: C_19  and  C_20 
REMARK    6  A    between atoms: C_20  and  C_24 
REMARK    7  A    between atoms: C_24  and  C_22 
ROOT
HETATM    1  C   UNK N   1      28.199  19.411   4.303  0.00  0.00     0.010 C 
HETATM    2  C   UNK N   1      25.486  18.415   4.852  0.00  0.00    -0.075 C 
HETATM    3  C   UNK N   1      26.669  16.482   6.106  0.00  0.00     0.010 C 
HETATM    4  C   UNK N   1      28.154  16.143   6.307  0.00  0.00     0.006 C 
HETATM    5  C   UNK N   1      26.935  20.264   3.980  0.00  0.00     0.005 C 
HETATM    6  C   UNK N   1      24.324  17.808   4.596  0.00  0.00     0.004 C 
HETATM    7  C   UNK N   1      25.667  19.911   4.799  0.00  0.00     0.034 C 
HETATM    8  C   UNK N   1      28.951  17.202   5.524  0.00  0.00    -0.002 C 
HETATM    9  C   UNK N   1      26.705  17.564   5.044  0.00  0.00     0.023 C 
HETATM   10  C   UNK N   1      27.950  18.370   5.405  0.00  0.00    -0.033 C 
HETATM   11  C   UNK N   1      27.798  19.104   6.750  0.00  0.00     0.016 C 
ENDROOT
BRANCH   6  12
HETATM   12  C   UNK N   1      23.050  18.476   4.288  0.00  0.00     0.008 C 
HETATM   13  C   UNK N   1      22.037  17.871   3.632  0.00  0.00    -0.050 C 
HETATM   14  C   UNK N   1      22.059  16.432   3.156  0.00  0.00    -0.061 C 
HETATM   15  C   UNK N   1      20.819  18.715   3.355  0.00  0.00     0.070 C 
HETATM   16  C   UNK N   1      20.925  15.872   2.343  0.00  0.00     0.041 C 
HETATM   17  C   UNK N   1      23.044  15.587   3.468  0.00  0.00     0.019 C 
HETATM   18  C   UNK N   1      19.969  16.938   1.823  0.00  0.00     0.036 C 
HETATM   19  C   UNK N   1      19.601  17.898   2.937  0.00  0.00     0.122 C 
BRANCH  19  20
HETATM   20  O   UNK N   1      18.595  18.756   2.496  0.00  0.00    -0.395 OA
HETATM   21  H   UNK N   1      18.678  19.714   2.633  0.00  0.00     0.210 HD
ENDBRANCH  19  20
ENDBRANCH   6  12
BRANCH   8  22
HETATM   22  C   UNK N   1      30.356  17.453   6.108  0.00  0.00    -0.014 C 
HETATM   23  C   UNK N   1      30.569  16.734   7.428  0.00  0.00     0.010 C 
BRANCH  22  24
HETATM   24  C   UNK N   1      31.519  17.194   5.158  0.00  0.00     0.005 C 
BRANCH  24  25
HETATM   25  C   UNK N   1      30.995  16.891   3.759  0.00  0.00     0.001 C 
BRANCH  25  26
HETATM   26  C   UNK N   1      31.504  15.544   3.266  0.00  0.00     0.004 C 
BRANCH  26  27
HETATM   27  C   UNK N   1      30.359  14.575   3.010  0.00  0.00    -0.023 C 
HETATM   28  C   UNK N   1      30.014  13.807   4.273  0.00  0.00     0.009 C 
HETATM   29  C   UNK N   1      29.139  15.350   2.557  0.00  0.00     0.009 C 
ENDBRANCH  26  27
ENDBRANCH  25  26
ENDBRANCH  24  25
ENDBRANCH  22  24
ENDBRANCH   8  22
TORSDOF 7
ENDMDL
MODEL 6
REMARK VINA RESULT:      -6.6     15.428     20.592
REMARK  7 active torsions:
REMARK  status: ('A' for Active; 'I' for Inactive)
REMARK    1  A    between atoms: C_6  and  C_8 
REMARK    2  A    between atoms: C_14  and  O_16 
REMARK    3  A    between atoms: C_25  and  C_18 
REMARK    4  A    between atoms: C_18  and  C_19 
REMARK    5  A    between atoms: C_19  and  C_20 
REMARK    6  A    between atoms: C_20  and  C_24 
REMARK    7  A    between atoms: C_24  and  C_22 
ROOT
HETATM    1  C   UNK N   1      35.269  12.408  10.069  0.00  0.00     0.010 C 
HETATM    2  C   UNK N   1      35.119  15.056   8.796  0.00  0.00    -0.075 C 
HETATM    3  C   UNK N   1      35.654  15.993  11.151  0.00  0.00     0.010 C 
HETATM    4  C   UNK N   1      35.859  15.305  12.509  0.00  0.00     0.006 C 
HETATM    5  C   UNK N   1      35.169  12.566   8.521  0.00  0.00     0.005 C 
HETATM    6  C   UNK N   1      34.534  16.139   8.276  0.00  0.00     0.004 C 
HETATM    7  C   UNK N   1      35.658  13.925   7.958  0.00  0.00     0.034 C 
HETATM    8  C   UNK N   1      35.624  13.802  12.275  0.00  0.00    -0.002 C 
HETATM    9  C   UNK N   1      35.094  14.882  10.284  0.00  0.00     0.023 C 
HETATM   10  C   UNK N   1      35.858  13.648  10.758  0.00  0.00    -0.033 C 
HETATM   11  C   UNK N   1      37.360  13.731  10.422  0.00  0.00     0.016 C 
ENDROOT
BRANCH   6  12
HETATM   12  C   UNK N   1      34.376  16.431   6.843  0.00  0.00     0.008 C 
HETATM   13  C   UNK N   1      33.190  16.738   6.276  0.00  0.00    -0.050 C 
HETATM   14  C   UNK N   1      31.881  16.851   7.031  0.00  0.00    -0.061 C 
HETATM   15  C   UNK N   1      33.198  16.962   4.785  0.00  0.00     0.070 C 
HETATM   16  C   UNK N   1      30.589  17.097   6.301  0.00  0.00     0.041 C 
HETATM   17  C   UNK N   1      31.812  16.789   8.363  0.00  0.00     0.019 C 
HETATM   18  C   UNK N   1      30.702  16.914   4.793  0.00  0.00     0.036 C 
HETATM   19  C   UNK N   1      31.929  17.634   4.270  0.00  0.00     0.122 C 
BRANCH  19  20
HETATM   20  O   UNK N   1      31.924  17.609   2.876  0.00  0.00    -0.395 OA
HETATM   21  H   UNK N   1      32.291  16.846   2.401  0.00  0.00     0.210 HD
ENDBRANCH  19  20
ENDBRANCH   6  12
BRANCH   8  22
HETATM   22  C   UNK N   1      36.399  12.909  13.265  0.00  0.00    -0.014 C 
HETATM   23  C   UNK N   1      36.696  13.620  14.573  0.00  0.00     0.010 C 
BRANCH  22  24
HETATM   24  C   UNK N   1      35.794  11.534  13.523  0.00  0.00     0.005 C 
BRANCH  24  25
HETATM   25  C   UNK N   1      34.388  11.679  14.093  0.00  0.00     0.001 C 
BRANCH  25  26
HETATM   26  C   UNK N   1      34.121  10.625  15.158  0.00  0.00     0.004 C 
BRANCH  26  27
HETATM   27  C   UNK N   1      35.312  10.459  16.091  0.00  0.00    -0.023 C 
HETATM   28  C   UNK N   1      35.238  11.451  17.236  0.00  0.00     0.009 C 
HETATM   29  C   UNK N   1      35.314   9.053  16.655  0.00  0.00     0.009 C 
ENDBRANCH  26  27
ENDBRANCH  25  26
ENDBRANCH  24  25
ENDBRANCH  22  24
ENDBRANCH   8  22
TORSDOF 7
ENDMDL
MODEL 7
REMARK VINA RESULT:      -6.6     14.620     19.881
REMARK  7 active torsions:
REMARK  status: ('A' for Active; 'I' for Inactive)
REMARK    1  A    between atoms: C_6  and  C_8 
REMARK    2  A    between atoms: C_14  and  O_16 
REMARK    3  A    between atoms: C_25  and  C_18 
REMARK    4  A    between atoms: C_18  and  C_19 
REMARK    5  A    between atoms: C_19  and  C_20 
REMARK    6  A    between atoms: C_20  and  C_24 
REMARK    7  A    between atoms: C_24  and  C_22 
ROOT
HETATM    1  C   UNK N   1      35.288  12.670   9.927  0.00  0.00     0.010 C 
HETATM    2  C   UNK N   1      35.066  15.251   8.534  0.00  0.00    -0.075 C 
HETATM    3  C   UNK N   1      35.587  16.310  10.840  0.00  0.00     0.010 C 
HETATM    4  C   UNK N   1      35.816  15.691  12.227  0.00  0.00     0.006 C 
HETATM    5  C   UNK N   1      35.178  12.754   8.374  0.00  0.00     0.005 C 
HETATM    6  C   UNK N   1      34.452  16.294   7.968  0.00  0.00     0.004 C 
HETATM    7  C   UNK N   1      35.631  14.097   7.746  0.00  0.00     0.034 C 
HETATM    8  C   UNK N   1      35.617  14.173  12.064  0.00  0.00    -0.002 C 
HETATM    9  C   UNK N   1      35.052  15.146  10.029  0.00  0.00     0.023 C 
HETATM   10  C   UNK N   1      35.849  13.955  10.554  0.00  0.00    -0.033 C 
HETATM   11  C   UNK N   1      37.346  14.060  10.207  0.00  0.00     0.016 C 
ENDROOT
BRANCH   6  12
HETATM   12  C   UNK N   1      34.281  16.516   6.524  0.00  0.00     0.008 C 
HETATM   13  C   UNK N   1      33.087  16.783   5.951  0.00  0.00    -0.050 C 
HETATM   14  C   UNK N   1      31.783  16.919   6.710  0.00  0.00    -0.061 C 
HETATM   15  C   UNK N   1      33.082  16.935   4.451  0.00  0.00     0.070 C 
HETATM   16  C   UNK N   1      30.483  17.116   5.979  0.00  0.00     0.041 C 
HETATM   17  C   UNK N   1      31.724  16.920   8.044  0.00  0.00     0.019 C 
HETATM   18  C   UNK N   1      30.587  16.862   4.481  0.00  0.00     0.036 C 
HETATM   19  C   UNK N   1      31.803  17.569   3.915  0.00  0.00     0.122 C 
BRANCH  19  20
HETATM   20  O   UNK N   1      31.788  17.477   2.524  0.00  0.00    -0.395 OA
HETATM   21  H   UNK N   1      31.077  17.898   2.015  0.00  0.00     0.210 HD
ENDBRANCH  19  20
ENDBRANCH   6  12
BRANCH   8  22
HETATM   22  C   UNK N   1      36.419  13.347  13.090  0.00  0.00    -0.014 C 
HETATM   23  C   UNK N   1      36.515  14.037  14.438  0.00  0.00     0.010 C 
BRANCH  22  24
HETATM   24  C   UNK N   1      35.977  11.898  13.256  0.00  0.00     0.005 C 
BRANCH  24  25
HETATM   25  C   UNK N   1      34.602  11.841  13.910  0.00  0.00     0.001 C 
BRANCH  25  26
HETATM   26  C   UNK N   1      33.878  10.552  13.547  0.00  0.00     0.004 C 
BRANCH  26  27
HETATM   27  C   UNK N   1      34.457   9.923  12.288  0.00  0.00    -0.023 C 
HETATM   28  C   UNK N   1      35.006   8.539  12.584  0.00  0.00     0.009 C 
HETATM   29  C   UNK N   1      33.369   9.808  11.240  0.00  0.00     0.009 C 
ENDBRANCH  26  27
ENDBRANCH  25  26
ENDBRANCH  24  25
ENDBRANCH  22  24
ENDBRANCH   8  22
TORSDOF 7
ENDMDL
MODEL 8
REMARK VINA RESULT:      -6.3      3.193      8.483
REMARK  7 active torsions:
REMARK  status: ('A' for Active; 'I' for Inactive)
REMARK    1  A    between atoms: C_6  and  C_8 
REMARK    2  A    between atoms: C_14  and  O_16 
REMARK    3  A    between atoms: C_25  and  C_18 
REMARK    4  A    between atoms: C_18  and  C_19 
REMARK    5  A    between atoms: C_19  and  C_20 
REMARK    6  A    between atoms: C_20  and  C_24 
REMARK    7  A    between atoms: C_24  and  C_22 
ROOT
HETATM    1  C   UNK N   1      32.065  23.285  -7.007  0.00  0.00     0.010 C 
HETATM    2  C   UNK N   1      30.268  23.710  -4.717  0.00  0.00    -0.075 C 
HETATM    3  C   UNK N   1      30.643  21.196  -4.216  0.00  0.00     0.010 C 
HETATM    4  C   UNK N   1      31.440  20.109  -4.953  0.00  0.00     0.006 C 
HETATM    5  C   UNK N   1      31.606  24.714  -6.582  0.00  0.00     0.005 C 
HETATM    6  C   UNK N   1      29.104  23.871  -4.081  0.00  0.00     0.004 C 
HETATM    7  C   UNK N   1      31.164  24.859  -5.104  0.00  0.00     0.034 C 
HETATM    8  C   UNK N   1      32.017  20.774  -6.216  0.00  0.00    -0.002 C 
HETATM    9  C   UNK N   1      30.623  22.340  -5.212  0.00  0.00     0.023 C 
HETATM   10  C   UNK N   1      32.007  22.273  -5.853  0.00  0.00    -0.033 C 
HETATM   11  C   UNK N   1      33.128  22.605  -4.850  0.00  0.00     0.016 C 
ENDROOT
BRANCH   6  12
HETATM   12  C   UNK N   1      28.547  25.148  -3.610  0.00  0.00     0.008 C 
HETATM   13  C   UNK N   1      27.415  25.690  -4.109  0.00  0.00    -0.050 C 
HETATM   14  C   UNK N   1      26.559  25.053  -5.185  0.00  0.00    -0.061 C 
HETATM   15  C   UNK N   1      27.010  27.030  -3.548  0.00  0.00     0.070 C 
HETATM   16  C   UNK N   1      25.370  25.778  -5.753  0.00  0.00     0.041 C 
HETATM   17  C   UNK N   1      26.781  23.819  -5.643  0.00  0.00     0.019 C 
HETATM   18  C   UNK N   1      25.320  27.251  -5.372  0.00  0.00     0.036 C 
HETATM   19  C   UNK N   1      25.573  27.415  -3.886  0.00  0.00     0.122 C 
BRANCH  19  20
HETATM   20  O   UNK N   1      25.350  28.742  -3.521  0.00  0.00    -0.395 OA
HETATM   21  H   UNK N   1      26.008  29.423  -3.734  0.00  0.00     0.210 HD
ENDBRANCH  19  20
ENDBRANCH   6  12
BRANCH   8  22
HETATM   22  C   UNK N   1      33.323  20.112  -6.702  0.00  0.00    -0.014 C 
HETATM   23  C   UNK N   1      33.845  19.077  -5.723  0.00  0.00     0.010 C 
BRANCH  22  24
HETATM   24  C   UNK N   1      33.285  19.546  -8.117  0.00  0.00     0.005 C 
BRANCH  24  25
HETATM   25  C   UNK N   1      31.917  18.937  -8.402  0.00  0.00     0.001 C 
BRANCH  25  26
HETATM   26  C   UNK N   1      31.061  19.884  -9.231  0.00  0.00     0.004 C 
BRANCH  26  27
HETATM   27  C   UNK N   1      29.586  19.759  -8.876  0.00  0.00    -0.023 C 
HETATM   28  C   UNK N   1      29.384  18.719  -7.790  0.00  0.00     0.009 C 
HETATM   29  C   UNK N   1      29.076  21.096  -8.380  0.00  0.00     0.009 C 
ENDBRANCH  26  27
ENDBRANCH  25  26
ENDBRANCH  24  25
ENDBRANCH  22  24
ENDBRANCH   8  22
TORSDOF 7
ENDMDL
MODEL 9
REMARK VINA RESULT:      -6.1     21.763     26.225
REMARK  7 active torsions:
REMARK  status: ('A' for Active; 'I' for Inactive)
REMARK    1  A    between atoms: C_6  and  C_8 
REMARK    2  A    between atoms: C_14  and  O_16 
REMARK    3  A    between atoms: C_25  and  C_18 
REMARK    4  A    between atoms: C_18  and  C_19 
REMARK    5  A    between atoms: C_19  and  C_20 
REMARK    6  A    between atoms: C_20  and  C_24 
REMARK    7  A    between atoms: C_24  and  C_22 
ROOT
HETATM    1  C   UNK N   1      34.803  11.314  14.002  0.00  0.00     0.010 C 
HETATM    2  C   UNK N   1      35.950  10.914  16.681  0.00  0.00    -0.075 C 
HETATM    3  C   UNK N   1      37.848   9.644  15.457  0.00  0.00     0.010 C 
HETATM    4  C   UNK N   1      38.065   9.299  13.976  0.00  0.00     0.006 C 
HETATM    5  C   UNK N   1      34.228  12.043  15.255  0.00  0.00     0.005 C 
HETATM    6  C   UNK N   1      36.086  10.362  17.890  0.00  0.00     0.004 C 
HETATM    7  C   UNK N   1      35.213  12.207  16.440  0.00  0.00     0.034 C 
HETATM    8  C   UNK N   1      36.829   9.823  13.222  0.00  0.00    -0.002 C 
HETATM    9  C   UNK N   1      36.412  10.132  15.489  0.00  0.00     0.023 C 
HETATM   10  C   UNK N   1      36.272  10.899  14.176  0.00  0.00    -0.033 C 
HETATM   11  C   UNK N   1      37.148  12.166  14.148  0.00  0.00     0.016 C 
ENDROOT
BRANCH   6  12
HETATM   12  C   UNK N   1      35.609  10.934  19.159  0.00  0.00     0.008 C 
HETATM   13  C   UNK N   1      34.617  10.384  19.892  0.00  0.00    -0.050 C 
HETATM   14  C   UNK N   1      33.890   9.104  19.530  0.00  0.00    -0.061 C 
HETATM   15  C   UNK N   1      34.217  11.125  21.142  0.00  0.00     0.070 C 
HETATM   16  C   UNK N   1      32.728   8.620  20.353  0.00  0.00     0.041 C 
HETATM   17  C   UNK N   1      34.265   8.328  18.512  0.00  0.00     0.019 C 
HETATM   18  C   UNK N   1      32.206   9.660  21.335  0.00  0.00     0.036 C 
HETATM   19  C   UNK N   1      33.359  10.292  22.089  0.00  0.00     0.122 C 
BRANCH  19  20
HETATM   20  O   UNK N   1      32.860  11.109  23.102  0.00  0.00    -0.395 OA
HETATM   21  H   UNK N   1      33.437  11.760  23.532  0.00  0.00     0.210 HD
ENDBRANCH  19  20
ENDBRANCH   6  12
BRANCH   8  22
HETATM   22  C   UNK N   1      37.127  10.181  11.752  0.00  0.00    -0.014 C 
HETATM   23  C   UNK N   1      38.223   9.316  11.157  0.00  0.00     0.010 C 
BRANCH  22  24
HETATM   24  C   UNK N   1      35.915  10.229  10.828  0.00  0.00     0.005 C 
BRANCH  24  25
HETATM   25  C   UNK N   1      35.903  11.537  10.047  0.00  0.00     0.001 C 
BRANCH  25  26
HETATM   26  C   UNK N   1      34.753  12.429  10.494  0.00  0.00     0.004 C 
BRANCH  26  27
HETATM   27  C   UNK N   1      35.252  13.627  11.289  0.00  0.00    -0.023 C 
HETATM   28  C   UNK N   1      36.678  13.971  10.901  0.00  0.00     0.009 C 
HETATM   29  C   UNK N   1      34.363  14.820  11.006  0.00  0.00     0.009 C 
ENDBRANCH  26  27
ENDBRANCH  25  26
ENDBRANCH  24  25
ENDBRANCH  22  24
ENDBRANCH   8  22
TORSDOF 7
ENDMDL
