MODEL 1
REMARK VINA RESULT:      -4.5      0.000      0.000
REMARK  5 active torsions:
REMARK  status: ('A' for Active; 'I' for Inactive)
REMARK    1  A    between atoms: O_1  and  C_8 
REMARK    2  A    between atoms: C_6  and  N_4 
REMARK       I    between atoms: N_5  and  C_9 
REMARK    3  A    between atoms: C_6  and  C_7 
REMARK    4  A    between atoms: C_6  and  C_8 
REMARK    5  A    between atoms: C_7  and  C_9 
ROOT
HETATM    1  C   UNK N   1      34.729  15.065  11.169  0.00  0.00     0.182 C 
ENDROOT
BRANCH   1   2
HETATM    2  N   UNK N   1      33.327  15.157  10.786  0.00  0.00    -0.417 N 
HETATM    3  H   UNK N   1      33.014  15.914  10.178  0.00  0.00     0.150 HD
HETATM    4  H   UNK N   1      32.659  14.467  11.125  0.00  0.00     0.150 HD
ENDBRANCH   1   2
BRANCH   1   5
HETATM    5  C   UNK N   1      35.293  13.826  11.876  0.00  0.00     0.138 C 
BRANCH   5   6
HETATM    6  C   UNK N   1      35.612  13.902  13.343  0.00  0.00     0.217 C 
HETATM    7  O   UNK N   1      34.871  13.430  14.186  0.00  0.00    -0.274 OA
HETATM    8  N   UNK N   1      36.751  14.512  13.726  0.00  0.00    -0.370 N 
HETATM    9  H   UNK N   1      37.356  14.897  13.050  0.00  0.00     0.159 HD
HETATM   10  H   UNK N   1      36.979  14.573  14.682  0.00  0.00     0.159 HD
ENDBRANCH   5   6
ENDBRANCH   1   5
BRANCH   1  11
HETATM   11  C   UNK N   1      35.626  16.223  10.854  0.00  0.00     0.163 C 
HETATM   12  O   UNK N   1      35.145  17.297  10.537  0.00  0.00    -0.648 OA
BRANCH  11  13
HETATM   13  O   UNK N   1      36.964  16.085  10.919  0.00  0.00    -0.775 OA
HETATM   14  H   UNK N   1      37.505  16.426  10.234  0.00  0.00     0.167 HD
ENDBRANCH  11  13
ENDBRANCH   1  11
TORSDOF 5
ENDMDL
MODEL 2
REMARK VINA RESULT:      -4.4      4.573      5.575
REMARK  5 active torsions:
REMARK  status: ('A' for Active; 'I' for Inactive)
REMARK    1  A    between atoms: O_1  and  C_8 
REMARK    2  A    between atoms: C_6  and  N_4 
REMARK       I    between atoms: N_5  and  C_9 
REMARK    3  A    between atoms: C_6  and  C_7 
REMARK    4  A    between atoms: C_6  and  C_8 
REMARK    5  A    between atoms: C_7  and  C_9 
ROOT
HETATM    1  C   UNK N   1      34.125  17.251   9.081  0.00  0.00     0.182 C 
ENDROOT
BRANCH   1   2
HETATM    2  N   UNK N   1      34.826  17.072  10.344  0.00  0.00    -0.417 N 
HETATM    3  H   UNK N   1      34.442  16.450  11.056  0.00  0.00     0.150 HD
HETATM    4  H   UNK N   1      35.700  17.567  10.518  0.00  0.00     0.150 HD
ENDBRANCH   1   2
BRANCH   1   5
HETATM    5  C   UNK N   1      32.884  16.423   8.721  0.00  0.00     0.138 C 
BRANCH   5   6
HETATM    6  C   UNK N   1      31.621  17.133   8.323  0.00  0.00     0.217 C 
HETATM    7  O   UNK N   1      31.356  17.365   7.156  0.00  0.00    -0.274 OA
HETATM    8  N   UNK N   1      30.765  17.521   9.288  0.00  0.00    -0.370 N 
HETATM    9  H   UNK N   1      30.973  17.338  10.233  0.00  0.00     0.159 HD
HETATM   10  H   UNK N   1      29.932  17.988   9.049  0.00  0.00     0.159 HD
ENDBRANCH   5   6
ENDBRANCH   1   5
BRANCH   1  11
HETATM   11  C   UNK N   1      34.646  18.277   8.121  0.00  0.00     0.163 C 
HETATM   12  O   UNK N   1      35.282  19.230   8.536  0.00  0.00    -0.648 OA
BRANCH  11  13
HETATM   13  O   UNK N   1      34.417  18.152   6.800  0.00  0.00    -0.775 OA
HETATM   14  H   UNK N   1      34.936  17.563   6.288  0.00  0.00     0.167 HD
ENDBRANCH  11  13
ENDBRANCH   1  11
TORSDOF 5
ENDMDL
MODEL 3
REMARK VINA RESULT:      -4.4      2.780      3.895
REMARK  5 active torsions:
REMARK  status: ('A' for Active; 'I' for Inactive)
REMARK    1  A    between atoms: O_1  and  C_8 
REMARK    2  A    between atoms: C_6  and  N_4 
REMARK       I    between atoms: N_5  and  C_9 
REMARK    3  A    between atoms: C_6  and  C_7 
REMARK    4  A    between atoms: C_6  and  C_8 
REMARK    5  A    between atoms: C_7  and  C_9 
ROOT
HETATM    1  C   UNK N   1      33.595  17.266   8.716  0.00  0.00     0.182 C 
ENDROOT
BRANCH   1   2
HETATM    2  N   UNK N   1      32.168  17.499   8.884  0.00  0.00    -0.417 N 
HETATM    3  H   UNK N   1      31.644  16.970   9.581  0.00  0.00     0.150 HD
HETATM    4  H   UNK N   1      31.692  18.191   8.306  0.00  0.00     0.150 HD
ENDBRANCH   1   2
BRANCH   1   5
HETATM    5  C   UNK N   1      34.307  16.089   9.398  0.00  0.00     0.138 C 
BRANCH   5   6
HETATM    6  C   UNK N   1      35.218  16.362  10.563  0.00  0.00     0.217 C 
HETATM    7  O   UNK N   1      35.944  17.340  10.594  0.00  0.00    -0.274 OA
HETATM    8  N   UNK N   1      35.225  15.496  11.595  0.00  0.00    -0.370 N 
HETATM    9  H   UNK N   1      34.641  14.703  11.577  0.00  0.00     0.159 HD
HETATM   10  H   UNK N   1      35.814  15.656  12.367  0.00  0.00     0.159 HD
ENDBRANCH   5   6
ENDBRANCH   1   5
BRANCH   1  11
HETATM   11  C   UNK N   1      34.370  18.211   7.850  0.00  0.00     0.163 C 
HETATM   12  O   UNK N   1      34.349  18.082   6.638  0.00  0.00    -0.648 OA
BRANCH  11  13
HETATM   13  O   UNK N   1      35.093  19.205   8.403  0.00  0.00    -0.775 OA
HETATM   14  H   UNK N   1      34.888  19.509   9.265  0.00  0.00     0.167 HD
ENDBRANCH  11  13
ENDBRANCH   1  11
TORSDOF 5
ENDMDL
MODEL 4
REMARK VINA RESULT:      -4.3     18.245     18.549
REMARK  5 active torsions:
REMARK  status: ('A' for Active; 'I' for Inactive)
REMARK    1  A    between atoms: O_1  and  C_8 
REMARK    2  A    between atoms: C_6  and  N_4 
REMARK       I    between atoms: N_5  and  C_9 
REMARK    3  A    between atoms: C_6  and  C_7 
REMARK    4  A    between atoms: C_6  and  C_8 
REMARK    5  A    between atoms: C_7  and  C_9 
ROOT
HETATM    1  C   UNK N   1      20.779  20.197   1.485  0.00  0.00     0.182 C 
ENDROOT
BRANCH   1   2
HETATM    2  N   UNK N   1      20.452  21.000   0.315  0.00  0.00    -0.417 N 
HETATM    3  H   UNK N   1      19.826  20.627  -0.399  0.00  0.00     0.150 HD
HETATM    4  H   UNK N   1      20.847  21.934   0.211  0.00  0.00     0.150 HD
ENDBRANCH   1   2
BRANCH   1   5
HETATM    5  C   UNK N   1      20.816  18.664   1.426  0.00  0.00     0.138 C 
BRANCH   5   6
HETATM    6  C   UNK N   1      19.753  17.878   2.141  0.00  0.00     0.217 C 
HETATM    7  O   UNK N   1      19.947  16.738   2.525  0.00  0.00    -0.274 OA
HETATM    8  N   UNK N   1      18.556  18.458   2.358  0.00  0.00    -0.370 N 
HETATM    9  H   UNK N   1      18.392  19.379   2.051  0.00  0.00     0.159 HD
HETATM   10  H   UNK N   1      17.846  17.960   2.825  0.00  0.00     0.159 HD
ENDBRANCH   5   6
ENDBRANCH   1   5
BRANCH   1  11
HETATM   11  C   UNK N   1      21.082  20.906   2.769  0.00  0.00     0.163 C 
HETATM   12  O   UNK N   1      20.365  20.739   3.740  0.00  0.00    -0.648 OA
BRANCH  11  13
HETATM   13  O   UNK N   1      22.145  21.729   2.858  0.00  0.00    -0.775 OA
HETATM   14  H   UNK N   1      22.838  21.669   2.229  0.00  0.00     0.167 HD
ENDBRANCH  11  13
ENDBRANCH   1  11
TORSDOF 5
ENDMDL
MODEL 5
REMARK VINA RESULT:      -4.1     12.649     13.766
REMARK  5 active torsions:
REMARK  status: ('A' for Active; 'I' for Inactive)
REMARK    1  A    between atoms: O_1  and  C_8 
REMARK    2  A    between atoms: C_6  and  N_4 
REMARK       I    between atoms: N_5  and  C_9 
REMARK    3  A    between atoms: C_6  and  C_7 
REMARK    4  A    between atoms: C_6  and  C_8 
REMARK    5  A    between atoms: C_7  and  C_9 
ROOT
HETATM    1  C   UNK N   1      23.024  12.240  10.259  0.00  0.00     0.182 C 
ENDROOT
BRANCH   1   2
HETATM    2  N   UNK N   1      23.310  11.261   9.219  0.00  0.00    -0.417 N 
HETATM    3  H   UNK N   1      24.271  10.962   9.051  0.00  0.00     0.150 HD
HETATM    4  H   UNK N   1      22.550  10.876   8.659  0.00  0.00     0.150 HD
ENDBRANCH   1   2
BRANCH   1   5
HETATM    5  C   UNK N   1      22.033  13.391  10.035  0.00  0.00     0.138 C 
BRANCH   5   6
HETATM    6  C   UNK N   1      20.583  13.183  10.373  0.00  0.00     0.217 C 
HETATM    7  O   UNK N   1      19.697  13.779   9.786  0.00  0.00    -0.274 OA
HETATM    8  N   UNK N   1      20.265  12.314  11.351  0.00  0.00    -0.370 N 
HETATM    9  H   UNK N   1      20.976  11.829  11.830  0.00  0.00     0.159 HD
HETATM   10  H   UNK N   1      19.321  12.163  11.588  0.00  0.00     0.159 HD
ENDBRANCH   5   6
ENDBRANCH   1   5
BRANCH   1  11
HETATM   11  C   UNK N   1      23.727  12.101  11.574  0.00  0.00     0.163 C 
HETATM   12  O   UNK N   1      23.093  11.822  12.576  0.00  0.00    -0.648 OA
BRANCH  11  13
HETATM   13  O   UNK N   1      25.060  12.282  11.657  0.00  0.00    -0.775 OA
HETATM   14  H   UNK N   1      25.408  12.941  12.225  0.00  0.00     0.167 HD
ENDBRANCH  11  13
ENDBRANCH   1  11
TORSDOF 5
ENDMDL
MODEL 6
REMARK VINA RESULT:      -4.1     18.014     18.597
REMARK  5 active torsions:
REMARK  status: ('A' for Active; 'I' for Inactive)
REMARK    1  A    between atoms: O_1  and  C_8 
REMARK    2  A    between atoms: C_6  and  N_4 
REMARK       I    between atoms: N_5  and  C_9 
REMARK    3  A    between atoms: C_6  and  C_7 
REMARK    4  A    between atoms: C_6  and  C_8 
REMARK    5  A    between atoms: C_7  and  C_9 
ROOT
HETATM    1  C   UNK N   1      20.747  19.200   2.276  0.00  0.00     0.182 C 
ENDROOT
BRANCH   1   2
HETATM    2  N   UNK N   1      21.484  19.248   3.531  0.00  0.00    -0.417 N 
HETATM    3  H   UNK N   1      22.285  18.634   3.674  0.00  0.00     0.150 HD
HETATM    4  H   UNK N   1      21.199  19.895   4.265  0.00  0.00     0.150 HD
ENDBRANCH   1   2
BRANCH   1   5
HETATM    5  C   UNK N   1      19.828  18.022   1.923  0.00  0.00     0.138 C 
BRANCH   5   6
HETATM    6  C   UNK N   1      20.308  16.987   0.945  0.00  0.00     0.217 C 
HETATM    7  O   UNK N   1      20.326  17.199  -0.255  0.00  0.00    -0.274 OA
HETATM    8  N   UNK N   1      20.729  15.797   1.415  0.00  0.00    -0.370 N 
HETATM    9  H   UNK N   1      20.717  15.618   2.384  0.00  0.00     0.159 HD
HETATM   10  H   UNK N   1      21.047  15.106   0.791  0.00  0.00     0.159 HD
ENDBRANCH   5   6
ENDBRANCH   1   5
BRANCH   1  11
HETATM   11  C   UNK N   1      20.905  20.340   1.318  0.00  0.00     0.163 C 
HETATM   12  O   UNK N   1      21.262  21.432   1.725  0.00  0.00    -0.648 OA
BRANCH  11  13
HETATM   13  O   UNK N   1      20.653  20.168   0.005  0.00  0.00    -0.775 OA
HETATM   14  H   UNK N   1      20.763  19.323  -0.385  0.00  0.00     0.167 HD
ENDBRANCH  11  13
ENDBRANCH   1  11
TORSDOF 5
ENDMDL
MODEL 7
REMARK VINA RESULT:      -4.0     16.309     17.603
REMARK  5 active torsions:
REMARK  status: ('A' for Active; 'I' for Inactive)
REMARK    1  A    between atoms: O_1  and  C_8 
REMARK    2  A    between atoms: C_6  and  N_4 
REMARK       I    between atoms: N_5  and  C_9 
REMARK    3  A    between atoms: C_6  and  C_7 
REMARK    4  A    between atoms: C_6  and  C_8 
REMARK    5  A    between atoms: C_7  and  C_9 
ROOT
HETATM    1  C   UNK N   1      20.291  19.031   2.303  0.00  0.00     0.182 C 
ENDROOT
BRANCH   1   2
HETATM    2  N   UNK N   1      18.860  18.761   2.293  0.00  0.00    -0.417 N 
HETATM    3  H   UNK N   1      18.196  19.535   2.308  0.00  0.00     0.150 HD
HETATM    4  H   UNK N   1      18.522  17.800   2.271  0.00  0.00     0.150 HD
ENDBRANCH   1   2
BRANCH   1   5
HETATM    5  C   UNK N   1      21.261  18.216   3.169  0.00  0.00     0.138 C 
BRANCH   5   6
HETATM    6  C   UNK N   1      21.554  18.676   4.569  0.00  0.00     0.217 C 
HETATM    7  O   UNK N   1      20.969  19.620   5.070  0.00  0.00    -0.274 OA
HETATM    8  N   UNK N   1      22.490  18.021   5.283  0.00  0.00    -0.370 N 
HETATM    9  H   UNK N   1      22.968  17.257   4.885  0.00  0.00     0.159 HD
HETATM   10  H   UNK N   1      22.698  18.306   6.202  0.00  0.00     0.159 HD
ENDBRANCH   5   6
ENDBRANCH   1   5
BRANCH   1  11
HETATM   11  C   UNK N   1      20.808  20.139   1.437  0.00  0.00     0.163 C 
HETATM   12  O   UNK N   1      21.367  21.096   1.944  0.00  0.00    -0.648 OA
BRANCH  11  13
HETATM   13  O   UNK N   1      20.659  20.085   0.100  0.00  0.00    -0.775 OA
HETATM   14  H   UNK N   1      20.061  20.665  -0.329  0.00  0.00     0.167 HD
ENDBRANCH  11  13
ENDBRANCH   1  11
TORSDOF 5
ENDMDL
MODEL 8
REMARK VINA RESULT:      -3.9     12.244     13.343
REMARK  5 active torsions:
REMARK  status: ('A' for Active; 'I' for Inactive)
REMARK    1  A    between atoms: O_1  and  C_8 
REMARK    2  A    between atoms: C_6  and  N_4 
REMARK       I    between atoms: N_5  and  C_9 
REMARK    3  A    between atoms: C_6  and  C_7 
REMARK    4  A    between atoms: C_6  and  C_8 
REMARK    5  A    between atoms: C_7  and  C_9 
ROOT
HETATM    1  C   UNK N   1      41.926  21.557   2.832  0.00  0.00     0.182 C 
ENDROOT
BRANCH   1   2
HETATM    2  N   UNK N   1      41.675  22.722   1.994  0.00  0.00    -0.417 N 
HETATM    3  H   UNK N   1      42.334  23.500   1.994  0.00  0.00     0.150 HD
HETATM    4  H   UNK N   1      40.842  22.758   1.408  0.00  0.00     0.150 HD
ENDBRANCH   1   2
BRANCH   1   5
HETATM    5  C   UNK N   1      43.306  21.289   3.448  0.00  0.00     0.138 C 
BRANCH   5   6
HETATM    6  C   UNK N   1      44.176  22.454   3.829  0.00  0.00     0.217 C 
HETATM    7  O   UNK N   1      43.749  23.595   3.845  0.00  0.00    -0.274 OA
HETATM    8  N   UNK N   1      45.461  22.220   4.160  0.00  0.00    -0.370 N 
HETATM    9  H   UNK N   1      45.813  21.301   4.150  0.00  0.00     0.159 HD
HETATM   10  H   UNK N   1      46.047  22.970   4.413  0.00  0.00     0.159 HD
ENDBRANCH   5   6
ENDBRANCH   1   5
BRANCH   1  11
HETATM   11  C   UNK N   1      40.794  20.610   3.086  0.00  0.00     0.163 C 
HETATM   12  O   UNK N   1      40.970  19.625   3.781  0.00  0.00    -0.648 OA
BRANCH  11  13
HETATM   13  O   UNK N   1      39.580  20.840   2.550  0.00  0.00    -0.775 OA
HETATM   14  H   UNK N   1      39.106  21.616   2.778  0.00  0.00     0.167 HD
ENDBRANCH  11  13
ENDBRANCH   1  11
TORSDOF 5
ENDMDL
MODEL 9
REMARK VINA RESULT:      -3.8     11.752     13.064
REMARK  5 active torsions:
REMARK  status: ('A' for Active; 'I' for Inactive)
REMARK    1  A    between atoms: O_1  and  C_8 
REMARK    2  A    between atoms: C_6  and  N_4 
REMARK       I    between atoms: N_5  and  C_9 
REMARK    3  A    between atoms: C_6  and  C_7 
REMARK    4  A    between atoms: C_6  and  C_8 
REMARK    5  A    between atoms: C_7  and  C_9 
ROOT
HETATM    1  C   UNK N   1      43.059  21.486   3.330  0.00  0.00     0.182 C 
ENDROOT
BRANCH   1   2
HETATM    2  N   UNK N   1      43.843  20.260   3.273  0.00  0.00    -0.417 N 
HETATM    3  H   UNK N   1      44.828  20.273   3.537  0.00  0.00     0.150 HD
HETATM    4  H   UNK N   1      43.407  19.390   2.970  0.00  0.00     0.150 HD
ENDBRANCH   1   2
BRANCH   1   5
HETATM    5  C   UNK N   1      41.719  21.623   2.594  0.00  0.00     0.138 C 
BRANCH   5   6
HETATM    6  C   UNK N   1      40.608  20.663   2.914  0.00  0.00     0.217 C 
HETATM    7  O   UNK N   1      40.736  19.791   3.755  0.00  0.00    -0.274 OA
HETATM    8  N   UNK N   1      39.442  20.778   2.247  0.00  0.00    -0.370 N 
HETATM    9  H   UNK N   1      39.332  21.480   1.566  0.00  0.00     0.159 HD
HETATM   10  H   UNK N   1      38.702  20.159   2.442  0.00  0.00     0.159 HD
ENDBRANCH   5   6
ENDBRANCH   1   5
BRANCH   1  11
HETATM   11  C   UNK N   1      43.594  22.631   4.134  0.00  0.00     0.163 C 
HETATM   12  O   UNK N   1      44.140  22.421   5.203  0.00  0.00    -0.648 OA
BRANCH  11  13
HETATM   13  O   UNK N   1      43.475  23.895   3.682  0.00  0.00    -0.775 OA
HETATM   14  H   UNK N   1      44.068  24.218   3.033  0.00  0.00     0.167 HD
ENDBRANCH  11  13
ENDBRANCH   1  11
TORSDOF 5
ENDMDL
