REMARK WARNING: 32 MAX_TORS EXCEEDED!!!
REMARK  260 active torsions:
REMARK  status: ('A' for Active; 'I' for Inactive)
REMARK    1  A    between atoms: C_192  and  O_1 
REMARK    2  A    between atoms: O_1  and  C_248 
REMARK    3  A    between atoms: C_193  and  O_2 
REMARK    4  A    between atoms: O_2  and  C_250 
REMARK    5  A    between atoms: C_194  and  O_3 
REMARK    6  A    between atoms: O_3  and  C_249 
REMARK    7  A    between atoms: C_195  and  O_4 
REMARK    8  A    between atoms: O_4  and  C_252 
REMARK    9  A    between atoms: C_196  and  O_5 
REMARK   10  A    between atoms: O_5  and  C_251 
REMARK   11  A    between atoms: C_197  and  O_6 
REMARK   12  A    between atoms: O_6  and  C_254 
REMARK   13  A    between atoms: C_198  and  O_7 
REMARK   14  A    between atoms: O_7  and  C_253 
REMARK   15  A    between atoms: C_200  and  O_8 
REMARK   16  A    between atoms: O_8  and  C_255 
REMARK   17  A    between atoms: C_199  and  O_9 
REMARK   18  A    between atoms: O_9  and  C_256 
REMARK   19  A    between atoms: C_202  and  O_10 
REMARK   20  A    between atoms: O_10  and  C_257 
REMARK   21  A    between atoms: C_201  and  O_11 
REMARK   22  A    between atoms: O_11  and  C_258 
REMARK   23  A    between atoms: C_204  and  O_12 
REMARK   24  A    between atoms: O_12  and  C_259 
REMARK   25  A    between atoms: C_203  and  O_13 
REMARK   26  A    between atoms: O_13  and  C_260 
REMARK   27  A    between atoms: C_206  and  O_14 
REMARK   28  A    between atoms: O_14  and  C_261 
REMARK   29  A    between atoms: C_205  and  O_15 
REMARK   30  A    between atoms: O_15  and  C_262 
REMARK   31  A    between atoms: C_207  and  O_16 
REMARK   32  A    between atoms: O_16  and  C_264 
REMARK   33  A    between atoms: C_208  and  O_17 
REMARK   34  A    between atoms: O_17  and  C_263 
REMARK   35  A    between atoms: C_209  and  O_18 
REMARK   36  A    between atoms: O_18  and  C_274 
REMARK   37  A    between atoms: C_210  and  O_19 
REMARK   38  A    between atoms: O_19  and  C_265 
REMARK   39  A    between atoms: C_211  and  O_20 
REMARK   40  A    between atoms: O_20  and  C_286 
REMARK   41  A    between atoms: C_212  and  O_28 
REMARK   42  A    between atoms: O_28  and  C_280 
REMARK   43  A    between atoms: C_213  and  O_40 
REMARK   44  A    between atoms: O_40  and  C_291 
REMARK   45  A    between atoms: C_214  and  O_42 
REMARK   46  A    between atoms: O_42  and  C_289 
REMARK   47  A    between atoms: C_215  and  O_46 
REMARK   48  A    between atoms: O_46  and  C_316 
REMARK   49  A    between atoms: C_216  and  O_47 
REMARK   50  A    between atoms: O_47  and  C_297 
REMARK   51  A    between atoms: C_217  and  O_50 
REMARK   52  A    between atoms: O_50  and  C_328 
REMARK   53  A    between atoms: C_218  and  O_53 
REMARK   54  A    between atoms: O_53  and  C_321 
REMARK   55  A    between atoms: C_219  and  O_56 
REMARK   56  A    between atoms: O_56  and  C_338 
REMARK   57  A    between atoms: C_244  and  O_57 
REMARK   58  A    between atoms: O_57  and  C_335 
REMARK   59  A    between atoms: C_245  and  O_60 
REMARK   60  A    between atoms: O_60  and  C_348 
REMARK   61  A    between atoms: C_324  and  O_61 
REMARK   62  A    between atoms: O_61  and  C_341 
REMARK   63  A    between atoms: C_325  and  O_64 
REMARK   64  A    between atoms: O_64  and  C_356 
REMARK   65  A    between atoms: C_346  and  O_65 
REMARK   66  A    between atoms: O_65  and  C_351 
REMARK   67  A    between atoms: C_220  and  O_66 
REMARK   68  A    between atoms: C_221  and  O_67 
REMARK   69  A    between atoms: C_222  and  O_68 
REMARK   70  A    between atoms: C_223  and  O_69 
REMARK   71  A    between atoms: C_225  and  O_71 
REMARK   72  A    between atoms: C_226  and  O_72 
REMARK   73  A    between atoms: C_227  and  O_73 
REMARK   74  A    between atoms: C_228  and  O_74 
REMARK   75  A    between atoms: C_229  and  O_75 
REMARK   76  A    between atoms: C_230  and  O_76 
REMARK   77  A    between atoms: C_231  and  O_77 
REMARK   78  A    between atoms: C_232  and  O_78 
REMARK   79  A    between atoms: C_233  and  O_79 
REMARK   80  A    between atoms: C_234  and  O_80 
REMARK   81  A    between atoms: C_235  and  O_81 
REMARK   82  A    between atoms: C_236  and  O_82 
REMARK   83  A    between atoms: C_237  and  O_83 
REMARK   84  A    between atoms: C_238  and  O_84 
REMARK   85  A    between atoms: C_239  and  O_85 
REMARK   86  A    between atoms: C_240  and  O_88 
REMARK   87  A    between atoms: C_241  and  O_89 
REMARK   88  A    between atoms: C_242  and  O_90 
REMARK   89  A    between atoms: C_243  and  O_91 
REMARK   90  A    between atoms: C_246  and  O_92 
REMARK   91  A    between atoms: C_247  and  O_93 
REMARK   92  A    between atoms: C_347  and  O_94 
REMARK   93  A    between atoms: O_94  and  C_393 
REMARK   94  A    between atoms: C_266  and  O_95 
REMARK   95  A    between atoms: C_267  and  O_96 
REMARK   96  A    between atoms: C_268  and  O_97 
REMARK   97  A    between atoms: C_269  and  O_98 
REMARK   98  A    between atoms: C_270  and  O_99 
REMARK   99  A    between atoms: C_271  and  O_100 
REMARK  100  A    between atoms: C_273  and  O_102 
REMARK  101  A    between atoms: C_275  and  O_103 
REMARK  102  A    between atoms: C_276  and  O_104 
REMARK  103  A    between atoms: C_277  and  O_105 
REMARK  104  A    between atoms: C_278  and  O_106 
REMARK  105  A    between atoms: C_279  and  O_107 
REMARK  106  A    between atoms: C_281  and  O_108 
REMARK  107  A    between atoms: C_282  and  O_109 
REMARK  108  A    between atoms: C_283  and  O_110 
REMARK  109  A    between atoms: C_284  and  O_111 
REMARK  110  A    between atoms: C_285  and  O_112 
REMARK  111  A    between atoms: C_287  and  O_113 
REMARK  112  A    between atoms: C_288  and  O_114 
REMARK  113  A    between atoms: C_290  and  O_115 
REMARK  114  A    between atoms: C_292  and  O_116 
REMARK  115  A    between atoms: C_293  and  O_117 
REMARK  116  A    between atoms: C_294  and  O_118 
REMARK  117  A    between atoms: C_310  and  O_119 
REMARK  118  A    between atoms: C_311  and  O_120 
REMARK  119  A    between atoms: C_322  and  O_121 
REMARK  120  A    between atoms: C_323  and  O_122 
REMARK  121  A    between atoms: C_385  and  O_123 
REMARK  122  A    between atoms: O_123  and  C_386 
REMARK  123  A    between atoms: C_329  and  O_124 
REMARK  124  A    between atoms: C_330  and  O_125 
REMARK  125  A    between atoms: C_333  and  O_126 
REMARK  126  A    between atoms: C_334  and  O_127 
REMARK  127  A    between atoms: C_339  and  O_128 
REMARK  128  A    between atoms: C_340  and  O_129 
REMARK  129  A    between atoms: C_342  and  O_132 
REMARK  130  A    between atoms: C_343  and  O_133 
REMARK  131  A    between atoms: C_349  and  O_134 
REMARK  132  A    between atoms: C_350  and  O_135 
REMARK  133  A    between atoms: C_387  and  O_136 
REMARK  134  A    between atoms: C_407  and  O_136 
REMARK  135  A    between atoms: C_354  and  O_137 
REMARK  136  A    between atoms: C_355  and  O_138 
REMARK  137  A    between atoms: O_139  and  C_357 
REMARK  138  A    between atoms: O_140  and  C_358 
REMARK  139  A    between atoms: O_141  and  C_359 
REMARK  140  A    between atoms: O_142  and  C_360 
REMARK  141  A    between atoms: O_143  and  C_361 
REMARK  142  A    between atoms: O_144  and  C_362 
REMARK  143  A    between atoms: O_145  and  C_363 
REMARK  144  A    between atoms: O_146  and  C_364 
REMARK  145  A    between atoms: O_147  and  C_365 
REMARK  146  A    between atoms: O_149  and  C_367 
REMARK  147  A    between atoms: O_150  and  C_368 
REMARK  148  A    between atoms: C_370  and  O_151 
REMARK  149  A    between atoms: O_152  and  C_369 
REMARK  150  A    between atoms: O_153  and  C_371 
REMARK  151  A    between atoms: O_154  and  C_403 
REMARK  152  A    between atoms: C_406  and  O_154 
REMARK  153  A    between atoms: O_155  and  C_372 
REMARK  154  A    between atoms: O_156  and  C_373 
REMARK  155  A    between atoms: C_374  and  O_157 
REMARK  156  A    between atoms: O_158  and  C_375 
REMARK  157  A    between atoms: O_159  and  C_376 
REMARK  158  A    between atoms: O_160  and  C_377 
REMARK  159  A    between atoms: O_161  and  C_378 
REMARK  160  A    between atoms: O_162  and  C_379 
REMARK  161  A    between atoms: O_163  and  C_380 
REMARK  162  A    between atoms: O_164  and  C_382 
REMARK  163  A    between atoms: O_165  and  C_383 
REMARK  164  A    between atoms: O_166  and  C_388 
REMARK  165  A    between atoms: O_167  and  C_389 
REMARK  166  A    between atoms: O_168  and  C_390 
REMARK  167  A    between atoms: O_169  and  C_391 
REMARK  168  A    between atoms: C_392  and  O_170 
REMARK  169  A    between atoms: C_394  and  O_171 
REMARK  170  A    between atoms: O_173  and  C_396 
REMARK  171  A    between atoms: C_397  and  O_175 
REMARK  172  A    between atoms: C_398  and  O_176 
REMARK  173  A    between atoms: O_177  and  C_399 
REMARK  174  A    between atoms: O_178  and  C_400 
REMARK  175  A    between atoms: O_181  and  C_405 
REMARK  176  A    between atoms: C_408  and  O_182 
REMARK  177  A    between atoms: O_183  and  C_409 
REMARK  178  A    between atoms: O_184  and  C_410 
REMARK  179  A    between atoms: C_411  and  O_185 
REMARK  180  A    between atoms: C_412  and  O_186 
REMARK  181  A    between atoms: C_414  and  O_187 
REMARK  182  A    between atoms: C_415  and  O_188 
REMARK  183  A    between atoms: O_189  and  C_417 
REMARK  184  A    between atoms: O_190  and  C_418 
REMARK  185  A    between atoms: O_191  and  C_419 
REMARK  186  A    between atoms: C_192  and  C_249 
REMARK  187  A    between atoms: C_193  and  C_248 
REMARK  188  A    between atoms: C_194  and  C_251 
REMARK  189  A    between atoms: C_195  and  C_250 
REMARK  190  A    between atoms: C_196  and  C_253 
REMARK  191  A    between atoms: C_197  and  C_252 
REMARK  192  A    between atoms: C_198  and  C_255 
REMARK  193  A    between atoms: C_199  and  C_254 
REMARK  194  A    between atoms: C_200  and  C_257 
REMARK  195  A    between atoms: C_201  and  C_256 
REMARK  196  A    between atoms: C_202  and  C_259 
REMARK  197  A    between atoms: C_203  and  C_258 
REMARK  198  A    between atoms: C_204  and  C_261 
REMARK  199  A    between atoms: C_205  and  C_260 
REMARK  200  A    between atoms: C_206  and  C_263 
REMARK  201  A    between atoms: C_207  and  C_262 
REMARK  202  A    between atoms: C_208  and  C_265 
REMARK  203  A    between atoms: C_209  and  C_264 
REMARK  204  A    between atoms: C_210  and  C_280 
REMARK  205  A    between atoms: C_211  and  C_274 
REMARK  206  A    between atoms: C_212  and  C_289 
REMARK  207  A    between atoms: C_213  and  C_286 
REMARK  208  A    between atoms: C_214  and  C_297 
REMARK  209  A    between atoms: C_215  and  C_291 
REMARK  210  A    between atoms: C_216  and  C_321 
REMARK  211  A    between atoms: C_217  and  C_316 
REMARK  212  A    between atoms: C_218  and  C_335 
REMARK  213  A    between atoms: C_219  and  C_328 
REMARK  214  A    between atoms: C_244  and  C_341 
REMARK  215  A    between atoms: C_245  and  C_338 
REMARK  216  A    between atoms: C_295  and  C_357 
REMARK  217  A    between atoms: C_296  and  C_358 
REMARK  218  A    between atoms: C_298  and  C_359 
REMARK  219  A    between atoms: C_299  and  C_360 
REMARK  220  A    between atoms: C_300  and  C_361 
REMARK  221  A    between atoms: C_301  and  C_362 
REMARK  222  A    between atoms: C_302  and  C_363 
REMARK  223  A    between atoms: C_303  and  C_364 
REMARK  224  A    between atoms: C_304  and  C_365 
REMARK  225  A    between atoms: C_305  and  C_366 
REMARK  226  A    between atoms: C_306  and  C_367 
REMARK  227  A    between atoms: C_307  and  C_368 
REMARK  228  A    between atoms: C_308  and  C_369 
REMARK  229  A    between atoms: C_309  and  C_371 
REMARK  230  A    between atoms: C_312  and  C_372 
REMARK  231  A    between atoms: C_313  and  C_373 
REMARK  232  A    between atoms: C_314  and  C_375 
REMARK  233  A    between atoms: C_315  and  C_376 
REMARK  234  A    between atoms: C_317  and  C_377 
REMARK  235  A    between atoms: C_318  and  C_378 
REMARK  236  A    between atoms: C_319  and  C_379 
REMARK  237  A    between atoms: C_320  and  C_380 
REMARK  238  A    between atoms: C_324  and  C_351 
REMARK  239  A    between atoms: C_325  and  C_348 
REMARK  240  A    between atoms: C_326  and  C_382 
REMARK  241  A    between atoms: C_327  and  C_383 
REMARK  242  A    between atoms: C_331  and  C_388 
REMARK  243  A    between atoms: C_332  and  C_389 
REMARK  244  A    between atoms: C_336  and  C_390 
REMARK  245  A    between atoms: C_337  and  C_391 
REMARK  246  A    between atoms: C_344  and  C_395 
REMARK  247  A    between atoms: C_345  and  C_396 
REMARK  248  A    between atoms: C_346  and  C_386 
REMARK  249  A    between atoms: C_347  and  C_356 
REMARK  250  A    between atoms: C_352  and  C_399 
REMARK  251  A    between atoms: C_353  and  C_400 
REMARK  252  A    between atoms: C_381  and  C_404 
REMARK  253  A    between atoms: C_384  and  C_405 
REMARK  254  A    between atoms: C_385  and  C_403 
REMARK  255  A    between atoms: C_387  and  C_393 
REMARK  256  A    between atoms: C_401  and  C_409 
REMARK  257  A    between atoms: C_402  and  C_410 
REMARK  258  A    between atoms: C_406  and  C_417 
REMARK  259  A    between atoms: C_413  and  C_418 
REMARK  260  A    between atoms: C_416  and  C_419 
ROOT
HETATM    1  O   UNK N   1      10.496   4.828  -1.141  0.00  0.00    -0.341 OA
HETATM    2  O   UNK N   1      10.294   2.546  -3.431  0.00  0.00    -0.387 OA
HETATM    3  C   UNK N   1       9.611   3.756  -1.386  0.00  0.00     0.215 C 
HETATM    4  C   UNK N   1      10.490   2.661  -2.052  0.00  0.00     0.214 C 
HETATM    5  C   UNK N   1      11.895   3.156  -1.831  0.00  0.00     0.183 C 
HETATM    6  C   UNK N   1      11.671   4.154  -0.753  0.00  0.00     0.180 C 
HETATM    7  H   UNK N   1      10.157   2.624  -4.388  0.00  0.00     0.210 HD
ENDROOT
BRANCH   3   8
HETATM    8  O   UNK N   1       9.240   3.233  -0.112  0.00  0.00    -0.345 OA
BRANCH   8   9
HETATM    9  C   UNK N   1       7.864   3.091   0.099  0.00  0.00     0.243 C 
BRANCH   9  10
HETATM   10  C   UNK N   1       7.346   1.682   0.275  0.00  0.00     0.215 C 
HETATM   11  O   UNK N   1       6.081   1.797   0.913  0.00  0.00    -0.341 OA
HETATM   12  C   UNK N   1       5.160   1.065   0.137  0.00  0.00     0.180 C 
HETATM   13  C   UNK N   1       5.631   1.147  -1.282  0.00  0.00     0.183 C 
HETATM   14  C   UNK N   1       7.081   0.910  -1.036  0.00  0.00     0.214 C 
BRANCH  10  15
HETATM   15  O   UNK N   1       8.189   1.011   1.161  0.00  0.00    -0.345 OA
BRANCH  15  16
HETATM   16  C   UNK N   1       9.433   0.728   0.573  0.00  0.00     0.243 C 
BRANCH  16  17
HETATM   17  C   UNK N   1      10.384   0.155   1.628  0.00  0.00     0.215 C 
HETATM   18  O   UNK N   1      11.639   0.006   0.984  0.00  0.00    -0.341 OA
HETATM   19  C   UNK N   1      12.487   1.037   1.443  0.00  0.00     0.180 C 
HETATM   20  C   UNK N   1      11.590   2.039   2.154  0.00  0.00     0.183 C 
HETATM   21  C   UNK N   1      10.558   1.151   2.779  0.00  0.00     0.214 C 
BRANCH  17  22
HETATM   22  O   UNK N   1       9.979  -1.119   2.109  0.00  0.00    -0.345 OA
BRANCH  22  23
HETATM   23  C   UNK N   1       8.595  -1.193   2.350  0.00  0.00     0.243 C 
BRANCH  23  24
HETATM   24  C   UNK N   1       7.866  -2.122   1.349  0.00  0.00     0.215 C 
HETATM   25  O   UNK N   1       7.358  -3.174   2.151  0.00  0.00    -0.341 OA
HETATM   26  C   UNK N   1       6.143  -2.675   2.655  0.00  0.00     0.180 C 
HETATM   27  C   UNK N   1       5.459  -2.112   1.460  0.00  0.00     0.183 C 
HETATM   28  C   UNK N   1       6.601  -1.464   0.741  0.00  0.00     0.214 C 
BRANCH  24  29
HETATM   29  O   UNK N   1       8.763  -2.672   0.384  0.00  0.00    -0.345 OA
BRANCH  29  30
HETATM   30  C   UNK N   1       9.180  -1.821  -0.670  0.00  0.00     0.243 C 
BRANCH  30  31
HETATM   31  C   UNK N   1       9.847  -2.602  -1.876  0.00  0.00     0.215 C 
HETATM   32  O   UNK N   1      11.138  -3.030  -1.497  0.00  0.00    -0.341 OA
HETATM   33  C   UNK N   1      11.961  -2.698  -2.579  0.00  0.00     0.180 C 
HETATM   34  C   UNK N   1      11.502  -1.341  -3.050  0.00  0.00     0.183 C 
HETATM   35  C   UNK N   1      10.022  -1.593  -3.039  0.00  0.00     0.214 C 
BRANCH  31  36
HETATM   36  O   UNK N   1       9.174  -3.766  -2.348  0.00  0.00    -0.345 OA
BRANCH  36  37
HETATM   37  C   UNK N   1       7.845  -3.726  -1.967  0.00  0.00     0.243 C 
BRANCH  37  38
HETATM   38  C   UNK N   1       7.366  -4.994  -1.258  0.00  0.00     0.215 C 
HETATM   39  O   UNK N   1       6.913  -5.872  -2.272  0.00  0.00    -0.341 OA
HETATM   40  C   UNK N   1       5.614  -5.427  -2.592  0.00  0.00     0.180 C 
HETATM   41  C   UNK N   1       4.961  -4.999  -1.309  0.00  0.00     0.183 C 
HETATM   42  C   UNK N   1       6.122  -4.547  -0.485  0.00  0.00     0.214 C 
BRANCH  38  43
HETATM   43  O   UNK N   1       8.279  -5.713  -0.399  0.00  0.00    -0.345 OA
BRANCH  43  44
HETATM   44  C   UNK N   1       9.486  -5.094   0.037  0.00  0.00     0.243 C 
BRANCH  44  45
HETATM   45  C   UNK N   1      10.005  -5.377   1.528  0.00  0.00     0.215 C 
HETATM   46  O   UNK N   1      11.367  -5.769   1.391  0.00  0.00    -0.341 OA
HETATM   47  C   UNK N   1      12.140  -4.906   2.197  0.00  0.00     0.180 C 
HETATM   48  C   UNK N   1      11.429  -3.588   2.237  0.00  0.00     0.183 C 
HETATM   49  C   UNK N   1      10.023  -4.083   2.366  0.00  0.00     0.214 C 
BRANCH  45  50
HETATM   50  O   UNK N   1       9.361  -6.389   2.304  0.00  0.00    -0.345 OA
BRANCH  50  51
HETATM   51  C   UNK N   1       8.016  -6.609   1.971  0.00  0.00     0.243 C 
BRANCH  51  52
HETATM   52  C   UNK N   1       7.807  -8.109   1.673  0.00  0.00     0.215 C 
HETATM   53  O   UNK N   1       7.301  -8.696   2.850  0.00  0.00    -0.341 OA
HETATM   54  C   UNK N   1       5.877  -8.679   2.755  0.00  0.00     0.180 C 
HETATM   55  C   UNK N   1       5.440  -8.493   1.316  0.00  0.00     0.183 C 
HETATM   56  C   UNK N   1       6.758  -8.460   0.643  0.00  0.00     0.214 C 
BRANCH  52  57
HETATM   57  O   UNK N   1       9.023  -8.745   1.331  0.00  0.00    -0.345 OA
BRANCH  57  58
HETATM   58  C   UNK N   1       9.593  -8.122   0.196  0.00  0.00     0.243 C 
BRANCH  58  59
HETATM   59  C   UNK N   1      10.799  -8.906  -0.284  0.00  0.00     0.215 C 
HETATM   60  O   UNK N   1      11.590  -9.154   0.863  0.00  0.00    -0.341 OA
HETATM   61  C   UNK N   1      12.932  -8.949   0.500  0.00  0.00     0.180 C 
HETATM   62  C   UNK N   1      13.029  -8.031  -0.698  0.00  0.00     0.183 C 
HETATM   63  C   UNK N   1      11.616  -7.994  -1.207  0.00  0.00     0.214 C 
BRANCH  59  64
HETATM   64  O   UNK N   1      10.473 -10.129  -0.966  0.00  0.00    -0.345 OA
BRANCH  64  65
HETATM   65  C   UNK N   1       9.101 -10.480  -0.928  0.00  0.00     0.243 C 
BRANCH  65  66
HETATM   66  C   UNK N   1       8.804 -11.674   0.001  0.00  0.00     0.215 C 
HETATM   67  O   UNK N   1       8.599 -12.855  -0.753  0.00  0.00    -0.341 OA
HETATM   68  C   UNK N   1       7.511 -13.544  -0.161  0.00  0.00     0.180 C 
HETATM   69  C   UNK N   1       7.089 -12.813   1.101  0.00  0.00     0.183 C 
HETATM   70  C   UNK N   1       7.478 -11.426   0.725  0.00  0.00     0.214 C 
BRANCH  66  71
HETATM   71  O   UNK N   1       9.860 -11.791   0.960  0.00  0.00    -0.345 OA
BRANCH  71  72
HETATM   72  C   UNK N   1      10.611 -12.994   0.871  0.00  0.00     0.243 C 
BRANCH  72  73
HETATM   73  C   UNK N   1      11.695 -12.984  -0.230  0.00  0.00     0.215 C 
HETATM   74  O   UNK N   1      12.677 -13.954   0.111  0.00  0.00    -0.341 OA
HETATM   75  C   UNK N   1      13.888 -13.265   0.392  0.00  0.00     0.180 C 
HETATM   76  C   UNK N   1      13.528 -11.861   0.739  0.00  0.00     0.183 C 
HETATM   77  C   UNK N   1      12.420 -11.656  -0.246  0.00  0.00     0.214 C 
BRANCH  73  78
HETATM   78  O   UNK N   1      11.040 -13.222  -1.477  0.00  0.00    -0.345 OA
BRANCH  78  79
HETATM   79  C   UNK N   1      11.721 -14.175  -2.257  0.00  0.00     0.243 C 
BRANCH  79  80
HETATM   80  C   UNK N   1      11.223 -15.636  -2.005  0.00  0.00     0.215 C 
HETATM   81  O   UNK N   1      10.522 -15.707  -0.774  0.00  0.00    -0.341 OA
HETATM   82  C   UNK N   1       9.305 -16.332  -1.085  0.00  0.00     0.180 C 
HETATM   83  C   UNK N   1       8.888 -15.780  -2.414  0.00  0.00     0.183 C 
HETATM   84  C   UNK N   1      10.198 -16.032  -3.081  0.00  0.00     0.214 C 
BRANCH  80  85
HETATM   85  O   UNK N   1      12.276 -16.608  -2.009  0.00  0.00    -0.345 OA
BRANCH  85  86
HETATM   86  C   UNK N   1      13.445 -16.053  -1.445  0.00  0.00     0.243 C 
BRANCH  86  87
HETATM   87  C   UNK N   1      14.114 -16.699  -0.192  0.00  0.00     0.215 C 
HETATM   88  O   UNK N   1      15.015 -15.706   0.263  0.00  0.00    -0.341 OA
HETATM   89  C   UNK N   1      16.304 -16.243   0.380  0.00  0.00     0.180 C 
HETATM   90  C   UNK N   1      16.137 -17.723   0.428  0.00  0.00     0.183 C 
HETATM   91  C   UNK N   1      14.978 -17.916  -0.530  0.00  0.00     0.214 C 
BRANCH  87  92
HETATM   92  O   UNK N   1      13.279 -16.993   0.932  0.00  0.00    -0.345 OA
BRANCH  92  93
HETATM   93  C   UNK N   1      11.985 -17.441   0.606  0.00  0.00     0.243 C 
BRANCH  93  94
HETATM   94  C   UNK N   1      11.842 -18.957   0.401  0.00  0.00     0.215 C 
HETATM   95  O   UNK N   1      10.907 -19.500   1.330  0.00  0.00    -0.341 OA
HETATM   96  C   UNK N   1       9.771 -19.906   0.601  0.00  0.00     0.180 C 
HETATM   97  C   UNK N   1       9.806 -19.177  -0.712  0.00  0.00     0.183 C 
HETATM   98  C   UNK N   1      11.272 -19.146  -1.010  0.00  0.00     0.214 C 
BRANCH  94  99
HETATM   99  O   UNK N   1      13.086 -19.610   0.478  0.00  0.00    -0.345 OA
BRANCH  99 100
HETATM  100  C   UNK N   1      13.528 -19.719   1.814  0.00  0.00     0.243 C 
BRANCH 100 101
HETATM  101  C   UNK N   1      14.577 -20.850   1.925  0.00  0.00     0.215 C 
HETATM  102  O   UNK N   1      15.285 -20.700   3.141  0.00  0.00    -0.341 OA
HETATM  103  C   UNK N   1      16.664 -20.952   2.875  0.00  0.00     0.180 C 
HETATM  104  C   UNK N   1      16.818 -21.415   1.437  0.00  0.00     0.183 C 
HETATM  105  C   UNK N   1      15.645 -20.710   0.849  0.00  0.00     0.214 C 
BRANCH 101 106
HETATM  106  O   UNK N   1      13.989 -22.142   1.932  0.00  0.00    -0.345 OA
BRANCH 106 107
HETATM  107  C   UNK N   1      13.065 -22.259   0.880  0.00  0.00     0.243 C 
BRANCH 107 108
HETATM  108  C   UNK N   1      12.522 -23.681   0.771  0.00  0.00     0.215 C 
HETATM  109  O   UNK N   1      12.023 -24.019   2.061  0.00  0.00    -0.341 OA
HETATM  110  C   UNK N   1      10.623 -24.127   1.966  0.00  0.00     0.180 C 
HETATM  111  C   UNK N   1      10.368 -24.560   0.542  0.00  0.00     0.183 C 
HETATM  112  C   UNK N   1      11.349 -23.744  -0.237  0.00  0.00     0.214 C 
BRANCH 108 113
HETATM  113  O   UNK N   1      13.507 -24.651   0.408  0.00  0.00    -0.345 OA
BRANCH 113 114
HETATM  114  C   UNK N   1      14.607 -24.102  -0.308  0.00  0.00     0.243 C 
BRANCH 114 115
HETATM  115  C   UNK N   1      14.671 -24.472  -1.811  0.00  0.00     0.215 C 
HETATM  116  O   UNK N   1      14.972 -23.266  -2.492  0.00  0.00    -0.341 OA
HETATM  117  C   UNK N   1      16.366 -23.271  -2.771  0.00  0.00     0.180 C 
HETATM  118  C   UNK N   1      17.025 -24.476  -2.112  0.00  0.00     0.183 C 
HETATM  119  C   UNK N   1      15.868 -25.415  -2.137  0.00  0.00     0.214 C 
BRANCH 117 120
HETATM  120  C   UNK N   1      17.045 -21.949  -2.425  0.00  0.00     0.198 C 
BRANCH 120 121
HETATM  121  O   UNK N   1      18.404 -21.994  -2.758  0.00  0.00    -0.398 OA
HETATM  122  H   UNK N   1      18.848 -22.825  -2.990  0.00  0.00     0.209 HD
ENDBRANCH 120 121
ENDBRANCH 117 120
BRANCH 118 123
HETATM  123  O   UNK N   1      17.398 -24.217  -0.792  0.00  0.00    -0.390 OA
HETATM  124  H   UNK N   1      17.684 -24.351   0.126  0.00  0.00     0.210 HD
ENDBRANCH 118 123
BRANCH 119 125
HETATM  125  O   UNK N   1      15.794 -25.905  -3.449  0.00  0.00    -0.387 OA
HETATM  126  H   UNK N   1      15.475 -26.030  -4.356  0.00  0.00     0.210 HD
ENDBRANCH 119 125
BRANCH 115 127
HETATM  127  O   UNK N   1      13.372 -24.934  -2.189  0.00  0.00    -0.345 OA
BRANCH 127 128
HETATM  128  C   UNK N   1      13.313 -26.283  -2.622  0.00  0.00     0.243 C 
BRANCH 128 129
HETATM  129  C   UNK N   1      12.974 -27.334  -1.529  0.00  0.00     0.215 C 
HETATM  130  O   UNK N   1      12.126 -26.776  -0.537  0.00  0.00    -0.341 OA
HETATM  131  C   UNK N   1      10.791 -27.171  -0.818  0.00  0.00     0.180 C 
HETATM  132  C   UNK N   1      10.754 -27.906  -2.141  0.00  0.00     0.183 C 
HETATM  133  C   UNK N   1      12.150 -28.452  -2.143  0.00  0.00     0.214 C 
BRANCH 131 134
HETATM  134  C   UNK N   1      10.263 -28.051   0.305  0.00  0.00     0.198 C 
BRANCH 134 135
HETATM  135  O   UNK N   1      10.336 -27.382   1.527  0.00  0.00    -0.398 OA
HETATM  136  H   UNK N   1      10.764 -27.194   2.377  0.00  0.00     0.209 HD
ENDBRANCH 134 135
ENDBRANCH 131 134
BRANCH 132 137
HETATM  137  O   UNK N   1      10.583 -26.976  -3.170  0.00  0.00    -0.390 OA
HETATM  138  H   UNK N   1      11.083 -26.551  -3.885  0.00  0.00     0.210 HD
ENDBRANCH 132 137
BRANCH 133 139
HETATM  139  O   UNK N   1      12.591 -28.864  -3.404  0.00  0.00    -0.387 OA
HETATM  140  H   UNK N   1      12.496 -29.273  -4.278  0.00  0.00     0.210 HD
ENDBRANCH 133 139
BRANCH 129 141
HETATM  141  O   UNK N   1      14.148 -27.925  -0.979  0.00  0.00    -0.345 OA
BRANCH 141 142
HETATM  142  C   UNK N   1      14.678 -27.077   0.008  0.00  0.00     0.243 C 
BRANCH 142 143
HETATM  143  C   UNK N   1      15.742 -27.701   0.952  0.00  0.00     0.215 C 
HETATM  144  O   UNK N   1      16.242 -26.622   1.723  0.00  0.00    -0.341 OA
HETATM  145  C   UNK N   1      17.622 -26.546   1.466  0.00  0.00     0.180 C 
HETATM  146  C   UNK N   1      18.090 -27.929   1.065  0.00  0.00     0.183 C 
HETATM  147  C   UNK N   1      16.937 -28.307   0.182  0.00  0.00     0.214 C 
BRANCH 145 148
HETATM  148  C   UNK N   1      18.378 -25.965   2.651  0.00  0.00     0.198 C 
BRANCH 148 149
HETATM  149  O   UNK N   1      19.696 -25.689   2.285  0.00  0.00    -0.398 OA
HETATM  150  H   UNK N   1      20.320 -26.387   2.030  0.00  0.00     0.209 HD
ENDBRANCH 148 149
ENDBRANCH 145 148
BRANCH 146 151
HETATM  151  O   UNK N   1      18.125 -28.773   2.180  0.00  0.00    -0.390 OA
HETATM  152  H   UNK N   1      17.630 -29.086   2.954  0.00  0.00     0.210 HD
ENDBRANCH 146 151
BRANCH 147 153
HETATM  153  O   UNK N   1      17.134 -27.698  -1.060  0.00  0.00    -0.387 OA
HETATM  154  H   UNK N   1      17.568 -27.604  -1.922  0.00  0.00     0.210 HD
ENDBRANCH 147 153
BRANCH 143 155
HETATM  155  O   UNK N   1      15.270 -28.686   1.876  0.00  0.00    -0.345 OA
BRANCH 155 156
HETATM  156  C   UNK N   1      13.953 -29.104   1.607  0.00  0.00     0.243 C 
BRANCH 156 157
HETATM  157  C   UNK N   1      13.837 -30.486   0.909  0.00  0.00     0.215 C 
HETATM  158  O   UNK N   1      12.799 -30.347  -0.039  0.00  0.00    -0.341 OA
HETATM  159  C   UNK N   1      11.590 -30.725   0.585  0.00  0.00     0.180 C 
HETATM  160  C   UNK N   1      11.918 -31.215   1.986  0.00  0.00     0.183 C 
HETATM  161  C   UNK N   1      13.371 -31.576   1.888  0.00  0.00     0.214 C 
BRANCH 159 162
HETATM  162  C   UNK N   1      10.807 -31.685  -0.309  0.00  0.00     0.198 C 
BRANCH 162 163
HETATM  163  O   UNK N   1      11.612 -32.729  -0.763  0.00  0.00    -0.398 OA
HETATM  164  H   UNK N   1      11.263 -33.577  -1.079  0.00  0.00     0.209 HD
ENDBRANCH 162 163
ENDBRANCH 159 162
BRANCH 160 165
HETATM  165  O   UNK N   1      11.110 -32.270   2.419  0.00  0.00    -0.390 OA
HETATM  166  H   UNK N   1      10.195 -32.151   2.719  0.00  0.00     0.210 HD
ENDBRANCH 160 165
BRANCH 161 167
HETATM  167  O   UNK N   1      13.494 -32.835   1.293  0.00  0.00    -0.387 OA
HETATM  168  H   UNK N   1      12.781 -33.346   0.881  0.00  0.00     0.210 HD
ENDBRANCH 161 167
BRANCH 157 169
HETATM  169  O   UNK N   1      15.011 -30.851   0.198  0.00  0.00    -0.345 OA
BRANCH 169 170
HETATM  170  C   UNK N   1      16.067 -31.151   1.080  0.00  0.00     0.243 C 
BRANCH 170 171
HETATM  171  C   UNK N   1      17.085 -32.087   0.440  0.00  0.00     0.217 C 
HETATM  172  O   UNK N   1      18.234 -32.133   1.265  0.00  0.00    -0.341 OA
HETATM  173  C   UNK N   1      19.373 -32.124   0.413  0.00  0.00     0.180 C 
HETATM  174  C   UNK N   1      18.872 -32.232  -1.021  0.00  0.00     0.183 C 
HETATM  175  C   UNK N   1      17.604 -31.484  -0.880  0.00  0.00     0.214 C 
BRANCH 173 176
HETATM  176  C   UNK N   1      20.155 -30.833   0.655  0.00  0.00     0.198 C 
BRANCH 176 177
HETATM  177  O   UNK N   1      20.647 -30.813   1.960  0.00  0.00    -0.398 OA
HETATM  178  H   UNK N   1      20.831 -31.102   2.867  0.00  0.00     0.209 HD
ENDBRANCH 176 177
ENDBRANCH 173 176
BRANCH 174 179
HETATM  179  O   UNK N   1      19.731 -31.646  -1.954  0.00  0.00    -0.390 OA
HETATM  180  H   UNK N   1      20.382 -31.959  -2.602  0.00  0.00     0.210 HD
ENDBRANCH 174 179
BRANCH 175 181
HETATM  181  O   UNK N   1      16.755 -31.583  -1.985  0.00  0.00    -0.387 OA
HETATM  182  H   UNK N   1      16.401 -31.108  -2.753  0.00  0.00     0.210 HD
ENDBRANCH 175 181
BRANCH 171 183
HETATM  183  O   UNK N   1      16.550 -33.409   0.439  0.00  0.00    -0.318 OA
BRANCH 183 184
HETATM  184  C   UNK N   1      16.168 -33.902  -0.823  0.00  0.00     0.295 C 
HETATM  185  O   UNK N   1      17.104 -34.861  -1.285  0.00  0.00    -0.348 OA
HETATM  186  C   UNK N   1      17.270 -35.939  -0.361  0.00  0.00     0.179 C 
HETATM  187  C   UNK N   1      16.047 -36.221   0.544  0.00  0.00     0.180 C 
HETATM  188  C   UNK N   1      14.785 -35.958  -0.263  0.00  0.00     0.183 C 
HETATM  189  C   UNK N   1      14.759 -34.508  -0.760  0.00  0.00     0.204 C 
BRANCH 186 190
HETATM  190  C   UNK N   1      18.548 -35.745   0.447  0.00  0.00     0.198 C 
BRANCH 190 191
HETATM  191  O   UNK N   1      18.869 -36.907   1.149  0.00  0.00    -0.398 OA
HETATM  192  H   UNK N   1      18.280 -37.505   1.637  0.00  0.00     0.209 HD
ENDBRANCH 190 191
ENDBRANCH 186 190
BRANCH 187 193
HETATM  193  O   UNK N   1      16.076 -37.540   1.001  0.00  0.00    -0.390 OA
HETATM  194  H   UNK N   1      15.293 -38.015   1.319  0.00  0.00     0.210 HD
ENDBRANCH 187 193
BRANCH 188 195
HETATM  195  O   UNK N   1      13.641 -36.216   0.494  0.00  0.00    -0.390 OA
HETATM  196  H   UNK N   1      13.088 -35.617   1.020  0.00  0.00     0.210 HD
ENDBRANCH 188 195
BRANCH 189 197
HETATM  197  O   UNK N   1      14.160 -34.472  -2.019  0.00  0.00    -0.388 OA
HETATM  198  H   UNK N   1      13.973 -34.098  -2.895  0.00  0.00     0.210 HD
ENDBRANCH 189 197
ENDBRANCH 183 184
ENDBRANCH 171 183
ENDBRANCH 170 171
ENDBRANCH 169 170
ENDBRANCH 157 169
ENDBRANCH 156 157
ENDBRANCH 155 156
ENDBRANCH 143 155
ENDBRANCH 142 143
ENDBRANCH 141 142
ENDBRANCH 129 141
ENDBRANCH 128 129
ENDBRANCH 127 128
ENDBRANCH 115 127
ENDBRANCH 114 115
ENDBRANCH 113 114
ENDBRANCH 108 113
BRANCH 110 199
HETATM  199  C   UNK N   1       9.990 -22.785   2.352  0.00  0.00     0.198 C 
BRANCH 199 200
HETATM  200  O   UNK N   1       8.602 -22.890   2.408  0.00  0.00    -0.398 OA
HETATM  201  H   UNK N   1       8.055 -22.090   2.447  0.00  0.00     0.209 HD
ENDBRANCH 199 200
ENDBRANCH 110 199
BRANCH 111 202
HETATM  202  O   UNK N   1       9.045 -24.397   0.122  0.00  0.00    -0.390 OA
HETATM  203  H   UNK N   1       8.683 -23.545  -0.170  0.00  0.00     0.210 HD
ENDBRANCH 111 202
BRANCH 112 204
HETATM  204  O   UNK N   1      10.778 -22.492  -0.465  0.00  0.00    -0.387 OA
HETATM  205  H   UNK N   1      11.334 -21.713  -0.623  0.00  0.00     0.210 HD
ENDBRANCH 112 204
ENDBRANCH 107 108
ENDBRANCH 106 107
ENDBRANCH 101 106
BRANCH 103 206
HETATM  206  C   UNK N   1      17.477 -19.685   3.128  0.00  0.00     0.198 C 
BRANCH 206 207
HETATM  207  O   UNK N   1      18.823 -19.894   2.828  0.00  0.00    -0.398 OA
HETATM  208  H   UNK N   1      19.165 -20.778   2.619  0.00  0.00     0.209 HD
ENDBRANCH 206 207
ENDBRANCH 103 206
BRANCH 104 209
HETATM  209  O   UNK N   1      16.634 -22.795   1.395  0.00  0.00    -0.390 OA
HETATM  210  H   UNK N   1      15.738 -23.165   1.366  0.00  0.00     0.210 HD
ENDBRANCH 104 209
BRANCH 105 211
HETATM  211  O   UNK N   1      15.266 -21.164  -0.412  0.00  0.00    -0.387 OA
HETATM  212  H   UNK N   1      14.861 -21.094  -1.291  0.00  0.00     0.210 HD
ENDBRANCH 105 211
ENDBRANCH 100 101
ENDBRANCH  99 100
ENDBRANCH  94  99
BRANCH  96 213
HETATM  213  C   UNK N   1       8.503 -19.568   1.373  0.00  0.00     0.198 C 
BRANCH 213 214
HETATM  214  O   UNK N   1       7.379 -20.069   0.712  0.00  0.00    -0.398 OA
HETATM  215  H   UNK N   1       6.688 -19.566   0.253  0.00  0.00     0.209 HD
ENDBRANCH 213 214
ENDBRANCH  96 213
BRANCH  97 216
HETATM  216  O   UNK N   1       9.061 -19.819  -1.704  0.00  0.00    -0.390 OA
HETATM  217  H   UNK N   1       8.416 -19.594  -2.393  0.00  0.00     0.210 HD
ENDBRANCH  97 216
BRANCH  98 218
HETATM  218  O   UNK N   1      11.683 -20.358  -1.570  0.00  0.00    -0.387 OA
HETATM  219  H   UNK N   1      11.096 -21.026  -1.959  0.00  0.00     0.210 HD
ENDBRANCH  98 218
ENDBRANCH  93  94
ENDBRANCH  92  93
ENDBRANCH  87  92
BRANCH  89 220
HETATM  220  C   UNK N   1      17.182 -15.776  -0.772  0.00  0.00     0.198 C 
BRANCH 220 221
HETATM  221  O   UNK N   1      18.500 -16.170  -0.547  0.00  0.00    -0.398 OA
HETATM  222  H   UNK N   1      18.722 -17.101  -0.391  0.00  0.00     0.209 HD
ENDBRANCH 220 221
ENDBRANCH  89 220
BRANCH  90 223
HETATM  223  O   UNK N   1      15.735 -18.010   1.730  0.00  0.00    -0.390 OA
HETATM  224  H   UNK N   1      15.422 -17.867   2.637  0.00  0.00     0.210 HD
ENDBRANCH  90 223
BRANCH  91 225
HETATM  225  O   UNK N   1      15.464 -17.858  -1.842  0.00  0.00    -0.387 OA
HETATM  226  H   UNK N   1      15.666 -18.129  -2.751  0.00  0.00     0.210 HD
ENDBRANCH  91 225
ENDBRANCH  86  87
ENDBRANCH  85  86
ENDBRANCH  80  85
BRANCH  82 227
HETATM  227  C   UNK N   1       8.306 -16.252   0.056  0.00  0.00     0.198 C 
BRANCH 227 228
HETATM  228  O   UNK N   1       7.153 -16.977  -0.250  0.00  0.00    -0.398 OA
HETATM  229  H   UNK N   1       6.316 -16.535  -0.462  0.00  0.00     0.209 HD
ENDBRANCH 227 228
ENDBRANCH  82 227
BRANCH  83 230
HETATM  230  O   UNK N   1       7.883 -16.552  -2.998  0.00  0.00    -0.390 OA
HETATM  231  H   UNK N   1       7.068 -16.216  -3.403  0.00  0.00     0.210 HD
ENDBRANCH  83 230
BRANCH  84 232
HETATM  232  O   UNK N   1      10.333 -15.358  -4.297  0.00  0.00    -0.387 OA
HETATM  233  H   UNK N   1      10.786 -15.206  -5.142  0.00  0.00     0.210 HD
ENDBRANCH  84 232
ENDBRANCH  79  80
ENDBRANCH  78  79
ENDBRANCH  73  78
BRANCH  75 234
HETATM  234  C   UNK N   1      14.817 -13.271  -0.833  0.00  0.00     0.198 C 
BRANCH 234 235
HETATM  235  O   UNK N   1      16.033 -12.663  -0.522  0.00  0.00    -0.398 OA
HETATM  236  H   UNK N   1      16.822 -13.184  -0.306  0.00  0.00     0.209 HD
ENDBRANCH 234 235
ENDBRANCH  75 234
BRANCH  76 237
HETATM  237  O   UNK N   1      13.031 -11.822   2.044  0.00  0.00    -0.390 OA
HETATM  238  H   UNK N   1      12.881 -11.509   2.950  0.00  0.00     0.210 HD
ENDBRANCH  76 237
BRANCH  77 239
HETATM  239  O   UNK N   1      12.952 -11.382  -1.513  0.00  0.00    -0.387 OA
HETATM  240  H   UNK N   1      13.300 -11.607  -2.390  0.00  0.00     0.210 HD
ENDBRANCH  77 239
ENDBRANCH  72  73
ENDBRANCH  71  72
ENDBRANCH  66  71
BRANCH  68 241
HETATM  241  C   UNK N   1       6.366 -13.637  -1.164  0.00  0.00     0.198 C 
BRANCH 241 242
HETATM  242  O   UNK N   1       5.311 -14.370  -0.620  0.00  0.00    -0.398 OA
HETATM  243  H   UNK N   1       4.502 -13.990  -0.243  0.00  0.00     0.209 HD
ENDBRANCH 241 242
ENDBRANCH  68 241
BRANCH  69 244
HETATM  244  O   UNK N   1       7.852 -13.250   2.187  0.00  0.00    -0.390 OA
HETATM  245  H   UNK N   1       7.854 -13.860   2.941  0.00  0.00     0.210 HD
ENDBRANCH  69 244
BRANCH  70 246
HETATM  246  O   UNK N   1       6.507 -10.977  -0.182  0.00  0.00    -0.387 OA
HETATM  247  H   UNK N   1       6.439 -10.241  -0.809  0.00  0.00     0.210 HD
ENDBRANCH  70 246
ENDBRANCH  65  66
ENDBRANCH  64  65
ENDBRANCH  59  64
BRANCH  61 248
HETATM  248  C   UNK N   1      13.810  -8.606   1.699  0.00  0.00     0.198 C 
BRANCH 248 249
HETATM  249  O   UNK N   1      15.152  -8.838   1.391  0.00  0.00    -0.398 OA
HETATM  250  H   UNK N   1      15.479  -9.726   1.177  0.00  0.00     0.209 HD
ENDBRANCH 248 249
ENDBRANCH  61 248
BRANCH  62 251
HETATM  251  O   UNK N   1      13.403  -6.742  -0.328  0.00  0.00    -0.390 OA
HETATM  252  H   UNK N   1      14.310  -6.518  -0.069  0.00  0.00     0.210 HD
ENDBRANCH  62 251
BRANCH  63 253
HETATM  253  O   UNK N   1      11.573  -8.407  -2.540  0.00  0.00    -0.387 OA
HETATM  254  H   UNK N   1      11.310  -8.525  -3.467  0.00  0.00     0.210 HD
ENDBRANCH  63 253
ENDBRANCH  58  59
ENDBRANCH  57  58
ENDBRANCH  52  57
BRANCH  54 255
HETATM  255  C   UNK N   1       5.302  -9.989   3.250  0.00  0.00     0.198 C 
HETATM  256  O   UNK N   1       5.496 -10.096   4.625  0.00  0.00    -0.398 OA
HETATM  257  H   UNK N   1       5.500 -10.250   5.583  0.00  0.00     0.209 HD
ENDBRANCH  54 255
BRANCH  55 258
HETATM  258  O   UNK N   1       4.748  -7.296   1.176  0.00  0.00    -0.390 OA
HETATM  259  H   UNK N   1       5.230  -6.460   1.079  0.00  0.00     0.210 HD
ENDBRANCH  55 258
BRANCH  56 260
HETATM  260  O   UNK N   1       6.813  -7.868  -0.610  0.00  0.00    -0.387 OA
HETATM  261  H   UNK N   1       7.191  -7.694  -1.486  0.00  0.00     0.210 HD
ENDBRANCH  56 260
ENDBRANCH  51  52
ENDBRANCH  50  51
ENDBRANCH  45  50
BRANCH  47 262
HETATM  262  C   UNK N   1      13.569  -4.755   1.681  0.00  0.00     0.198 C 
BRANCH 262 263
HETATM  263  O   UNK N   1      14.289  -3.867   2.484  0.00  0.00    -0.398 OA
HETATM  264  H   UNK N   1      15.073  -3.992   3.041  0.00  0.00     0.209 HD
ENDBRANCH 262 263
ENDBRANCH  47 262
BRANCH  48 265
HETATM  265  O   UNK N   1      11.599  -2.924   1.024  0.00  0.00    -0.390 OA
HETATM  266  H   UNK N   1      12.058  -2.795   0.180  0.00  0.00     0.210 HD
ENDBRANCH  48 265
BRANCH  49 267
HETATM  267  O   UNK N   1       9.794  -4.345   3.723  0.00  0.00    -0.387 OA
HETATM  268  H   UNK N   1       9.557  -4.298   4.662  0.00  0.00     0.210 HD
ENDBRANCH  49 267
ENDBRANCH  44  45
ENDBRANCH  43  44
ENDBRANCH  38  43
BRANCH  40 269
HETATM  269  C   UNK N   1       4.793  -6.503  -3.292  0.00  0.00     0.198 C 
BRANCH 269 270
HETATM  270  O   UNK N   1       4.599  -7.605  -2.458  0.00  0.00    -0.398 OA
HETATM  271  H   UNK N   1       3.868  -7.871  -1.878  0.00  0.00     0.209 HD
ENDBRANCH 269 270
ENDBRANCH  40 269
BRANCH  41 272
HETATM  272  O   UNK N   1       4.070  -3.948  -1.530  0.00  0.00    -0.390 OA
HETATM  273  H   UNK N   1       4.393  -3.047  -1.684  0.00  0.00     0.210 HD
ENDBRANCH  41 272
BRANCH  42 274
HETATM  274  O   UNK N   1       6.024  -5.130   0.768  0.00  0.00    -0.387 OA
HETATM  275  H   UNK N   1       5.636  -5.275   1.645  0.00  0.00     0.210 HD
ENDBRANCH  42 274
ENDBRANCH  37  38
ENDBRANCH  36  37
ENDBRANCH  31  36
BRANCH  33 276
HETATM  276  C   UNK N   1      13.444  -2.811  -2.241  0.00  0.00     0.198 C 
BRANCH 276 277
HETATM  277  O   UNK N   1      13.759  -2.094  -1.092  0.00  0.00    -0.398 OA
HETATM  278  H   UNK N   1      14.302  -2.034  -0.290  0.00  0.00     0.209 HD
ENDBRANCH 276 277
ENDBRANCH  33 276
BRANCH  34 279
HETATM  279  O   UNK N   1      11.805  -0.378  -2.088  0.00  0.00    -0.390 OA
HETATM  280  H   UNK N   1      12.490  -0.225  -1.419  0.00  0.00     0.210 HD
ENDBRANCH  34 279
BRANCH  35 281
HETATM  281  O   UNK N   1       9.668  -2.169  -4.266  0.00  0.00    -0.387 OA
HETATM  282  H   UNK N   1       9.200  -2.156  -5.115  0.00  0.00     0.210 HD
ENDBRANCH  35 281
ENDBRANCH  30  31
ENDBRANCH  29  30
ENDBRANCH  24  29
BRANCH  26 283
HETATM  283  C   UNK N   1       5.309  -3.762   3.312  0.00  0.00     0.198 C 
BRANCH 283 284
HETATM  284  O   UNK N   1       4.135  -3.218   3.830  0.00  0.00    -0.398 OA
HETATM  285  H   UNK N   1       4.053  -2.321   4.190  0.00  0.00     0.209 HD
ENDBRANCH 283 284
ENDBRANCH  26 283
BRANCH  27 286
HETATM  286  O   UNK N   1       4.463  -1.202   1.803  0.00  0.00    -0.390 OA
HETATM  287  H   UNK N   1       4.665  -0.284   2.042  0.00  0.00     0.210 HD
ENDBRANCH  27 286
BRANCH  28 288
HETATM  288  O   UNK N   1       6.430  -1.752  -0.609  0.00  0.00    -0.387 OA
HETATM  289  H   UNK N   1       6.197  -1.749  -1.551  0.00  0.00     0.210 HD
ENDBRANCH  28 288
ENDBRANCH  23  24
ENDBRANCH  22  23
ENDBRANCH  17  22
BRANCH  19 290
HETATM  290  C   UNK N   1      13.558   0.408   2.334  0.00  0.00     0.198 C 
BRANCH 290 291
HETATM  291  O   UNK N   1      14.553   1.339   2.630  0.00  0.00    -0.398 OA
HETATM  292  H   UNK N   1      15.460   1.064   2.837  0.00  0.00     0.209 HD
ENDBRANCH 290 291
ENDBRANCH  19 290
BRANCH  20 293
HETATM  293  O   UNK N   1      12.255   2.852   3.076  0.00  0.00    -0.390 OA
HETATM  294  H   UNK N   1      12.975   2.734   3.716  0.00  0.00     0.210 HD
ENDBRANCH  20 293
BRANCH  21 295
HETATM  295  O   UNK N   1      11.098   0.510   3.900  0.00  0.00    -0.387 OA
HETATM  296  H   UNK N   1      10.900  -0.036   4.677  0.00  0.00     0.210 HD
ENDBRANCH  21 295
ENDBRANCH  16  17
ENDBRANCH  15  16
ENDBRANCH  10  15
BRANCH  12 297
HETATM  297  C   UNK N   1       3.731   1.559   0.307  0.00  0.00     0.198 C 
BRANCH 297 298
HETATM  298  O   UNK N   1       3.356   1.491   1.650  0.00  0.00    -0.398 OA
HETATM  299  H   UNK N   1       3.185   1.692   2.583  0.00  0.00     0.209 HD
ENDBRANCH 297 298
ENDBRANCH  12 297
BRANCH  13 300
HETATM  300  O   UNK N   1       5.062   0.154  -2.081  0.00  0.00    -0.390 OA
HETATM  301  H   UNK N   1       4.267   0.151  -2.636  0.00  0.00     0.210 HD
ENDBRANCH  13 300
BRANCH  14 302
HETATM  302  O   UNK N   1       7.876   1.279  -2.119  0.00  0.00    -0.387 OA
HETATM  303  H   UNK N   1       8.375   0.928  -2.873  0.00  0.00     0.210 HD
ENDBRANCH  14 302
ENDBRANCH   9  10
ENDBRANCH   8   9
ENDBRANCH   3   8
BRANCH   3 304
HETATM  304  C   UNK N   1       8.439   4.142  -2.378  0.00  0.00     0.243 C 
BRANCH 304 305
HETATM  305  O   UNK N   1       7.738   5.377  -2.226  0.00  0.00    -0.345 OA
BRANCH 305 306
HETATM  306  C   UNK N   1       6.604   5.288  -1.367  0.00  0.00     0.215 C 
HETATM  307  O   UNK N   1       5.623   6.246  -1.685  0.00  0.00    -0.341 OA
HETATM  308  C   UNK N   1       4.345   5.664  -1.419  0.00  0.00     0.180 C 
HETATM  309  C   UNK N   1       4.535   4.270  -0.887  0.00  0.00     0.183 C 
HETATM  310  O   UNK N   1       4.694   4.285   0.508  0.00  0.00    -0.390 OA
HETATM  311  C   UNK N   1       5.838   3.971  -1.530  0.00  0.00     0.214 C 
HETATM  312  H   UNK N   1       4.758   4.195   1.472  0.00  0.00     0.210 HD
BRANCH 308 313
HETATM  313  C   UNK N   1       3.462   6.485  -0.487  0.00  0.00     0.198 C 
BRANCH 313 314
HETATM  314  O   UNK N   1       2.174   5.948  -0.445  0.00  0.00    -0.398 OA
HETATM  315  H   UNK N   1       1.403   6.536  -0.416  0.00  0.00     0.209 HD
ENDBRANCH 313 314
ENDBRANCH 308 313
BRANCH 311 316
HETATM  316  O   UNK N   1       5.619   3.705  -2.888  0.00  0.00    -0.387 OA
HETATM  317  H   UNK N   1       5.384   3.744  -3.828  0.00  0.00     0.210 HD
ENDBRANCH 311 316
BRANCH 306 318
HETATM  318  C   UNK N   1       7.104   5.633   0.051  0.00  0.00     0.243 C 
BRANCH 318 319
HETATM  319  O   UNK N   1       7.055   7.000   0.266  0.00  0.00    -0.345 OA
BRANCH 319 320
HETATM  320  C   UNK N   1       8.300   7.646   0.135  0.00  0.00     0.215 C 
HETATM  321  O   UNK N   1       9.059   7.545   1.326  0.00  0.00    -0.341 OA
HETATM  322  C   UNK N   1      10.426   7.588   0.936  0.00  0.00     0.180 C 
HETATM  323  C   UNK N   1      10.473   7.980  -0.527  0.00  0.00     0.183 C 
HETATM  324  C   UNK N   1       9.253   7.278  -1.006  0.00  0.00     0.214 C 
BRANCH 322 325
HETATM  325  C   UNK N   1      11.192   8.592   1.785  0.00  0.00     0.198 C 
BRANCH 325 326
HETATM  326  O   UNK N   1      12.552   8.563   1.472  0.00  0.00    -0.398 OA
HETATM  327  H   UNK N   1      13.007   7.734   1.255  0.00  0.00     0.209 HD
ENDBRANCH 325 326
ENDBRANCH 322 325
BRANCH 323 328
HETATM  328  O   UNK N   1      11.629   7.547  -1.175  0.00  0.00    -0.390 OA
HETATM  329  H   UNK N   1      11.771   6.700  -1.626  0.00  0.00     0.210 HD
ENDBRANCH 323 328
BRANCH 324 330
HETATM  330  O   UNK N   1       8.878   7.737  -2.271  0.00  0.00    -0.387 OA
HETATM  331  H   UNK N   1       9.023   8.122  -3.149  0.00  0.00     0.210 HD
ENDBRANCH 324 330
BRANCH 320 332
HETATM  332  C   UNK N   1       7.894   9.071  -0.039  0.00  0.00     0.243 C 
BRANCH 332 333
HETATM  333  O   UNK N   1       7.079   9.278  -1.190  0.00  0.00    -0.345 OA
BRANCH 333 334
HETATM  334  C   UNK N   1       6.005  10.147  -0.868  0.00  0.00     0.215 C 
HETATM  335  O   UNK N   1       5.515  10.811  -2.029  0.00  0.00    -0.341 OA
HETATM  336  C   UNK N   1       4.163  10.431  -2.223  0.00  0.00     0.180 C 
HETATM  337  C   UNK N   1       4.050   9.082  -1.652  0.00  0.00     0.183 C 
HETATM  338  C   UNK N   1       4.882   9.236  -0.380  0.00  0.00     0.214 C 
BRANCH 336 339
HETATM  339  C   UNK N   1       3.148  11.352  -1.556  0.00  0.00     0.198 C 
BRANCH 339 340
HETATM  340  O   UNK N   1       1.853  10.855  -1.712  0.00  0.00    -0.398 OA
HETATM  341  H   UNK N   1       1.104  11.462  -1.820  0.00  0.00     0.209 HD
ENDBRANCH 339 340
ENDBRANCH 336 339
BRANCH 337 342
HETATM  342  O   UNK N   1       4.667   8.270  -2.593  0.00  0.00    -0.390 OA
HETATM  343  H   UNK N   1       4.391   7.612  -3.250  0.00  0.00     0.210 HD
ENDBRANCH 337 342
BRANCH 338 344
HETATM  344  O   UNK N   1       4.114   9.844   0.622  0.00  0.00    -0.387 OA
HETATM  345  H   UNK N   1       4.213  10.515   1.316  0.00  0.00     0.210 HD
ENDBRANCH 338 344
BRANCH 334 346
HETATM  346  C   UNK N   1       6.438  11.285   0.088  0.00  0.00     0.243 C 
BRANCH 346 347
HETATM  347  O   UNK N   1       7.838  11.581   0.060  0.00  0.00    -0.345 OA
BRANCH 347 348
HETATM  348  C   UNK N   1       8.418  12.129  -1.132  0.00  0.00     0.215 C 
HETATM  349  O   UNK N   1       9.733  12.469  -0.757  0.00  0.00    -0.341 OA
HETATM  350  C   UNK N   1      10.481  11.308  -0.981  0.00  0.00     0.180 C 
HETATM  351  C   UNK N   1      10.127  10.901  -2.378  0.00  0.00     0.183 C 
HETATM  352  C   UNK N   1       8.628  11.092  -2.263  0.00  0.00     0.214 C 
BRANCH 350 353
HETATM  353  C   UNK N   1      11.969  11.537  -0.760  0.00  0.00     0.198 C 
BRANCH 353 354
HETATM  354  O   UNK N   1      12.214  11.778   0.594  0.00  0.00    -0.398 OA
HETATM  355  H   UNK N   1      12.444  11.715   1.534  0.00  0.00     0.209 HD
ENDBRANCH 353 354
ENDBRANCH 350 353
BRANCH 351 356
HETATM  356  O   UNK N   1      10.664  11.834  -3.274  0.00  0.00    -0.390 OA
HETATM  357  H   UNK N   1      11.410  11.834  -3.895  0.00  0.00     0.210 HD
ENDBRANCH 351 356
BRANCH 352 358
HETATM  358  O   UNK N   1       8.047  11.431  -3.489  0.00  0.00    -0.387 OA
HETATM  359  H   UNK N   1       8.049  11.898  -4.339  0.00  0.00     0.210 HD
ENDBRANCH 352 358
BRANCH 348 360
HETATM  360  C   UNK N   1       7.718  13.421  -1.625  0.00  0.00     0.243 C 
BRANCH 360 361
HETATM  361  O   UNK N   1       6.321  13.288  -1.623  0.00  0.00    -0.345 OA
BRANCH 361 362
HETATM  362  C   UNK N   1       5.709  14.207  -0.723  0.00  0.00     0.215 C 
HETATM  363  O   UNK N   1       5.752  15.503  -1.294  0.00  0.00    -0.341 OA
HETATM  364  C   UNK N   1       4.437  15.790  -1.727  0.00  0.00     0.180 C 
HETATM  365  C   UNK N   1       3.648  14.499  -1.825  0.00  0.00     0.183 C 
HETATM  366  C   UNK N   1       4.224  13.817  -0.633  0.00  0.00     0.214 C 
BRANCH 364 367
HETATM  367  C   UNK N   1       4.384  16.653  -2.983  0.00  0.00     0.198 C 
BRANCH 367 368
HETATM  368  O   UNK N   1       4.992  16.015  -4.062  0.00  0.00    -0.398 OA
HETATM  369  H   UNK N   1       4.819  15.427  -4.814  0.00  0.00     0.209 HD
ENDBRANCH 367 368
ENDBRANCH 364 367
BRANCH 365 370
HETATM  370  O   UNK N   1       3.982  13.782  -2.980  0.00  0.00    -0.390 OA
HETATM  371  H   UNK N   1       3.667  13.333  -3.781  0.00  0.00     0.210 HD
ENDBRANCH 365 370
BRANCH 366 372
HETATM  372  O   UNK N   1       3.594  14.331   0.509  0.00  0.00    -0.387 OA
HETATM  373  H   UNK N   1       3.685  14.887   1.299  0.00  0.00     0.210 HD
ENDBRANCH 366 372
BRANCH 362 374
HETATM  374  C   UNK N   1       6.229  14.170   0.752  0.00  0.00     0.243 C 
BRANCH 374 375
HETATM  375  O   UNK N   1       7.597  13.909   0.946  0.00  0.00    -0.345 OA
BRANCH 375 376
HETATM  376  C   UNK N   1       8.462  15.027   1.010  0.00  0.00     0.215 C 
HETATM  377  O   UNK N   1       9.543  14.778   0.130  0.00  0.00    -0.341 OA
HETATM  378  C   UNK N   1      10.697  14.627   0.910  0.00  0.00     0.180 C 
HETATM  379  C   UNK N   1      10.492  15.493   2.109  0.00  0.00     0.183 C 
HETATM  380  C   UNK N   1       9.061  15.145   2.430  0.00  0.00     0.214 C 
BRANCH 378 381
HETATM  381  C   UNK N   1      11.971  14.912   0.114  0.00  0.00     0.198 C 
BRANCH 381 382
HETATM  382  O   UNK N   1      11.747  15.844  -0.902  0.00  0.00    -0.398 OA
HETATM  383  H   UNK N   1      12.231  16.302  -1.607  0.00  0.00     0.209 HD
ENDBRANCH 381 382
ENDBRANCH 378 381
BRANCH 379 384
HETATM  384  O   UNK N   1      11.375  15.170   3.141  0.00  0.00    -0.390 OA
HETATM  385  H   UNK N   1      11.488  14.527   3.858  0.00  0.00     0.210 HD
ENDBRANCH 379 384
BRANCH 380 386
HETATM  386  O   UNK N   1       9.034  13.900   3.074  0.00  0.00    -0.387 OA
HETATM  387  H   UNK N   1       8.279  13.485   3.519  0.00  0.00     0.210 HD
ENDBRANCH 380 386
BRANCH 376 388
HETATM  388  C   UNK N   1       7.881  16.351   0.489  0.00  0.00     0.243 C 
BRANCH 388 389
HETATM  389  O   UNK N   1       6.613  16.775   0.934  0.00  0.00    -0.345 OA
BRANCH 389 390
HETATM  390  C   UNK N   1       6.536  17.176   2.297  0.00  0.00     0.215 C 
HETATM  391  O   UNK N   1       6.177  16.044   3.062  0.00  0.00    -0.341 OA
HETATM  392  C   UNK N   1       4.771  15.883   2.889  0.00  0.00     0.180 C 
HETATM  393  C   UNK N   1       4.257  17.127   2.162  0.00  0.00     0.183 C 
HETATM  394  C   UNK N   1       5.346  18.122   2.426  0.00  0.00     0.214 C 
BRANCH 392 395
HETATM  395  C   UNK N   1       4.097  15.633   4.229  0.00  0.00     0.198 C 
BRANCH 395 396
HETATM  396  O   UNK N   1       2.795  15.180   4.017  0.00  0.00    -0.398 OA
HETATM  397  H   UNK N   1       2.070  15.807   3.870  0.00  0.00     0.209 HD
ENDBRANCH 395 396
ENDBRANCH 392 395
BRANCH 393 398
HETATM  398  O   UNK N   1       2.989  17.568   2.554  0.00  0.00    -0.390 OA
HETATM  399  H   UNK N   1       2.814  18.482   2.826  0.00  0.00     0.210 HD
ENDBRANCH 393 398
BRANCH 394 400
HETATM  400  O   UNK N   1       5.245  18.606   3.735  0.00  0.00    -0.387 OA
HETATM  401  H   UNK N   1       5.500  18.835   4.642  0.00  0.00     0.210 HD
ENDBRANCH 394 400
BRANCH 390 402
HETATM  402  C   UNK N   1       7.842  17.844   2.837  0.00  0.00     0.243 C 
BRANCH 402 403
HETATM  403  O   UNK N   1       8.119  19.123   2.312  0.00  0.00    -0.345 OA
BRANCH 403 404
HETATM  404  C   UNK N   1       8.972  19.071   1.131  0.00  0.00     0.215 C 
HETATM  405  O   UNK N   1       9.800  17.943   1.106  0.00  0.00    -0.341 OA
HETATM  406  C   UNK N   1      11.004  18.299   0.427  0.00  0.00     0.180 C 
HETATM  407  C   UNK N   1      10.955  19.765   0.151  0.00  0.00     0.183 C 
HETATM  408  C   UNK N   1       9.939  20.222   1.171  0.00  0.00     0.214 C 
BRANCH 406 409
HETATM  409  C   UNK N   1      12.202  17.997   1.310  0.00  0.00     0.198 C 
BRANCH 409 410
HETATM  410  O   UNK N   1      13.379  18.204   0.587  0.00  0.00    -0.398 OA
HETATM  411  H   UNK N   1      13.912  17.568   0.085  0.00  0.00     0.209 HD
ENDBRANCH 409 410
ENDBRANCH 406 409
BRANCH 407 412
HETATM  412  O   UNK N   1      10.493  19.977  -1.151  0.00  0.00    -0.390 OA
HETATM  413  H   UNK N   1      10.460  20.328  -2.055  0.00  0.00     0.210 HD
ENDBRANCH 407 412
BRANCH 408 414
HETATM  414  O   UNK N   1      10.559  20.291   2.420  0.00  0.00    -0.387 OA
HETATM  415  H   UNK N   1      10.816  19.942   3.288  0.00  0.00     0.210 HD
ENDBRANCH 408 414
BRANCH 404 416
HETATM  416  C   UNK N   1       8.077  19.169  -0.131  0.00  0.00     0.243 C 
BRANCH 416 417
HETATM  417  O   UNK N   1       6.712  19.288   0.161  0.00  0.00    -0.345 OA
BRANCH 417 418
HETATM  418  C   UNK N   1       6.198  20.616   0.054  0.00  0.00     0.215 C 
HETATM  419  O   UNK N   1       5.019  20.674   0.811  0.00  0.00    -0.341 OA
HETATM  420  C   UNK N   1       4.075  19.984   0.015  0.00  0.00     0.180 C 
HETATM  421  C   UNK N   1       4.371  20.280  -1.455  0.00  0.00     0.183 C 
HETATM  422  C   UNK N   1       5.724  20.923  -1.362  0.00  0.00     0.214 C 
BRANCH 420 423
HETATM  423  C   UNK N   1       2.640  20.232   0.462  0.00  0.00     0.198 C 
BRANCH 423 424
HETATM  424  O   UNK N   1       1.766  19.409  -0.245  0.00  0.00    -0.398 OA
HETATM  425  H   UNK N   1       0.965  19.650  -0.737  0.00  0.00     0.209 HD
ENDBRANCH 423 424
ENDBRANCH 420 423
BRANCH 421 426
HETATM  426  O   UNK N   1       3.483  21.218  -1.988  0.00  0.00    -0.390 OA
HETATM  427  H   UNK N   1       3.739  22.077  -2.358  0.00  0.00     0.210 HD
ENDBRANCH 421 426
BRANCH 422 428
HETATM  428  O   UNK N   1       6.595  20.488  -2.359  0.00  0.00    -0.387 OA
HETATM  429  H   UNK N   1       6.636  19.812  -3.053  0.00  0.00     0.210 HD
ENDBRANCH 422 428
BRANCH 418 430
HETATM  430  C   UNK N   1       7.169  21.711   0.562  0.00  0.00     0.243 C 
BRANCH 430 431
HETATM  431  O   UNK N   1       8.258  21.820  -0.320  0.00  0.00    -0.345 OA
BRANCH 431 432
HETATM  432  C   UNK N   1       8.797  23.120  -0.433  0.00  0.00     0.215 C 
HETATM  433  O   UNK N   1       9.921  22.988  -1.294  0.00  0.00    -0.341 OA
HETATM  434  C   UNK N   1      11.078  23.456  -0.633  0.00  0.00     0.180 C 
HETATM  435  C   UNK N   1      10.665  24.276   0.535  0.00  0.00     0.183 C 
HETATM  436  C   UNK N   1       9.312  23.724   0.894  0.00  0.00     0.214 C 
BRANCH 434 437
HETATM  437  C   UNK N   1      12.036  22.354  -0.232  0.00  0.00     0.198 C 
BRANCH 437 438
HETATM  438  O   UNK N   1      13.189  22.892   0.345  0.00  0.00    -0.398 OA
HETATM  439  H   UNK N   1      13.912  22.386   0.746  0.00  0.00     0.209 HD
ENDBRANCH 437 438
ENDBRANCH 434 437
BRANCH 435 440
HETATM  440  O   UNK N   1      10.544  25.549   0.044  0.00  0.00    -0.390 OA
HETATM  441  H   UNK N   1      11.282  26.074  -0.304  0.00  0.00     0.210 HD
ENDBRANCH 435 440
BRANCH 436 442
HETATM  442  O   UNK N   1       9.484  22.779   1.898  0.00  0.00    -0.387 OA
HETATM  443  H   UNK N   1       8.972  22.345   2.600  0.00  0.00     0.210 HD
ENDBRANCH 436 442
BRANCH 432 444
HETATM  444  C   UNK N   1       7.806  24.115  -1.105  0.00  0.00     0.243 C 
BRANCH 444 445
HETATM  445  O   UNK N   1       6.450  23.724  -1.048  0.00  0.00    -0.345 OA
BRANCH 445 446
HETATM  446  C   UNK N   1       5.553  24.411  -0.155  0.00  0.00     0.215 C 
HETATM  447  O   UNK N   1       4.944  23.444   0.684  0.00  0.00    -0.341 OA
HETATM  448  C   UNK N   1       3.556  23.482   0.441  0.00  0.00     0.180 C 
HETATM  449  C   UNK N   1       3.226  24.847  -0.102  0.00  0.00     0.183 C 
HETATM  450  C   UNK N   1       4.428  25.050  -0.983  0.00  0.00     0.214 C 
BRANCH 448 451
HETATM  451  C   UNK N   1       2.763  23.152   1.701  0.00  0.00     0.198 C 
BRANCH 451 452
HETATM  452  O   UNK N   1       1.399  23.122   1.413  0.00  0.00    -0.398 OA
HETATM  453  H   UNK N   1       0.906  23.933   1.213  0.00  0.00     0.209 HD
ENDBRANCH 451 452
ENDBRANCH 448 451
BRANCH 449 454
HETATM  454  O   UNK N   1       3.220  25.777   0.942  0.00  0.00    -0.390 OA
HETATM  455  H   UNK N   1       3.777  26.103   1.666  0.00  0.00     0.210 HD
ENDBRANCH 449 454
BRANCH 450 456
HETATM  456  O   UNK N   1       4.218  24.341  -2.172  0.00  0.00    -0.387 OA
HETATM  457  H   UNK N   1       3.719  24.221  -2.995  0.00  0.00     0.210 HD
ENDBRANCH 450 456
BRANCH 446 458
HETATM  458  C   UNK N   1       6.059  25.526   0.798  0.00  0.00     0.243 C 
BRANCH 458 459
HETATM  459  O   UNK N   1       7.425  25.801   0.789  0.00  0.00    -0.345 OA
BRANCH 459 460
HETATM  460  C   UNK N   1       7.736  27.130   0.400  0.00  0.00     0.215 C 
HETATM  461  O   UNK N   1       8.558  27.674   1.413  0.00  0.00    -0.341 OA
HETATM  462  C   UNK N   1       9.622  28.358   0.779  0.00  0.00     0.180 C 
HETATM  463  C   UNK N   1       9.422  28.271  -0.737  0.00  0.00     0.183 C 
HETATM  464  C   UNK N   1       8.601  27.059  -0.849  0.00  0.00     0.214 C 
BRANCH 462 465
HETATM  465  C   UNK N   1      10.974  27.859   1.284  0.00  0.00     0.198 C 
HETATM  466  O   UNK N   1      11.036  27.941   2.674  0.00  0.00    -0.398 OA
HETATM  467  H   UNK N   1      11.107  27.933   3.642  0.00  0.00     0.209 HD
ENDBRANCH 462 465
BRANCH 463 468
HETATM  468  O   UNK N   1      10.616  28.138  -1.453  0.00  0.00    -0.390 OA
HETATM  469  H   UNK N   1      10.950  27.375  -1.949  0.00  0.00     0.210 HD
ENDBRANCH 463 468
BRANCH 464 470
HETATM  470  O   UNK N   1       7.921  26.965  -2.066  0.00  0.00    -0.387 OA
HETATM  471  H   UNK N   1       7.627  27.341  -2.910  0.00  0.00     0.210 HD
ENDBRANCH 464 470
BRANCH 460 472
HETATM  472  C   UNK N   1       6.554  28.118   0.225  0.00  0.00     0.243 C 
BRANCH 472 473
HETATM  473  O   UNK N   1       5.796  27.822  -0.924  0.00  0.00    -0.345 OA
BRANCH 473 474
HETATM  474  C   UNK N   1       4.657  28.652  -0.992  0.00  0.00     0.215 C 
HETATM  475  O   UNK N   1       3.907  28.293  -2.140  0.00  0.00    -0.341 OA
HETATM  476  C   UNK N   1       2.527  28.345  -1.795  0.00  0.00     0.180 C 
HETATM  477  C   UNK N   1       2.429  28.862  -0.365  0.00  0.00     0.183 C 
HETATM  478  C   UNK N   1       3.716  28.388   0.181  0.00  0.00     0.214 C 
BRANCH 476 479
HETATM  479  C   UNK N   1       1.908  26.964  -1.998  0.00  0.00     0.198 C 
BRANCH 479 480
HETATM  480  O   UNK N   1       0.517  27.033  -1.890  0.00  0.00    -0.398 OA
HETATM  481  H   UNK N   1       0.076  27.893  -1.816  0.00  0.00     0.209 HD
ENDBRANCH 479 480
ENDBRANCH 476 479
BRANCH 477 482
HETATM  482  O   UNK N   1       1.344  28.360   0.358  0.00  0.00    -0.390 OA
HETATM  483  H   UNK N   1       0.665  28.838   0.860  0.00  0.00     0.210 HD
ENDBRANCH 477 482
BRANCH 478 484
HETATM  484  O   UNK N   1       4.072  29.046   1.360  0.00  0.00    -0.387 OA
HETATM  485  H   UNK N   1       4.591  29.060   2.180  0.00  0.00     0.210 HD
ENDBRANCH 478 484
BRANCH 474 486
HETATM  486  C   UNK N   1       4.994  30.153  -1.140  0.00  0.00     0.243 C 
BRANCH 486 487
HETATM  487  O   UNK N   1       6.333  30.496  -1.403  0.00  0.00    -0.345 OA
BRANCH 487 488
HETATM  488  C   UNK N   1       6.821  31.479  -0.479  0.00  0.00     0.215 C 
HETATM  489  O   UNK N   1       7.730  30.871   0.433  0.00  0.00    -0.341 OA
HETATM  490  C   UNK N   1       8.903  31.693   0.501  0.00  0.00     0.180 C 
HETATM  491  C   UNK N   1       8.654  32.972  -0.230  0.00  0.00     0.183 C 
HETATM  492  C   UNK N   1       7.684  32.458  -1.258  0.00  0.00     0.214 C 
BRANCH 490 493
HETATM  493  C   UNK N   1      10.170  31.058  -0.074  0.00  0.00     0.198 C 
HETATM  494  O   UNK N   1      10.119  30.951  -1.468  0.00  0.00    -0.398 OA
HETATM  495  H   UNK N   1      10.037  30.945  -2.434  0.00  0.00     0.209 HD
ENDBRANCH 490 493
BRANCH 491 496
HETATM  496  O   UNK N   1       8.055  33.836   0.670  0.00  0.00    -0.390 OA
HETATM  497  H   UNK N   1       8.370  34.502   1.300  0.00  0.00     0.210 HD
ENDBRANCH 491 496
BRANCH 492 498
HETATM  498  O   UNK N   1       6.972  33.470  -1.909  0.00  0.00    -0.387 OA
HETATM  499  H   UNK N   1       7.334  34.249  -2.360  0.00  0.00     0.210 HD
ENDBRANCH 492 498
BRANCH 488 500
HETATM  500  C   UNK N   1       5.756  32.375   0.266  0.00  0.00     0.243 C 
BRANCH 500 501
HETATM  501  O   UNK N   1       4.711  31.736   0.964  0.00  0.00    -0.345 OA
BRANCH 501 502
HETATM  502  C   UNK N   1       3.476  32.408   0.699  0.00  0.00     0.215 C 
HETATM  503  O   UNK N   1       2.461  31.812   1.488  0.00  0.00    -0.341 OA
HETATM  504  C   UNK N   1       1.359  31.554   0.627  0.00  0.00     0.180 C 
HETATM  505  C   UNK N   1       1.522  32.313  -0.675  0.00  0.00     0.183 C 
HETATM  506  C   UNK N   1       2.999  32.182  -0.751  0.00  0.00     0.214 C 
BRANCH 504 507
HETATM  507  C   UNK N   1       0.016  31.804   1.292  0.00  0.00     0.198 C 
BRANCH 507 508
HETATM  508  O   UNK N   1      -0.203  30.848   2.282  0.00  0.00    -0.398 OA
HETATM  509  H   UNK N   1      -0.855  30.648   2.972  0.00  0.00     0.209 HD
ENDBRANCH 507 508
ENDBRANCH 504 507
BRANCH 505 510
HETATM  510  O   UNK N   1       1.158  33.657  -0.525  0.00  0.00    -0.390 OA
HETATM  511  H   UNK N   1       1.838  34.340  -0.421  0.00  0.00     0.210 HD
ENDBRANCH 505 510
BRANCH 506 512
HETATM  512  O   UNK N   1       3.592  32.986  -1.729  0.00  0.00    -0.387 OA
HETATM  513  H   UNK N   1       4.281  32.909  -2.408  0.00  0.00     0.210 HD
ENDBRANCH 506 512
BRANCH 502 514
HETATM  514  C   UNK N   1       3.518  33.900   1.125  0.00  0.00     0.243 C 
BRANCH 514 515
HETATM  515  O   UNK N   1       4.095  34.702   0.123  0.00  0.00    -0.345 OA
BRANCH 515 516
HETATM  516  C   UNK N   1       4.727  35.836   0.672  0.00  0.00     0.215 C 
HETATM  517  O   UNK N   1       5.759  35.474   1.571  0.00  0.00    -0.341 OA
HETATM  518  C   UNK N   1       6.916  36.160   1.135  0.00  0.00     0.180 C 
HETATM  519  C   UNK N   1       6.508  37.276   0.213  0.00  0.00     0.183 C 
HETATM  520  C   UNK N   1       5.426  36.547  -0.483  0.00  0.00     0.214 C 
BRANCH 518 521
HETATM  521  C   UNK N   1       7.792  36.609   2.288  0.00  0.00     0.198 C 
BRANCH 521 522
HETATM  522  O   UNK N   1       9.087  36.846   1.824  0.00  0.00    -0.398 OA
HETATM  523  H   UNK N   1       9.679  36.149   1.501  0.00  0.00     0.209 HD
ENDBRANCH 521 522
ENDBRANCH 518 521
BRANCH 519 524
HETATM  524  O   UNK N   1       7.538  37.589  -0.675  0.00  0.00    -0.390 OA
HETATM  525  H   UNK N   1       8.084  37.078  -1.293  0.00  0.00     0.210 HD
ENDBRANCH 519 524
BRANCH 520 526
HETATM  526  O   UNK N   1       4.598  37.381  -1.238  0.00  0.00    -0.387 OA
HETATM  527  H   UNK N   1       4.811  38.168  -1.762  0.00  0.00     0.210 HD
ENDBRANCH 520 526
BRANCH 516 528
HETATM  528  C   UNK N   1       3.735  36.756   1.413  0.00  0.00     0.235 C 
BRANCH 528 529
HETATM  529  O   UNK N   1       2.625  37.045   0.618  0.00  0.00    -0.395 OA
HETATM  530  H   UNK N   1       2.414  37.814   0.065  0.00  0.00     0.209 HD
ENDBRANCH 528 529
ENDBRANCH 516 528
ENDBRANCH 515 516
ENDBRANCH 514 515
ENDBRANCH 502 514
ENDBRANCH 501 502
ENDBRANCH 500 501
ENDBRANCH 488 500
ENDBRANCH 487 488
ENDBRANCH 486 487
ENDBRANCH 474 486
ENDBRANCH 473 474
ENDBRANCH 472 473
ENDBRANCH 460 472
ENDBRANCH 459 460
ENDBRANCH 458 459
ENDBRANCH 446 458
ENDBRANCH 445 446
ENDBRANCH 444 445
ENDBRANCH 432 444
ENDBRANCH 431 432
ENDBRANCH 430 431
ENDBRANCH 418 430
ENDBRANCH 417 418
ENDBRANCH 416 417
ENDBRANCH 404 416
ENDBRANCH 403 404
ENDBRANCH 402 403
ENDBRANCH 390 402
ENDBRANCH 389 390
ENDBRANCH 388 389
ENDBRANCH 376 388
ENDBRANCH 375 376
ENDBRANCH 374 375
ENDBRANCH 362 374
ENDBRANCH 361 362
ENDBRANCH 360 361
ENDBRANCH 348 360
ENDBRANCH 347 348
ENDBRANCH 346 347
ENDBRANCH 334 346
ENDBRANCH 333 334
ENDBRANCH 332 333
ENDBRANCH 320 332
ENDBRANCH 319 320
ENDBRANCH 318 319
ENDBRANCH 306 318
ENDBRANCH 305 306
ENDBRANCH 304 305
ENDBRANCH   3 304
BRANCH   5 531
HETATM  531  O   UNK N   1      12.746   2.137  -1.411  0.00  0.00    -0.390 OA
HETATM  532  H   UNK N   1      12.427   1.268  -1.118  0.00  0.00     0.210 HD
ENDBRANCH   5 531
BRANCH   6 533
HETATM  533  C   UNK N   1      12.871   5.057  -0.544  0.00  0.00     0.198 C 
BRANCH 533 534
HETATM  534  O   UNK N   1      12.808   5.626   0.726  0.00  0.00    -0.398 OA
HETATM  535  H   UNK N   1      13.129   5.863   1.610  0.00  0.00     0.209 HD
ENDBRANCH 533 534
ENDBRANCH   6 533
TORSDOF 260
