REMARK  2 active torsions:
REMARK  status: ('A' for Active; 'I' for Inactive)
REMARK    1  A    between atoms: O_1  and  C_8 
REMARK    2  A    between atoms: C_4  and  C_8 
ROOT
HETATM    1  N   UNK N   1       1.642  -0.422   0.000  0.00  0.00    -0.408 N 
HETATM    2  C   UNK N   1       2.899   0.300  -0.000  0.00  0.00     0.175 A 
HETATM    3  C   UNK N   1       2.749   1.793   0.000  0.00  0.00     0.037 A 
HETATM    4  C   UNK N   1       1.251   1.990  -0.000  0.00  0.00     0.022 A 
HETATM    5  C   UNK N   1       0.607   0.606  -0.000  0.00  0.00     0.115 A 
HETATM    6  H   UNK N   1       1.509  -1.434   0.000  0.00  0.00     0.154 HD
ENDROOT
BRANCH   2   7
HETATM    7  C   UNK N   1       4.179  -0.481   0.000  0.00  0.00     0.163 C 
HETATM    8  O   UNK N   1       4.151  -1.695   0.000  0.00  0.00    -0.648 OA
BRANCH   7   9
HETATM    9  O   UNK N   1       5.366   0.163   0.000  0.00  0.00    -0.775 OA
HETATM   10  H   UNK N   1       6.165  -0.327   0.000  0.00  0.00     0.167 HD
ENDBRANCH   7   9
ENDBRANCH   2   7
TORSDOF 2
