MODEL 1
REMARK VINA RESULT:      -4.5      0.000      0.000
REMARK  5 active torsions:
REMARK  status: ('A' for Active; 'I' for Inactive)
REMARK    1  A    between atoms: O_1  and  C_9 
REMARK    2  A    between atoms: C_5  and  N_3 
REMARK    3  A    between atoms: C_4  and  C_5 
REMARK    4  A    between atoms: C_4  and  C_6 
REMARK    5  A    between atoms: C_5  and  C_9 
ROOT
HETATM    1  C   UNK N   1      22.610  11.917  11.150  0.00  0.00     0.177 C 
ENDROOT
BRANCH   1   2
HETATM    2  N   UNK N   1      21.375  11.755  11.904  0.00  0.00    -0.417 N 
HETATM    3  H   UNK N   1      21.019  10.826  12.127  0.00  0.00     0.150 HD
HETATM    4  H   UNK N   1      20.860  12.580  12.213  0.00  0.00     0.150 HD
ENDBRANCH   1   2
BRANCH   1   5
HETATM    5  C   UNK N   1      22.471  13.080  10.142  0.00  0.00     0.014 C 
HETATM    6  C   UNK N   1      22.916  12.655   8.753  0.00  0.00     0.012 C 
BRANCH   5   7
HETATM    7  C   UNK N   1      21.019  13.536  10.004  0.00  0.00     0.002 C 
HETATM    8  C   UNK N   1      20.892  14.842   9.242  0.00  0.00     0.005 C 
ENDBRANCH   5   7
ENDBRANCH   1   5
BRANCH   1   9
HETATM    9  C   UNK N   1      23.766  12.077  12.112  0.00  0.00     0.163 C 
HETATM   10  O   UNK N   1      23.573  12.033  13.317  0.00  0.00    -0.648 OA
BRANCH   9  11
HETATM   11  O   UNK N   1      25.009  12.324  11.653  0.00  0.00    -0.775 OA
HETATM   12  H   UNK N   1      25.790  12.169  12.146  0.00  0.00     0.167 HD
ENDBRANCH   9  11
ENDBRANCH   1   9
TORSDOF 5
ENDMDL
MODEL 2
REMARK VINA RESULT:      -4.2     11.511     12.183
REMARK  5 active torsions:
REMARK  status: ('A' for Active; 'I' for Inactive)
REMARK    1  A    between atoms: O_1  and  C_9 
REMARK    2  A    between atoms: C_5  and  N_3 
REMARK    3  A    between atoms: C_4  and  C_5 
REMARK    4  A    between atoms: C_4  and  C_6 
REMARK    5  A    between atoms: C_5  and  C_9 
ROOT
HETATM    1  C   UNK N   1      34.140  16.823   8.576  0.00  0.00     0.177 C 
ENDROOT
BRANCH   1   2
HETATM    2  N   UNK N   1      34.348  17.072   9.996  0.00  0.00    -0.417 N 
HETATM    3  H   UNK N   1      34.070  16.380  10.692  0.00  0.00     0.150 HD
HETATM    4  H   UNK N   1      34.776  17.948  10.298  0.00  0.00     0.150 HD
ENDBRANCH   1   2
BRANCH   1   5
HETATM    5  C   UNK N   1      32.698  16.326   8.329  0.00  0.00     0.014 C 
HETATM    6  C   UNK N   1      32.335  15.205   9.288  0.00  0.00     0.012 C 
BRANCH   5   7
HETATM    7  C   UNK N   1      31.671  17.434   8.559  0.00  0.00     0.002 C 
HETATM    8  C   UNK N   1      30.515  17.365   7.579  0.00  0.00     0.005 C 
ENDBRANCH   5   7
ENDBRANCH   1   5
BRANCH   1   9
HETATM    9  C   UNK N   1      34.501  18.065   7.793  0.00  0.00     0.163 C 
HETATM   10  O   UNK N   1      34.367  18.088   6.580  0.00  0.00    -0.648 OA
BRANCH   9  11
HETATM   11  O   UNK N   1      35.027  19.139   8.417  0.00  0.00    -0.775 OA
HETATM   12  H   UNK N   1      35.919  19.411   8.329  0.00  0.00     0.167 HD
ENDBRANCH   9  11
ENDBRANCH   1   9
TORSDOF 5
ENDMDL
MODEL 3
REMARK VINA RESULT:      -4.1      1.818      2.520
REMARK  5 active torsions:
REMARK  status: ('A' for Active; 'I' for Inactive)
REMARK    1  A    between atoms: O_1  and  C_9 
REMARK    2  A    between atoms: C_5  and  N_3 
REMARK    3  A    between atoms: C_4  and  C_5 
REMARK    4  A    between atoms: C_4  and  C_6 
REMARK    5  A    between atoms: C_5  and  C_9 
ROOT
HETATM    1  C   UNK N   1      23.511  12.417  11.590  0.00  0.00     0.177 C 
ENDROOT
BRANCH   1   2
HETATM    2  N   UNK N   1      24.910  12.178  11.266  0.00  0.00    -0.417 N 
HETATM    3  H   UNK N   1      25.238  12.232  10.302  0.00  0.00     0.150 HD
HETATM    4  H   UNK N   1      25.570  11.953  12.011  0.00  0.00     0.150 HD
ENDBRANCH   1   2
BRANCH   1   5
HETATM    5  C   UNK N   1      22.599  11.780  10.517  0.00  0.00     0.014 C 
HETATM    6  C   UNK N   1      21.475  12.724  10.125  0.00  0.00     0.012 C 
BRANCH   5   7
HETATM    7  C   UNK N   1      23.368  11.475   9.232  0.00  0.00     0.002 C 
HETATM    8  C   UNK N   1      22.599  11.878   7.987  0.00  0.00     0.005 C 
ENDBRANCH   5   7
ENDBRANCH   1   5
BRANCH   1   9
HETATM    9  C   UNK N   1      23.233  11.932  12.995  0.00  0.00     0.163 C 
HETATM   10  O   UNK N   1      23.925  12.312  13.925  0.00  0.00    -0.648 OA
BRANCH   9  11
HETATM   11  O   UNK N   1      22.255  11.032  13.227  0.00  0.00    -0.775 OA
HETATM   12  H   UNK N   1      22.397  10.108  13.286  0.00  0.00     0.167 HD
ENDBRANCH   9  11
ENDBRANCH   1   9
TORSDOF 5
ENDMDL
MODEL 4
REMARK VINA RESULT:      -4.0     13.889     14.559
REMARK  5 active torsions:
REMARK  status: ('A' for Active; 'I' for Inactive)
REMARK    1  A    between atoms: O_1  and  C_9 
REMARK    2  A    between atoms: C_5  and  N_3 
REMARK    3  A    between atoms: C_4  and  C_5 
REMARK    4  A    between atoms: C_4  and  C_6 
REMARK    5  A    between atoms: C_5  and  C_9 
ROOT
HETATM    1  C   UNK N   1      36.429  13.539  15.468  0.00  0.00     0.177 C 
ENDROOT
BRANCH   1   2
HETATM    2  N   UNK N   1      37.091  14.741  15.954  0.00  0.00    -0.417 N 
HETATM    3  H   UNK N   1      37.715  14.702  16.761  0.00  0.00     0.150 HD
HETATM    4  H   UNK N   1      36.930  15.632  15.484  0.00  0.00     0.150 HD
ENDBRANCH   1   2
BRANCH   1   5
HETATM    5  C   UNK N   1      35.291  13.132  16.431  0.00  0.00     0.014 C 
HETATM    6  C   UNK N   1      35.410  11.671  16.830  0.00  0.00     0.012 C 
BRANCH   5   7
HETATM    7  C   UNK N   1      35.336  13.935  17.730  0.00  0.00     0.002 C 
HETATM    8  C   UNK N   1      35.177  13.058  18.959  0.00  0.00     0.005 C 
ENDBRANCH   5   7
ENDBRANCH   1   5
BRANCH   1   9
HETATM    9  C   UNK N   1      35.975  13.760  14.043  0.00  0.00     0.163 C 
HETATM   10  O   UNK N   1      34.847  13.442  13.701  0.00  0.00    -0.648 OA
BRANCH   9  11
HETATM   11  O   UNK N   1      36.826  14.259  13.123  0.00  0.00    -0.775 OA
HETATM   12  H   UNK N   1      36.977  15.174  12.991  0.00  0.00     0.167 HD
ENDBRANCH   9  11
ENDBRANCH   1   9
TORSDOF 5
ENDMDL
MODEL 5
REMARK VINA RESULT:      -3.9     11.164     11.745
REMARK  5 active torsions:
REMARK  status: ('A' for Active; 'I' for Inactive)
REMARK    1  A    between atoms: O_1  and  C_9 
REMARK    2  A    between atoms: C_5  and  N_3 
REMARK    3  A    between atoms: C_4  and  C_5 
REMARK    4  A    between atoms: C_4  and  C_6 
REMARK    5  A    between atoms: C_5  and  C_9 
ROOT
HETATM    1  C   UNK N   1      33.319  16.886   8.330  0.00  0.00     0.177 C 
ENDROOT
BRANCH   1   2
HETATM    2  N   UNK N   1      33.021  16.190   9.574  0.00  0.00    -0.417 N 
HETATM    3  H   UNK N   1      32.971  16.700  10.457  0.00  0.00     0.150 HD
HETATM    4  H   UNK N   1      32.860  15.182   9.564  0.00  0.00     0.150 HD
ENDBRANCH   1   2
BRANCH   1   5
HETATM    5  C   UNK N   1      32.055  17.601   7.804  0.00  0.00     0.014 C 
HETATM    6  C   UNK N   1      31.662  17.078   6.432  0.00  0.00     0.012 C 
BRANCH   5   7
HETATM    7  C   UNK N   1      30.850  17.361   8.713  0.00  0.00     0.002 C 
HETATM    8  C   UNK N   1      30.208  18.654   9.178  0.00  0.00     0.005 C 
ENDBRANCH   5   7
ENDBRANCH   1   5
BRANCH   1   9
HETATM    9  C   UNK N   1      34.499  17.808   8.544  0.00  0.00     0.163 C 
HETATM   10  O   UNK N   1      34.834  18.590   7.669  0.00  0.00    -0.648 OA
BRANCH   9  11
HETATM   11  O   UNK N   1      35.225  17.738   9.678  0.00  0.00    -0.775 OA
HETATM   12  H   UNK N   1      34.862  17.811  10.538  0.00  0.00     0.167 HD
ENDBRANCH   9  11
ENDBRANCH   1   9
TORSDOF 5
ENDMDL
MODEL 6
REMARK VINA RESULT:      -3.9     12.134     12.754
REMARK  5 active torsions:
REMARK  status: ('A' for Active; 'I' for Inactive)
REMARK    1  A    between atoms: O_1  and  C_9 
REMARK    2  A    between atoms: C_5  and  N_3 
REMARK    3  A    between atoms: C_4  and  C_5 
REMARK    4  A    between atoms: C_4  and  C_6 
REMARK    5  A    between atoms: C_5  and  C_9 
ROOT
HETATM    1  C   UNK N   1      33.633  17.262   8.119  0.00  0.00     0.177 C 
ENDROOT
BRANCH   1   2
HETATM    2  N   UNK N   1      32.338  17.720   8.603  0.00  0.00    -0.417 N 
HETATM    3  H   UNK N   1      31.879  18.526   8.179  0.00  0.00     0.150 HD
HETATM    4  H   UNK N   1      31.884  17.229   9.374  0.00  0.00     0.150 HD
ENDBRANCH   1   2
BRANCH   1   5
HETATM    5  C   UNK N   1      33.682  17.337   6.576  0.00  0.00     0.014 C 
HETATM    6  C   UNK N   1      34.428  16.147   5.995  0.00  0.00     0.012 C 
BRANCH   5   7
HETATM    7  C   UNK N   1      32.282  17.303   5.965  0.00  0.00     0.002 C 
HETATM    8  C   UNK N   1      32.300  17.527   4.464  0.00  0.00     0.005 C 
ENDBRANCH   5   7
ENDBRANCH   1   5
BRANCH   1   9
HETATM    9  C   UNK N   1      34.728  18.048   8.804  0.00  0.00     0.163 C 
HETATM   10  O   UNK N   1      35.081  19.128   8.358  0.00  0.00    -0.648 OA
BRANCH   9  11
HETATM   11  O   UNK N   1      35.364  17.541   9.880  0.00  0.00    -0.775 OA
HETATM   12  H   UNK N   1      36.016  16.870   9.834  0.00  0.00     0.167 HD
ENDBRANCH   9  11
ENDBRANCH   1   9
TORSDOF 5
ENDMDL
MODEL 7
REMARK VINA RESULT:      -3.9     23.525     24.270
REMARK  5 active torsions:
REMARK  status: ('A' for Active; 'I' for Inactive)
REMARK    1  A    between atoms: O_1  and  C_9 
REMARK    2  A    between atoms: C_5  and  N_3 
REMARK    3  A    between atoms: C_4  and  C_5 
REMARK    4  A    between atoms: C_4  and  C_6 
REMARK    5  A    between atoms: C_5  and  C_9 
ROOT
HETATM    1  C   UNK N   1      43.441  22.320   3.716  0.00  0.00     0.177 C 
ENDROOT
BRANCH   1   2
HETATM    2  N   UNK N   1      43.557  23.748   3.976  0.00  0.00    -0.417 N 
HETATM    3  H   UNK N   1      42.747  24.290   4.277  0.00  0.00     0.150 HD
HETATM    4  H   UNK N   1      44.458  24.212   3.856  0.00  0.00     0.150 HD
ENDBRANCH   1   2
BRANCH   1   5
HETATM    5  C   UNK N   1      42.758  22.081   2.351  0.00  0.00     0.014 C 
HETATM    6  C   UNK N   1      41.386  21.452   2.529  0.00  0.00     0.012 C 
BRANCH   5   7
HETATM    7  C   UNK N   1      42.533  23.390   1.595  0.00  0.00     0.002 C 
HETATM    8  C   UNK N   1      41.061  23.688   1.378  0.00  0.00     0.005 C 
ENDBRANCH   5   7
ENDBRANCH   1   5
BRANCH   1   9
HETATM    9  C   UNK N   1      44.805  21.677   3.838  0.00  0.00     0.163 C 
HETATM   10  O   UNK N   1      44.948  20.489   3.602  0.00  0.00    -0.648 OA
BRANCH   9  11
HETATM   11  O   UNK N   1      45.864  22.396   4.262  0.00  0.00    -0.775 OA
HETATM   12  H   UNK N   1      46.507  22.077   4.864  0.00  0.00     0.167 HD
ENDBRANCH   9  11
ENDBRANCH   1   9
TORSDOF 5
ENDMDL
MODEL 8
REMARK VINA RESULT:      -3.8     11.747     12.398
REMARK  5 active torsions:
REMARK  status: ('A' for Active; 'I' for Inactive)
REMARK    1  A    between atoms: O_1  and  C_9 
REMARK    2  A    between atoms: C_5  and  N_3 
REMARK    3  A    between atoms: C_4  and  C_5 
REMARK    4  A    between atoms: C_4  and  C_6 
REMARK    5  A    between atoms: C_5  and  C_9 
ROOT
HETATM    1  C   UNK N   1      34.709  15.381   9.917  0.00  0.00     0.177 C 
ENDROOT
BRANCH   1   2
HETATM    2  N   UNK N   1      33.655  15.169  10.900  0.00  0.00    -0.417 N 
HETATM    3  H   UNK N   1      33.727  14.418  11.586  0.00  0.00     0.150 HD
HETATM    4  H   UNK N   1      32.837  15.778  10.903  0.00  0.00     0.150 HD
ENDBRANCH   1   2
BRANCH   1   5
HETATM    5  C   UNK N   1      34.094  15.754   8.550  0.00  0.00     0.014 C 
HETATM    6  C   UNK N   1      34.065  14.553   7.619  0.00  0.00     0.012 C 
BRANCH   5   7
HETATM    7  C   UNK N   1      32.645  16.220   8.690  0.00  0.00     0.002 C 
HETATM    8  C   UNK N   1      32.475  17.690   8.357  0.00  0.00     0.005 C 
ENDBRANCH   5   7
ENDBRANCH   1   5
BRANCH   1   9
HETATM    9  C   UNK N   1      35.687  16.406  10.447  0.00  0.00     0.163 C 
HETATM   10  O   UNK N   1      35.438  17.597  10.358  0.00  0.00    -0.648 OA
BRANCH   9  11
HETATM   11  O   UNK N   1      36.867  16.017  10.972  0.00  0.00    -0.775 OA
HETATM   12  H   UNK N   1      37.131  16.194  11.853  0.00  0.00     0.167 HD
ENDBRANCH   9  11
ENDBRANCH   1   9
TORSDOF 5
ENDMDL
MODEL 9
REMARK VINA RESULT:      -3.8     11.425     12.098
REMARK  5 active torsions:
REMARK  status: ('A' for Active; 'I' for Inactive)
REMARK    1  A    between atoms: O_1  and  C_9 
REMARK    2  A    between atoms: C_5  and  N_3 
REMARK    3  A    between atoms: C_4  and  C_5 
REMARK    4  A    between atoms: C_4  and  C_6 
REMARK    5  A    between atoms: C_5  and  C_9 
ROOT
HETATM    1  C   UNK N   1      33.346  17.979   7.507  0.00  0.00     0.177 C 
ENDROOT
BRANCH   1   2
HETATM    2  N   UNK N   1      33.951  17.338   6.348  0.00  0.00    -0.417 N 
HETATM    3  H   UNK N   1      34.913  17.547   6.081  0.00  0.00     0.150 HD
HETATM    4  H   UNK N   1      33.407  16.673   5.797  0.00  0.00     0.150 HD
ENDBRANCH   1   2
BRANCH   1   5
HETATM    5  C   UNK N   1      32.142  17.149   8.008  0.00  0.00     0.014 C 
HETATM    6  C   UNK N   1      31.098  18.039   8.660  0.00  0.00     0.012 C 
BRANCH   5   7
HETATM    7  C   UNK N   1      31.435  16.431   6.859  0.00  0.00     0.002 C 
HETATM    8  C   UNK N   1      30.235  17.204   6.344  0.00  0.00     0.005 C 
ENDBRANCH   5   7
ENDBRANCH   1   5
BRANCH   1   9
HETATM    9  C   UNK N   1      34.406  18.213   8.559  0.00  0.00     0.163 C 
HETATM   10  O   UNK N   1      35.241  19.090   8.406  0.00  0.00    -0.648 OA
BRANCH   9  11
HETATM   11  O   UNK N   1      34.476  17.421   9.648  0.00  0.00    -0.775 OA
HETATM   12  H   UNK N   1      35.089  17.543  10.346  0.00  0.00     0.167 HD
ENDBRANCH   9  11
ENDBRANCH   1   9
TORSDOF 5
ENDMDL
