MODEL 1
REMARK VINA RESULT:      -5.9      0.000      0.000
REMARK  10 active torsions:
REMARK  status: ('A' for Active; 'I' for Inactive)
REMARK    1  A    between atoms: C_1  and  C_2 
REMARK    2  A    between atoms: C_1  and  O_15 
REMARK    3  A    between atoms: C_2  and  C_3 
REMARK    4  A    between atoms: C_3  and  C_4 
REMARK    5  A    between atoms: C_3  and  N_16 
REMARK       I    between atoms: C_4  and  N_5 
REMARK    6  A    between atoms: N_5  and  C_6 
REMARK    7  A    between atoms: C_6  and  C_7 
REMARK    8  A    between atoms: C_6  and  C_18 
REMARK    9  A    between atoms: C_7  and  C_8 
REMARK   10  A    between atoms: C_18  and  O_20 
ROOT
HETATM    1  C   UNK N   1      29.688  23.532  -5.507  0.00  0.00     0.241 C 
HETATM    2  N   UNK N   1      28.442  23.000  -5.441  0.00  0.00    -0.345 N 
HETATM    3  O   UNK N   1      29.869  24.655  -5.958  0.00  0.00    -0.271 OA
HETATM    4  H   UNK N   1      28.353  22.092  -5.074  0.00  0.00     0.163 HD
ENDROOT
BRANCH   2   5
HETATM    5  C   UNK N   1      27.229  23.670  -5.869  0.00  0.00     0.188 C 
BRANCH   5   6
HETATM    6  C   UNK N   1      26.267  23.920  -4.709  0.00  0.00     0.074 C 
BRANCH   6   7
HETATM    7  C   UNK N   1      26.049  25.391  -4.596  0.00  0.00    -0.056 A 
HETATM    8  C   UNK N   1      26.515  26.096  -3.478  0.00  0.00     0.007 A 
HETATM    9  C   UNK N   1      26.234  27.458  -3.341  0.00  0.00     0.001 A 
HETATM   10  C   UNK N   1      25.481  28.117  -4.318  0.00  0.00     0.000 A 
HETATM   11  C   UNK N   1      25.017  27.416  -5.435  0.00  0.00     0.001 A 
HETATM   12  C   UNK N   1      25.297  26.053  -5.571  0.00  0.00     0.007 A 
ENDBRANCH   6   7
ENDBRANCH   5   6
BRANCH   5  13
HETATM   13  C   UNK N   1      26.600  23.002  -7.064  0.00  0.00     0.281 C 
HETATM   14  O   UNK N   1      27.292  22.756  -8.041  0.00  0.00    -0.263 OA
BRANCH  13  15
HETATM   15  O   UNK N   1      25.277  22.697  -7.061  0.00  0.00    -0.325 OA
HETATM   16  C   UNK N   1      24.804  21.467  -7.455  0.00  0.00     0.213 C 
ENDBRANCH  13  15
ENDBRANCH   5  13
ENDBRANCH   2   5
BRANCH   1  17
HETATM   17  C   UNK N   1      30.844  22.715  -5.011  0.00  0.00     0.177 C 
BRANCH  17  18
HETATM   18  C   UNK N   1      30.479  21.793  -3.842  0.00  0.00     0.144 C 
BRANCH  18  19
HETATM   19  C   UNK N   1      31.197  22.105  -2.564  0.00  0.00     0.141 C 
HETATM   20  O   UNK N   1      30.768  22.965  -1.811  0.00  0.00    -0.650 OA
BRANCH  19  21
HETATM   21  O   UNK N   1      32.341  21.464  -2.265  0.00  0.00    -0.776 OA
HETATM   22  H   UNK N   1      33.170  21.846  -2.479  0.00  0.00     0.167 HD
ENDBRANCH  19  21
ENDBRANCH  18  19
ENDBRANCH  17  18
BRANCH  17  23
HETATM   23  N   UNK N   1      31.984  23.559  -4.693  0.00  0.00    -0.418 N 
HETATM   24  H   UNK N   1      32.363  24.417  -5.094  0.00  0.00     0.150 HD
HETATM   25  H   UNK N   1      32.523  23.219  -3.896  0.00  0.00     0.150 HD
ENDBRANCH  17  23
ENDBRANCH   1  17
TORSDOF 10
ENDMDL
MODEL 2
REMARK VINA RESULT:      -5.8     17.000     18.213
REMARK  10 active torsions:
REMARK  status: ('A' for Active; 'I' for Inactive)
REMARK    1  A    between atoms: C_1  and  C_2 
REMARK    2  A    between atoms: C_1  and  O_15 
REMARK    3  A    between atoms: C_2  and  C_3 
REMARK    4  A    between atoms: C_3  and  C_4 
REMARK    5  A    between atoms: C_3  and  N_16 
REMARK       I    between atoms: C_4  and  N_5 
REMARK    6  A    between atoms: N_5  and  C_6 
REMARK    7  A    between atoms: C_6  and  C_7 
REMARK    8  A    between atoms: C_6  and  C_18 
REMARK    9  A    between atoms: C_7  and  C_8 
REMARK   10  A    between atoms: C_18  and  O_20 
ROOT
HETATM    1  C   UNK N   1      21.105  13.377   9.604  0.00  0.00     0.241 C 
HETATM    2  N   UNK N   1      20.981  14.725   9.519  0.00  0.00    -0.345 N 
HETATM    3  O   UNK N   1      20.778  12.655   8.672  0.00  0.00    -0.271 OA
HETATM    4  H   UNK N   1      21.254  15.259  10.299  0.00  0.00     0.163 HD
ENDROOT
BRANCH   2   5
HETATM    5  C   UNK N   1      20.477  15.441   8.362  0.00  0.00     0.188 C 
BRANCH   5   6
HETATM    6  C   UNK N   1      21.594  15.838   7.399  0.00  0.00     0.074 C 
BRANCH   6   7
HETATM    7  C   UNK N   1      21.020  15.898   6.023  0.00  0.00    -0.056 A 
HETATM    8  C   UNK N   1      21.192  17.040   5.229  0.00  0.00     0.007 A 
HETATM    9  C   UNK N   1      20.581  17.120   3.975  0.00  0.00     0.001 A 
HETATM   10  C   UNK N   1      19.791  16.062   3.515  0.00  0.00     0.000 A 
HETATM   11  C   UNK N   1      19.620  14.921   4.304  0.00  0.00     0.001 A 
HETATM   12  C   UNK N   1      20.230  14.842   5.559  0.00  0.00     0.007 A 
ENDBRANCH   6   7
ENDBRANCH   5   6
BRANCH   5  13
HETATM   13  C   UNK N   1      19.559  16.572   8.747  0.00  0.00     0.281 C 
HETATM   14  O   UNK N   1      20.020  17.698   8.868  0.00  0.00    -0.263 OA
BRANCH  13  15
HETATM   15  O   UNK N   1      18.242  16.337   8.978  0.00  0.00    -0.325 OA
HETATM   16  C   UNK N   1      17.356  17.346   9.277  0.00  0.00     0.213 C 
ENDBRANCH  13  15
ENDBRANCH   5  13
ENDBRANCH   2   5
BRANCH   1  17
HETATM   17  C   UNK N   1      21.656  12.786  10.869  0.00  0.00     0.177 C 
BRANCH  17  18
HETATM   18  C   UNK N   1      22.974  12.033  10.663  0.00  0.00     0.144 C 
BRANCH  18  19
HETATM   19  C   UNK N   1      23.864  12.008  11.869  0.00  0.00     0.141 C 
HETATM   20  O   UNK N   1      23.391  11.833  12.980  0.00  0.00    -0.650 OA
BRANCH  19  21
HETATM   21  O   UNK N   1      25.185  12.222  11.730  0.00  0.00    -0.776 OA
HETATM   22  H   UNK N   1      25.790  11.509  11.785  0.00  0.00     0.167 HD
ENDBRANCH  19  21
ENDBRANCH  18  19
ENDBRANCH  17  18
BRANCH  17  23
HETATM   23  N   UNK N   1      20.663  11.960  11.536  0.00  0.00    -0.418 N 
HETATM   24  H   UNK N   1      20.148  12.041  12.412  0.00  0.00     0.150 HD
HETATM   25  H   UNK N   1      20.433  11.113  11.015  0.00  0.00     0.150 HD
ENDBRANCH  17  23
ENDBRANCH   1  17
TORSDOF 10
ENDMDL
MODEL 3
REMARK VINA RESULT:      -5.8      1.821      2.436
REMARK  10 active torsions:
REMARK  status: ('A' for Active; 'I' for Inactive)
REMARK    1  A    between atoms: C_1  and  C_2 
REMARK    2  A    between atoms: C_1  and  O_15 
REMARK    3  A    between atoms: C_2  and  C_3 
REMARK    4  A    between atoms: C_3  and  C_4 
REMARK    5  A    between atoms: C_3  and  N_16 
REMARK       I    between atoms: C_4  and  N_5 
REMARK    6  A    between atoms: N_5  and  C_6 
REMARK    7  A    between atoms: C_6  and  C_7 
REMARK    8  A    between atoms: C_6  and  C_18 
REMARK    9  A    between atoms: C_7  and  C_8 
REMARK   10  A    between atoms: C_18  and  O_20 
ROOT
HETATM    1  C   UNK N   1      28.298  24.762  -4.756  0.00  0.00     0.241 C 
HETATM    2  N   UNK N   1      26.963  24.840  -4.989  0.00  0.00    -0.345 N 
HETATM    3  O   UNK N   1      29.102  25.227  -5.552  0.00  0.00    -0.271 OA
HETATM    4  H   UNK N   1      26.360  24.445  -4.319  0.00  0.00     0.163 HD
ENDROOT
BRANCH   2   5
HETATM    5  C   UNK N   1      26.357  25.462  -6.150  0.00  0.00     0.188 C 
BRANCH   5   6
HETATM    6  C   UNK N   1      25.353  26.547  -5.765  0.00  0.00     0.074 C 
BRANCH   6   7
HETATM    7  C   UNK N   1      26.117  27.762  -5.357  0.00  0.00    -0.056 A 
HETATM    8  C   UNK N   1      25.769  28.465  -4.196  0.00  0.00     0.007 A 
HETATM    9  C   UNK N   1      26.437  29.648  -3.867  0.00  0.00     0.001 A 
HETATM   10  C   UNK N   1      27.448  30.134  -4.701  0.00  0.00     0.000 A 
HETATM   11  C   UNK N   1      27.798  29.433  -5.858  0.00  0.00     0.001 A 
HETATM   12  C   UNK N   1      27.130  28.251  -6.189  0.00  0.00     0.007 A 
ENDBRANCH   6   7
ENDBRANCH   5   6
BRANCH   5  13
HETATM   13  C   UNK N   1      25.829  24.447  -7.130  0.00  0.00     0.281 C 
HETATM   14  O   UNK N   1      25.898  24.684  -8.327  0.00  0.00    -0.263 OA
BRANCH  13  15
HETATM   15  O   UNK N   1      25.264  23.295  -6.687  0.00  0.00    -0.325 OA
HETATM   16  C   UNK N   1      25.587  22.067  -7.214  0.00  0.00     0.213 C 
ENDBRANCH  13  15
ENDBRANCH   5  13
ENDBRANCH   2   5
BRANCH   1  17
HETATM   17  C   UNK N   1      28.769  24.095  -3.498  0.00  0.00     0.177 C 
BRANCH  17  18
HETATM   18  C   UNK N   1      29.743  22.939  -3.751  0.00  0.00     0.144 C 
BRANCH  18  19
HETATM   19  C   UNK N   1      30.564  22.552  -2.557  0.00  0.00     0.141 C 
HETATM   20  O   UNK N   1      31.435  21.704  -2.658  0.00  0.00    -0.650 OA
BRANCH  19  21
HETATM   21  O   UNK N   1      30.310  23.113  -1.361  0.00  0.00    -0.776 OA
HETATM   22  H   UNK N   1      29.434  23.344  -1.120  0.00  0.00     0.167 HD
ENDBRANCH  19  21
ENDBRANCH  18  19
ENDBRANCH  17  18
BRANCH  17  23
HETATM   23  N   UNK N   1      27.646  23.680  -2.673  0.00  0.00    -0.418 N 
HETATM   24  H   UNK N   1      27.559  23.118  -1.826  0.00  0.00     0.150 HD
HETATM   25  H   UNK N   1      26.749  24.025  -3.017  0.00  0.00     0.150 HD
ENDBRANCH  17  23
ENDBRANCH   1  17
TORSDOF 10
ENDMDL
MODEL 4
REMARK VINA RESULT:      -5.8     13.923     16.979
REMARK  10 active torsions:
REMARK  status: ('A' for Active; 'I' for Inactive)
REMARK    1  A    between atoms: C_1  and  C_2 
REMARK    2  A    between atoms: C_1  and  O_15 
REMARK    3  A    between atoms: C_2  and  C_3 
REMARK    4  A    between atoms: C_3  and  C_4 
REMARK    5  A    between atoms: C_3  and  N_16 
REMARK       I    between atoms: C_4  and  N_5 
REMARK    6  A    between atoms: N_5  and  C_6 
REMARK    7  A    between atoms: C_6  and  C_7 
REMARK    8  A    between atoms: C_6  and  C_18 
REMARK    9  A    between atoms: C_7  and  C_8 
REMARK   10  A    between atoms: C_18  and  O_20 
ROOT
HETATM    1  C   UNK N   1      34.901  15.980   9.866  0.00  0.00     0.241 C 
HETATM    2  N   UNK N   1      34.135  15.664   8.791  0.00  0.00    -0.345 N 
HETATM    3  O   UNK N   1      34.902  17.114  10.325  0.00  0.00    -0.271 OA
HETATM    4  H   UNK N   1      34.176  14.738   8.459  0.00  0.00     0.163 HD
ENDROOT
BRANCH   2   5
HETATM    5  C   UNK N   1      33.260  16.586   8.095  0.00  0.00     0.188 C 
BRANCH   5   6
HETATM    6  C   UNK N   1      31.929  15.941   7.711  0.00  0.00     0.074 C 
BRANCH   6   7
HETATM    7  C   UNK N   1      30.859  16.972   7.841  0.00  0.00    -0.056 A 
HETATM    8  C   UNK N   1      30.834  17.837   8.943  0.00  0.00     0.007 A 
HETATM    9  C   UNK N   1      29.782  18.744   9.098  0.00  0.00     0.001 A 
HETATM   10  C   UNK N   1      28.751  18.784   8.155  0.00  0.00     0.000 A 
HETATM   11  C   UNK N   1      28.775  17.924   7.054  0.00  0.00     0.001 A 
HETATM   12  C   UNK N   1      29.826  17.016   6.899  0.00  0.00     0.007 A 
ENDBRANCH   6   7
ENDBRANCH   5   6
BRANCH   5  13
HETATM   13  C   UNK N   1      33.958  17.289   6.960  0.00  0.00     0.281 C 
HETATM   14  O   UNK N   1      34.619  18.290   7.196  0.00  0.00    -0.263 OA
BRANCH  13  15
HETATM   15  O   UNK N   1      33.837  16.827   5.689  0.00  0.00    -0.325 OA
HETATM   16  C   UNK N   1      33.123  17.501   4.726  0.00  0.00     0.213 C 
ENDBRANCH  13  15
ENDBRANCH   5  13
ENDBRANCH   2   5
BRANCH   1  17
HETATM   17  C   UNK N   1      35.748  14.907  10.484  0.00  0.00     0.177 C 
BRANCH  17  18
HETATM   18  C   UNK N   1      35.190  14.383  11.812  0.00  0.00     0.144 C 
BRANCH  18  19
HETATM   19  C   UNK N   1      36.230  14.148  12.866  0.00  0.00     0.141 C 
HETATM   20  O   UNK N   1      36.747  13.049  12.987  0.00  0.00    -0.650 OA
BRANCH  19  21
HETATM   21  O   UNK N   1      36.564  15.142  13.709  0.00  0.00    -0.776 OA
HETATM   22  H   UNK N   1      37.465  15.334  13.885  0.00  0.00     0.167 HD
ENDBRANCH  19  21
ENDBRANCH  18  19
ENDBRANCH  17  18
BRANCH  17  23
HETATM   23  N   UNK N   1      37.129  15.340  10.614  0.00  0.00    -0.418 N 
HETATM   24  H   UNK N   1      38.028  14.915  10.387  0.00  0.00     0.150 HD
HETATM   25  H   UNK N   1      37.219  16.270  11.023  0.00  0.00     0.150 HD
ENDBRANCH  17  23
ENDBRANCH   1  17
TORSDOF 10
ENDMDL
MODEL 5
REMARK VINA RESULT:      -5.7     12.676     15.487
REMARK  10 active torsions:
REMARK  status: ('A' for Active; 'I' for Inactive)
REMARK    1  A    between atoms: C_1  and  C_2 
REMARK    2  A    between atoms: C_1  and  O_15 
REMARK    3  A    between atoms: C_2  and  C_3 
REMARK    4  A    between atoms: C_3  and  C_4 
REMARK    5  A    between atoms: C_3  and  N_16 
REMARK       I    between atoms: C_4  and  N_5 
REMARK    6  A    between atoms: N_5  and  C_6 
REMARK    7  A    between atoms: C_6  and  C_7 
REMARK    8  A    between atoms: C_6  and  C_18 
REMARK    9  A    between atoms: C_7  and  C_8 
REMARK   10  A    between atoms: C_18  and  O_20 
ROOT
HETATM    1  C   UNK N   1      33.946  17.293   8.540  0.00  0.00     0.241 C 
HETATM    2  N   UNK N   1      33.304  16.544   7.609  0.00  0.00    -0.345 N 
HETATM    3  O   UNK N   1      33.676  18.476   8.691  0.00  0.00    -0.271 OA
HETATM    4  H   UNK N   1      33.563  15.599   7.525  0.00  0.00     0.163 HD
ENDROOT
BRANCH   2   5
HETATM    5  C   UNK N   1      32.261  17.031   6.727  0.00  0.00     0.188 C 
BRANCH   5   6
HETATM    6  C   UNK N   1      30.970  16.224   6.859  0.00  0.00     0.074 C 
BRANCH   6   7
HETATM    7  C   UNK N   1      29.903  17.137   7.362  0.00  0.00    -0.056 A 
HETATM    8  C   UNK N   1      29.065  17.814   6.466  0.00  0.00     0.007 A 
HETATM    9  C   UNK N   1      28.123  18.730   6.943  0.00  0.00     0.001 A 
HETATM   10  C   UNK N   1      28.021  18.975   8.315  0.00  0.00     0.000 A 
HETATM   11  C   UNK N   1      28.854  18.299   9.211  0.00  0.00     0.001 A 
HETATM   12  C   UNK N   1      29.797  17.384   8.734  0.00  0.00     0.007 A 
ENDBRANCH   6   7
ENDBRANCH   5   6
BRANCH   5  13
HETATM   13  C   UNK N   1      32.745  17.199   5.310  0.00  0.00     0.281 C 
HETATM   14  O   UNK N   1      33.735  17.885   5.097  0.00  0.00    -0.263 OA
BRANCH  13  15
HETATM   15  O   UNK N   1      32.077  16.615   4.283  0.00  0.00    -0.325 OA
HETATM   16  C   UNK N   1      32.373  16.880   2.966  0.00  0.00     0.213 C 
ENDBRANCH  13  15
ENDBRANCH   5  13
ENDBRANCH   2   5
BRANCH   1  17
HETATM   17  C   UNK N   1      34.997  16.638   9.387  0.00  0.00     0.177 C 
BRANCH  17  18
HETATM   18  C   UNK N   1      34.798  15.126   9.541  0.00  0.00     0.144 C 
BRANCH  18  19
HETATM   19  C   UNK N   1      34.161  14.717  10.835  0.00  0.00     0.141 C 
HETATM   20  O   UNK N   1      34.808  14.119  11.678  0.00  0.00    -0.650 OA
BRANCH  19  21
HETATM   21  O   UNK N   1      32.858  14.975  11.049  0.00  0.00    -0.776 OA
HETATM   22  H   UNK N   1      32.316  14.351  11.491  0.00  0.00     0.167 HD
ENDBRANCH  19  21
ENDBRANCH  18  19
ENDBRANCH  17  18
BRANCH  17  23
HETATM   23  N   UNK N   1      35.117  17.297  10.676  0.00  0.00    -0.418 N 
HETATM   24  H   UNK N   1      34.458  17.513  11.425  0.00  0.00     0.150 HD
HETATM   25  H   UNK N   1      36.066  17.615  10.876  0.00  0.00     0.150 HD
ENDBRANCH  17  23
ENDBRANCH   1  17
TORSDOF 10
ENDMDL
MODEL 6
REMARK VINA RESULT:      -5.6     13.460     16.363
REMARK  10 active torsions:
REMARK  status: ('A' for Active; 'I' for Inactive)
REMARK    1  A    between atoms: C_1  and  C_2 
REMARK    2  A    between atoms: C_1  and  O_15 
REMARK    3  A    between atoms: C_2  and  C_3 
REMARK    4  A    between atoms: C_3  and  C_4 
REMARK    5  A    between atoms: C_3  and  N_16 
REMARK       I    between atoms: C_4  and  N_5 
REMARK    6  A    between atoms: N_5  and  C_6 
REMARK    7  A    between atoms: C_6  and  C_7 
REMARK    8  A    between atoms: C_6  and  C_18 
REMARK    9  A    between atoms: C_7  and  C_8 
REMARK   10  A    between atoms: C_18  and  O_20 
ROOT
HETATM    1  C   UNK N   1      31.734  17.636   8.707  0.00  0.00     0.241 C 
HETATM    2  N   UNK N   1      32.590  16.588   8.822  0.00  0.00    -0.345 N 
HETATM    3  O   UNK N   1      32.112  18.710   8.262  0.00  0.00    -0.271 OA
HETATM    4  H   UNK N   1      32.235  15.748   9.192  0.00  0.00     0.163 HD
ENDROOT
BRANCH   2   5
HETATM    5  C   UNK N   1      33.988  16.613   8.440  0.00  0.00     0.188 C 
BRANCH   5   6
HETATM    6  C   UNK N   1      34.301  15.609   7.333  0.00  0.00     0.074 C 
BRANCH   6   7
HETATM    7  C   UNK N   1      33.525  15.998   6.120  0.00  0.00    -0.056 A 
HETATM    8  C   UNK N   1      33.700  17.261   5.538  0.00  0.00     0.007 A 
HETATM    9  C   UNK N   1      32.909  17.648   4.453  0.00  0.00     0.001 A 
HETATM   10  C   UNK N   1      31.937  16.777   3.952  0.00  0.00     0.000 A 
HETATM   11  C   UNK N   1      31.761  15.517   4.530  0.00  0.00     0.001 A 
HETATM   12  C   UNK N   1      32.552  15.130   5.616  0.00  0.00     0.007 A 
ENDBRANCH   6   7
ENDBRANCH   5   6
BRANCH   5  13
HETATM   13  C   UNK N   1      34.906  16.529   9.632  0.00  0.00     0.281 C 
HETATM   14  O   UNK N   1      35.381  17.558  10.091  0.00  0.00    -0.263 OA
BRANCH  13  15
HETATM   15  O   UNK N   1      35.218  15.325  10.174  0.00  0.00    -0.325 OA
HETATM   16  C   UNK N   1      34.576  14.828  11.284  0.00  0.00     0.213 C 
ENDBRANCH  13  15
ENDBRANCH   5  13
ENDBRANCH   2   5
BRANCH   1  17
HETATM   17  C   UNK N   1      30.309  17.447   9.137  0.00  0.00     0.177 C 
BRANCH  17  18
HETATM   18  C   UNK N   1      29.310  17.523   7.977  0.00  0.00     0.144 C 
BRANCH  18  19
HETATM   19  C   UNK N   1      28.171  18.471   8.206  0.00  0.00     0.141 C 
HETATM   20  O   UNK N   1      28.023  19.442   7.482  0.00  0.00    -0.650 OA
BRANCH  19  21
HETATM   21  O   UNK N   1      27.332  18.272   9.239  0.00  0.00    -0.776 OA
HETATM   22  H   UNK N   1      26.620  18.861   9.393  0.00  0.00     0.167 HD
ENDBRANCH  19  21
ENDBRANCH  18  19
ENDBRANCH  17  18
BRANCH  17  23
HETATM   23  N   UNK N   1      29.959  18.366  10.207  0.00  0.00    -0.418 N 
HETATM   24  H   UNK N   1      29.862  18.271  11.218  0.00  0.00     0.150 HD
HETATM   25  H   UNK N   1      29.768  19.312   9.875  0.00  0.00     0.150 HD
ENDBRANCH  17  23
ENDBRANCH   1  17
TORSDOF 10
ENDMDL
MODEL 7
REMARK VINA RESULT:      -5.5     19.065     23.164
REMARK  10 active torsions:
REMARK  status: ('A' for Active; 'I' for Inactive)
REMARK    1  A    between atoms: C_1  and  C_2 
REMARK    2  A    between atoms: C_1  and  O_15 
REMARK    3  A    between atoms: C_2  and  C_3 
REMARK    4  A    between atoms: C_3  and  C_4 
REMARK    5  A    between atoms: C_3  and  N_16 
REMARK       I    between atoms: C_4  and  N_5 
REMARK    6  A    between atoms: N_5  and  C_6 
REMARK    7  A    between atoms: C_6  and  C_7 
REMARK    8  A    between atoms: C_6  and  C_18 
REMARK    9  A    between atoms: C_7  and  C_8 
REMARK   10  A    between atoms: C_18  and  O_20 
ROOT
HETATM    1  C   UNK N   1      35.718  14.013  11.975  0.00  0.00     0.241 C 
HETATM    2  N   UNK N   1      36.620  13.088  12.388  0.00  0.00    -0.345 N 
HETATM    3  O   UNK N   1      34.556  13.971  12.354  0.00  0.00    -0.271 OA
HETATM    4  H   UNK N   1      37.540  13.165  12.049  0.00  0.00     0.163 HD
ENDROOT
BRANCH   2   5
HETATM    5  C   UNK N   1      36.331  11.993  13.294  0.00  0.00     0.188 C 
BRANCH   5   6
HETATM    6  C   UNK N   1      37.279  11.969  14.491  0.00  0.00     0.074 C 
BRANCH   6   7
HETATM    7  C   UNK N   1      36.466  12.139  15.730  0.00  0.00    -0.056 A 
HETATM    8  C   UNK N   1      36.027  13.410  16.125  0.00  0.00     0.007 A 
HETATM    9  C   UNK N   1      35.337  13.571  17.329  0.00  0.00     0.001 A 
HETATM   10  C   UNK N   1      35.089  12.462  18.144  0.00  0.00     0.000 A 
HETATM   11  C   UNK N   1      35.523  11.193  17.752  0.00  0.00     0.001 A 
HETATM   12  C   UNK N   1      36.215  11.033  16.547  0.00  0.00     0.007 A 
ENDBRANCH   6   7
ENDBRANCH   5   6
BRANCH   5  13
HETATM   13  C   UNK N   1      36.208  10.675  12.574  0.00  0.00     0.281 C 
HETATM   14  O   UNK N   1      37.173  10.237  11.964  0.00  0.00    -0.263 OA
BRANCH  13  15
HETATM   15  O   UNK N   1      35.033   9.995  12.584  0.00  0.00    -0.325 OA
HETATM   16  C   UNK N   1      33.933  10.436  13.281  0.00  0.00     0.213 C 
ENDBRANCH  13  15
ENDBRANCH   5  13
ENDBRANCH   2   5
BRANCH   1  17
HETATM   17  C   UNK N   1      36.176  15.096  11.043  0.00  0.00     0.177 C 
BRANCH  17  18
HETATM   18  C   UNK N   1      35.192  15.372   9.901  0.00  0.00     0.144 C 
BRANCH  18  19
HETATM   19  C   UNK N   1      34.781  16.808   9.776  0.00  0.00     0.141 C 
HETATM   20  O   UNK N   1      35.548  17.699  10.103  0.00  0.00    -0.650 OA
BRANCH  19  21
HETATM   21  O   UNK N   1      33.545  17.115   9.341  0.00  0.00    -0.776 OA
HETATM   22  H   UNK N   1      33.253  18.005   9.330  0.00  0.00     0.167 HD
ENDBRANCH  19  21
ENDBRANCH  18  19
ENDBRANCH  17  18
BRANCH  17  23
HETATM   23  N   UNK N   1      37.514  14.825  10.544  0.00  0.00    -0.418 N 
HETATM   24  H   UNK N   1      38.254  14.177  10.818  0.00  0.00     0.150 HD
HETATM   25  H   UNK N   1      37.770  15.409   9.748  0.00  0.00     0.150 HD
ENDBRANCH  17  23
ENDBRANCH   1  17
TORSDOF 10
ENDMDL
MODEL 8
REMARK VINA RESULT:      -5.5      3.060      4.722
REMARK  10 active torsions:
REMARK  status: ('A' for Active; 'I' for Inactive)
REMARK    1  A    between atoms: C_1  and  C_2 
REMARK    2  A    between atoms: C_1  and  O_15 
REMARK    3  A    between atoms: C_2  and  C_3 
REMARK    4  A    between atoms: C_3  and  C_4 
REMARK    5  A    between atoms: C_3  and  N_16 
REMARK       I    between atoms: C_4  and  N_5 
REMARK    6  A    between atoms: N_5  and  C_6 
REMARK    7  A    between atoms: C_6  and  C_7 
REMARK    8  A    between atoms: C_6  and  C_18 
REMARK    9  A    between atoms: C_7  and  C_8 
REMARK   10  A    between atoms: C_18  and  O_20 
ROOT
HETATM    1  C   UNK N   1      28.499  25.220  -4.067  0.00  0.00     0.241 C 
HETATM    2  N   UNK N   1      28.440  26.509  -4.488  0.00  0.00    -0.345 N 
HETATM    3  O   UNK N   1      27.496  24.640  -3.678  0.00  0.00    -0.271 OA
HETATM    4  H   UNK N   1      29.278  26.930  -4.786  0.00  0.00     0.163 HD
ENDROOT
BRANCH   2   5
HETATM    5  C   UNK N   1      27.235  27.314  -4.533  0.00  0.00     0.188 C 
BRANCH   5   6
HETATM    6  C   UNK N   1      27.248  28.308  -5.693  0.00  0.00     0.074 C 
BRANCH   6   7
HETATM    7  C   UNK N   1      27.066  27.543  -6.961  0.00  0.00    -0.056 A 
HETATM    8  C   UNK N   1      26.011  26.631  -7.098  0.00  0.00     0.007 A 
HETATM    9  C   UNK N   1      25.897  25.859  -8.256  0.00  0.00     0.001 A 
HETATM   10  C   UNK N   1      26.842  25.992  -9.279  0.00  0.00     0.000 A 
HETATM   11  C   UNK N   1      27.894  26.902  -9.145  0.00  0.00     0.001 A 
HETATM   12  C   UNK N   1      28.009  27.674  -7.985  0.00  0.00     0.007 A 
ENDBRANCH   6   7
ENDBRANCH   5   6
BRANCH   5  13
HETATM   13  C   UNK N   1      26.907  27.925  -3.196  0.00  0.00     0.281 C 
HETATM   14  O   UNK N   1      25.820  27.694  -2.686  0.00  0.00    -0.263 OA
BRANCH  13  15
HETATM   15  O   UNK N   1      27.800  28.739  -2.576  0.00  0.00    -0.325 OA
HETATM   16  C   UNK N   1      27.606  30.096  -2.465  0.00  0.00     0.213 C 
ENDBRANCH  13  15
ENDBRANCH   5  13
ENDBRANCH   2   5
BRANCH   1  17
HETATM   17  C   UNK N   1      29.825  24.518  -4.092  0.00  0.00     0.177 C 
BRANCH  17  18
HETATM   18  C   UNK N   1      29.751  23.063  -3.615  0.00  0.00     0.144 C 
BRANCH  18  19
HETATM   19  C   UNK N   1      30.522  22.787  -2.359  0.00  0.00     0.141 C 
HETATM   20  O   UNK N   1      30.056  23.087  -1.272  0.00  0.00    -0.650 OA
BRANCH  19  21
HETATM   21  O   UNK N   1      31.751  22.245  -2.434  0.00  0.00    -0.776 OA
HETATM   22  H   UNK N   1      31.902  21.482  -2.958  0.00  0.00     0.167 HD
ENDBRANCH  19  21
ENDBRANCH  18  19
ENDBRANCH  17  18
BRANCH  17  23
HETATM   23  N   UNK N   1      30.830  25.272  -3.362  0.00  0.00    -0.418 N 
HETATM   24  H   UNK N   1      31.016  25.430  -2.372  0.00  0.00     0.150 HD
HETATM   25  H   UNK N   1      31.495  25.747  -3.974  0.00  0.00     0.150 HD
ENDBRANCH  17  23
ENDBRANCH   1  17
TORSDOF 10
ENDMDL
MODEL 9
REMARK VINA RESULT:      -5.5     13.277     15.211
REMARK  10 active torsions:
REMARK  status: ('A' for Active; 'I' for Inactive)
REMARK    1  A    between atoms: C_1  and  C_2 
REMARK    2  A    between atoms: C_1  and  O_15 
REMARK    3  A    between atoms: C_2  and  C_3 
REMARK    4  A    between atoms: C_3  and  C_4 
REMARK    5  A    between atoms: C_3  and  N_16 
REMARK       I    between atoms: C_4  and  N_5 
REMARK    6  A    between atoms: N_5  and  C_6 
REMARK    7  A    between atoms: C_6  and  C_7 
REMARK    8  A    between atoms: C_6  and  C_18 
REMARK    9  A    between atoms: C_7  and  C_8 
REMARK   10  A    between atoms: C_18  and  O_20 
ROOT
HETATM    1  C   UNK N   1      21.324  17.682   3.599  0.00  0.00     0.241 C 
HETATM    2  N   UNK N   1      20.726  17.412   4.787  0.00  0.00    -0.345 N 
HETATM    3  O   UNK N   1      22.536  17.587   3.470  0.00  0.00    -0.271 OA
HETATM    4  H   UNK N   1      19.748  17.508   4.837  0.00  0.00     0.163 HD
ENDROOT
BRANCH   2   5
HETATM    5  C   UNK N   1      21.419  16.991   5.989  0.00  0.00     0.188 C 
BRANCH   5   6
HETATM    6  C   UNK N   1      21.482  15.470   6.116  0.00  0.00     0.074 C 
BRANCH   6   7
HETATM    7  C   UNK N   1      22.848  15.100   6.588  0.00  0.00    -0.056 A 
HETATM    8  C   UNK N   1      23.980  15.734   6.060  0.00  0.00     0.007 A 
HETATM    9  C   UNK N   1      25.258  15.324   6.447  0.00  0.00     0.001 A 
HETATM   10  C   UNK N   1      25.407  14.274   7.359  0.00  0.00     0.000 A 
HETATM   11  C   UNK N   1      24.280  13.641   7.888  0.00  0.00     0.001 A 
HETATM   12  C   UNK N   1      23.001  14.051   7.500  0.00  0.00     0.007 A 
ENDBRANCH   6   7
ENDBRANCH   5   6
BRANCH   5  13
HETATM   13  C   UNK N   1      20.908  17.696   7.218  0.00  0.00     0.281 C 
HETATM   14  O   UNK N   1      20.825  18.915   7.213  0.00  0.00    -0.263 OA
BRANCH  13  15
HETATM   15  O   UNK N   1      20.566  16.986   8.323  0.00  0.00    -0.325 OA
HETATM   16  C   UNK N   1      19.268  16.894   8.767  0.00  0.00     0.213 C 
ENDBRANCH  13  15
ENDBRANCH   5  13
ENDBRANCH   2   5
BRANCH   1  17
HETATM   17  C   UNK N   1      20.464  18.096   2.441  0.00  0.00     0.177 C 
BRANCH  17  18
HETATM   18  C   UNK N   1      20.857  19.454   1.848  0.00  0.00     0.144 C 
BRANCH  18  19
HETATM   19  C   UNK N   1      21.089  20.527   2.869  0.00  0.00     0.141 C 
HETATM   20  O   UNK N   1      22.054  21.268   2.774  0.00  0.00    -0.650 OA
BRANCH  19  21
HETATM   21  O   UNK N   1      20.253  20.647   3.916  0.00  0.00    -0.776 OA
HETATM   22  H   UNK N   1      20.350  20.095   4.667  0.00  0.00     0.167 HD
ENDBRANCH  19  21
ENDBRANCH  18  19
ENDBRANCH  17  18
BRANCH  17  23
HETATM   23  N   UNK N   1      19.055  18.051   2.793  0.00  0.00    -0.418 N 
HETATM   24  H   UNK N   1      18.459  17.354   3.240  0.00  0.00     0.150 HD
HETATM   25  H   UNK N   1      18.552  18.902   2.538  0.00  0.00     0.150 HD
ENDBRANCH  17  23
ENDBRANCH   1  17
TORSDOF 10
ENDMDL
