REMARK  3 active torsions:
REMARK  status: ('A' for Active; 'I' for Inactive)
REMARK    1  A    between atoms: O_2  and  C_8 
REMARK    2  A    between atoms: C_4  and  C_6 
REMARK    3  A    between atoms: C_9  and  C_11 
ROOT
HETATM    1  O   UNK N   1       6.477  -0.740   0.124  0.00  0.00    -0.308 OA
HETATM    2  O   UNK N   1       8.649  -1.241   0.308  0.00  0.00    -0.260 OA
HETATM    3  C   UNK N   1       5.534   0.139  -0.380  0.00  0.00     0.161 C 
HETATM    4  C   UNK N   1       5.756   1.558   0.148  0.00  0.00     0.101 C 
HETATM    5  C   UNK N   1       7.198   1.972   0.015  0.00  0.00     0.054 C 
HETATM    6  C   UNK N   1       8.166   1.033   0.029  0.00  0.00     0.114 C 
HETATM    7  C   UNK N   1       7.790  -0.391   0.149  0.00  0.00     0.285 C 
ENDROOT
BRANCH   3   8
HETATM    8  C   UNK N   1       4.136  -0.271  -0.056  0.00  0.00     0.007 C 
HETATM    9  C   UNK N   1       3.650  -1.488  -0.312  0.00  0.00     0.009 C 
BRANCH   9  10
HETATM   10  C   UNK N   1       2.217  -1.794  -0.100  0.00  0.00    -0.041 C 
HETATM   11  C   UNK N   1       1.338  -0.808   0.152  0.00  0.00    -0.015 C 
HETATM   12  C   UNK N   1      -0.135  -1.046   0.346  0.00  0.00     0.032 C 
HETATM   13  C   UNK N   1      -0.616  -2.485   0.111  0.00  0.00     0.031 C 
HETATM   14  C   UNK N   1       0.465  -3.513  -0.096  0.00  0.00    -0.026 C 
HETATM   15  C   UNK N   1       1.759  -3.191  -0.201  0.00  0.00     0.007 C 
ENDBRANCH   9  10
ENDBRANCH   3   8
BRANCH   5  16
HETATM   16  O   UNK N   1       7.484   3.296  -0.076  0.00  0.00    -0.360 OA
HETATM   17  C   UNK N   1       8.764   3.796  -0.161  0.00  0.00     0.209 C 
ENDBRANCH   5  16
TORSDOF 3
