REMARK  26 active torsions:
REMARK  status: ('A' for Active; 'I' for Inactive)
REMARK    1  A    between atoms: C_2  and  N_1 
REMARK    2  A    between atoms: C_6  and  O_14 
REMARK    3  A    between atoms: C_12  and  C_17 
REMARK    4  A    between atoms: C_13  and  O_18 
REMARK    5  A    between atoms: C_15  and  N_21 
REMARK    6  A    between atoms: C_17  and  O_22 
REMARK    7  A    between atoms: O_18  and  P_23 
REMARK    8  A    between atoms: O_22  and  P_24 
REMARK    9  A    between atoms: P_23  and  O_25 
REMARK   10  A    between atoms: P_23  and  O_26 
REMARK   11  A    between atoms: P_24  and  O_28 
REMARK   12  A    between atoms: P_24  and  O_29 
REMARK   13  A    between atoms: O_28  and  P_31 
REMARK   14  A    between atoms: P_31  and  O_32 
REMARK   15  A    between atoms: P_31  and  O_33 
REMARK   16  A    between atoms: O_32  and  C_35 
REMARK   17  A    between atoms: C_35  and  C_36 
REMARK   18  A    between atoms: C_36  and  C_37 
REMARK   19  A    between atoms: C_37  and  C_40 
REMARK   20  A    between atoms: C_37  and  O_41 
REMARK       I    between atoms: C_40  and  N_42 
REMARK   21  A    between atoms: N_42  and  C_44 
REMARK   22  A    between atoms: C_44  and  C_45 
REMARK   23  A    between atoms: C_45  and  C_46 
REMARK       I    between atoms: C_46  and  N_47 
REMARK   24  A    between atoms: N_47  and  C_49 
REMARK   25  A    between atoms: C_49  and  C_50 
REMARK   26  A    between atoms: C_50  and  S_51 
ROOT
HETATM    1  O   UNK N   1       9.070 -10.249  -2.119  0.00  0.00    -0.294 OA
ENDROOT
BRANCH   1   2
HETATM    2  C   UNK N   1       9.646  -9.835  -0.924  0.00  0.00     0.215 C 
BRANCH   2   3
HETATM    3  C   UNK N   1      11.063 -10.350  -0.753  0.00  0.00     0.180 C 
HETATM    4  O   UNK N   1      11.954  -9.525  -1.470  0.00  0.00    -0.353 OA
HETATM    5  C   UNK N   1      12.800  -8.907  -0.523  0.00  0.00     0.262 C 
HETATM    6  C   UNK N   1      12.826  -9.762   0.727  0.00  0.00     0.199 C 
HETATM    7  C   UNK N   1      11.411 -10.257   0.722  0.00  0.00     0.197 C 
BRANCH   5   8
HETATM    8  N   UNK N   1      12.383  -7.518  -0.301  0.00  0.00    -0.297 N 
HETATM    9  C   UNK N   1      11.265  -7.010   0.245  0.00  0.00     0.142 A 
HETATM   10  C   UNK N   1      11.273  -5.671   0.119  0.00  0.00     0.122 A 
HETATM   11  N   UNK N   1      10.234  -7.672   0.824  0.00  0.00    -0.336 N 
HETATM   12  C   UNK N   1      10.195  -4.921   0.562  0.00  0.00     0.131 A 
HETATM   13  N   UNK N   1      12.408  -5.277  -0.488  0.00  0.00    -0.346 N 
HETATM   14  N   UNK N   1       9.149  -5.581   1.143  0.00  0.00    -0.337 N 
HETATM   15  C   UNK N   1       9.170  -6.946   1.283  0.00  0.00     0.183 A 
ATOM     16  HN  UNK N   1       8.343  -5.053   1.477  1.00  0.00     0.168 HD
HETATM   17  C   UNK N   1      13.079  -6.436  -0.736  0.00  0.00     0.188 A 
ATOM     18  HN  UNK N   1      12.699  -4.325  -0.712  1.00  0.00     0.167 HD
ATOM     19  HN  UNK N   1      10.251  -8.687   0.916  1.00  0.00     0.168 HD
BRANCH  12  20
HETATM   20  N   UNK N   1      10.159  -3.522   0.400  0.00  0.00    -0.383 N 
HETATM   21  H   UNK N   1      10.993  -3.011   0.287  0.00  0.00     0.157 HD
HETATM   22  H   UNK N   1       9.294  -3.053   0.400  0.00  0.00     0.157 HD
ENDBRANCH  12  20
ENDBRANCH   5   8
BRANCH   6  23
HETATM   23  O   UNK N   1      13.697 -10.833   0.502  0.00  0.00    -0.388 OA
HETATM   24  H   UNK N   1      13.355 -11.728   0.346  0.00  0.00     0.210 HD
ENDBRANCH   6  23
BRANCH   7  25
HETATM   25  O   UNK N   1      11.285 -11.489   1.371  0.00  0.00    -0.286 OA
BRANCH  25  26
HETATM   26  P   UNK N   1       9.816 -11.443   2.305  0.00  0.00     0.391 P 
HETATM   27  O   UNK N   1       8.835 -10.253   2.125  0.00  0.00    -0.632 OA
BRANCH  26  28
HETATM   28  O   UNK N   1       9.248 -12.804   3.218  0.00  0.00    -0.307 OA
HETATM   29  H   UNK N   1       8.430 -12.909   3.729  0.00  0.00     0.222 HD
ENDBRANCH  26  28
BRANCH  26  30
HETATM   30  O   UNK N   1       9.064 -12.173   0.950  0.00  0.00    -0.307 OA
HETATM   31  H   UNK N   1       8.493 -12.011   0.182  0.00  0.00     0.222 HD
ENDBRANCH  26  30
ENDBRANCH  25  26
ENDBRANCH   7  25
ENDBRANCH   2   3
ENDBRANCH   1   2
BRANCH   1  32
HETATM   32  P   UNK N   1       7.387 -10.467  -1.723  0.00  0.00     0.401 P 
HETATM   33  O   UNK N   1       6.591  -9.637  -2.765  0.00  0.00    -0.631 OA
BRANCH  32  34
HETATM   34  O   UNK N   1       6.891 -12.130  -1.937  0.00  0.00    -0.195 OA
BRANCH  34  35
HETATM   35  P   UNK N   1       6.401 -12.739  -0.378  0.00  0.00     0.401 P 
HETATM   36  O   UNK N   1       5.087 -12.473  -1.160  0.00  0.00    -0.631 OA
BRANCH  35  37
HETATM   37  O   UNK N   1       7.449 -13.949  -1.107  0.00  0.00    -0.296 OA
BRANCH  37  38
HETATM   38  C   UNK N   1       8.060 -14.618  -0.028  0.00  0.00     0.192 C 
BRANCH  38  39
HETATM   39  C   UNK N   1       9.445 -15.213  -0.308  0.00  0.00     0.009 C 
HETATM   40  C   UNK N   1       9.760 -16.049   0.922  0.00  0.00     0.020 C 
HETATM   41  C   UNK N   1       9.393 -16.147  -1.509  0.00  0.00     0.020 C 
BRANCH  39  42
HETATM   42  C   UNK N   1      10.520 -14.114  -0.488  0.00  0.00     0.219 C 
BRANCH  42  43
HETATM   43  C   UNK N   1      11.943 -14.542  -0.222  0.00  0.00     0.247 C 
HETATM   44  N   UNK N   1      12.611 -13.947   0.805  0.00  0.00    -0.358 N 
HETATM   45  H   UNK N   1      12.109 -13.253   1.291  0.00  0.00     0.162 HD
HETATM   46  O   UNK N   1      12.457 -15.423  -0.894  0.00  0.00    -0.271 OA
BRANCH  44  47
HETATM   47  C   UNK N   1      13.964 -14.195   1.284  0.00  0.00     0.132 C 
BRANCH  47  48
HETATM   48  C   UNK N   1      14.843 -15.091   0.416  0.00  0.00     0.122 C 
BRANCH  48  49
HETATM   49  C   UNK N   1      15.373 -14.372  -0.793  0.00  0.00     0.219 C 
HETATM   50  N   UNK N   1      16.217 -13.314  -0.692  0.00  0.00    -0.360 N 
HETATM   51  H   UNK N   1      16.534 -12.887  -1.521  0.00  0.00     0.162 HD
HETATM   52  O   UNK N   1      15.061 -14.777  -1.899  0.00  0.00    -0.274 OA
BRANCH  50  53
HETATM   53  C   UNK N   1      16.671 -12.786   0.570  0.00  0.00     0.132 C 
BRANCH  53  54
HETATM   54  C   UNK N   1      17.980 -12.046   0.372  0.00  0.00     0.090 C 
BRANCH  54  55
HETATM   55  S   UNK N   1      19.319 -13.231   0.045  0.00  0.00    -0.181 SA
HETATM   56  H   UNK N   1      19.052 -14.542  -0.200  0.00  0.00     0.101 HD
ENDBRANCH  54  55
ENDBRANCH  53  54
ENDBRANCH  50  53
ENDBRANCH  48  49
ENDBRANCH  47  48
ENDBRANCH  44  47
ENDBRANCH  42  43
BRANCH  42  57
HETATM   57  O   UNK N   1      10.414 -13.491  -1.735  0.00  0.00    -0.385 OA
HETATM   58  H   UNK N   1      10.753 -13.211  -2.600  0.00  0.00     0.210 HD
ENDBRANCH  42  57
ENDBRANCH  39  42
ENDBRANCH  38  39
ENDBRANCH  37  38
ENDBRANCH  35  37
BRANCH  35  59
HETATM   59  O   UNK N   1       5.468 -14.209  -0.351  0.00  0.00    -0.307 OA
HETATM   60  H   UNK N   1       4.499 -14.168  -0.336  0.00  0.00     0.222 HD
ENDBRANCH  35  59
ENDBRANCH  34  35
ENDBRANCH  32  34
BRANCH  32  61
HETATM   61  O   UNK N   1       6.952  -9.789  -0.176  0.00  0.00    -0.307 OA
HETATM   62  H   UNK N   1       7.158  -9.390   0.684  0.00  0.00     0.222 HD
ENDBRANCH  32  61
ENDBRANCH   1  32
TORSDOF 26
