REMARK  8 active torsions:
REMARK  status: ('A' for Active; 'I' for Inactive)
REMARK    1  A    between atoms: C_26  and  O_1 
REMARK    2  A    between atoms: C_27  and  O_2 
REMARK    3  A    between atoms: C_4  and  C_9 
REMARK    4  A    between atoms: C_9  and  C_14 
REMARK    5  A    between atoms: C_14  and  C_17 
REMARK    6  A    between atoms: C_16  and  C_19 
REMARK    7  A    between atoms: C_17  and  C_18 
REMARK    8  A    between atoms: C_18  and  C_20 
ROOT
HETATM    1  C   UNK N   1       3.824   1.915   0.099  0.00  0.00    -0.033 C 
HETATM    2  C   UNK N   1       5.320   2.149  -0.154  0.00  0.00    -0.002 C 
HETATM    3  C   UNK N   1       3.775   0.407  -0.133  0.00  0.00     0.023 C 
HETATM    4  C   UNK N   1       5.979   1.023   0.664  0.00  0.00     0.006 C 
HETATM    5  C   UNK N   1       4.916  -0.099   0.748  0.00  0.00     0.010 C 
HETATM    6  C   UNK N   1       2.839   2.604  -0.854  0.00  0.00     0.010 C 
HETATM    7  C   UNK N   1       2.377  -0.151   0.047  0.00  0.00    -0.075 C 
HETATM    8  C   UNK N   1       3.439   2.281   1.549  0.00  0.00     0.016 C 
HETATM    9  C   UNK N   1       1.404   2.007  -0.756  0.00  0.00     0.005 C 
HETATM   10  C   UNK N   1       1.251   0.828   0.236  0.00  0.00     0.034 C 
HETATM   11  C   UNK N   1       2.106  -1.456  -0.092  0.00  0.00     0.004 C 
ENDROOT
BRANCH  11  12
HETATM   12  C   UNK N   1       3.173  -2.432  -0.380  0.00  0.00     0.008 C 
HETATM   13  C   UNK N   1       3.006  -3.759  -0.359  0.00  0.00    -0.048 C 
HETATM   14  C   UNK N   1       1.670  -4.354   0.004  0.00  0.00     0.071 C 
HETATM   15  C   UNK N   1       4.163  -4.667  -0.625  0.00  0.00    -0.033 C 
HETATM   16  C   UNK N   1       1.861  -5.661   0.757  0.00  0.00     0.125 C 
HETATM   17  C   UNK N   1       2.603  -6.630  -0.151  0.00  0.00     0.068 C 
HETATM   18  C   UNK N   1       4.031  -6.161  -0.446  0.00  0.00     0.153 C 
HETATM   19  C   UNK N   1       5.374  -4.160  -0.900  0.00  0.00     0.022 C 
BRANCH  16  20
HETATM   20  O   UNK N   1       0.613  -6.191   1.080  0.00  0.00    -0.395 OA
HETATM   21  H   UNK N   1      -0.141  -5.624   1.305  0.00  0.00     0.210 HD
ENDBRANCH  16  20
BRANCH  18  22
HETATM   22  O   UNK N   1       4.497  -6.832  -1.578  0.00  0.00    -0.391 OA
HETATM   23  H   UNK N   1       4.254  -7.346  -2.364  0.00  0.00     0.210 HD
ENDBRANCH  18  22
ENDBRANCH  11  12
BRANCH   2  24
HETATM   24  C   UNK N   1       5.856   3.573   0.096  0.00  0.00    -0.014 C 
HETATM   25  C   UNK N   1       5.754   4.070   1.534  0.00  0.00     0.010 C 
BRANCH  24  26
HETATM   26  C   UNK N   1       7.254   3.804  -0.479  0.00  0.00     0.005 C 
BRANCH  26  27
HETATM   27  C   UNK N   1       8.382   3.308   0.417  0.00  0.00     0.001 C 
BRANCH  27  28
HETATM   28  C   UNK N   1       9.642   4.122   0.149  0.00  0.00     0.004 C 
BRANCH  28  29
HETATM   29  C   UNK N   1       9.626   5.473   0.864  0.00  0.00    -0.023 C 
HETATM   30  C   UNK N   1       8.576   6.407   0.288  0.00  0.00     0.009 C 
HETATM   31  C   UNK N   1      10.981   6.130   0.714  0.00  0.00     0.009 C 
ENDBRANCH  28  29
ENDBRANCH  27  28
ENDBRANCH  26  27
ENDBRANCH  24  26
ENDBRANCH   2  24
TORSDOF 8
