REMARK  6 active torsions:
REMARK  status: ('A' for Active; 'I' for Inactive)
REMARK    1  A    between atoms: C_3  and  N_1 
REMARK    2  A    between atoms: C_2  and  C_4 
REMARK    3  A    between atoms: C_3  and  C_13 
REMARK    4  A    between atoms: C_4  and  C_3 
REMARK    5  A    between atoms: O_14  and  C_13 
REMARK    6  A    between atoms: C_15  and  O_16 
ROOT
HETATM    1  C   UNK N   1      -0.705  -0.036  -0.099  0.00  0.00    -0.028 A 
HETATM    2  C   UNK N   1      -0.909  -1.414  -0.046  0.00  0.00     0.096 A 
HETATM    3  N   UNK N   1      -2.240  -1.672   0.059  0.00  0.00    -0.365 N 
HETATM    4  C   UNK N   1      -2.852  -0.475   0.059  0.00  0.00     0.043 A 
HETATM    5  C   UNK N   1      -1.945   0.542  -0.033  0.00  0.00     0.001 A 
HETATM    6  C   UNK N   1      -2.334   1.877  -0.071  0.00  0.00     0.050 A 
HETATM    7  C   UNK N   1      -4.223  -0.231   0.116  0.00  0.00     0.033 A 
HETATM    8  C   UNK N   1      -4.651   1.109   0.081  0.00  0.00     0.039 A 
HETATM    9  C   UNK N   1      -3.710   2.161  -0.009  0.00  0.00     0.066 A 
HETATM   10  H   UNK N   1      -2.668  -2.556   0.123  0.00  0.00     0.165 HD
ENDROOT
BRANCH   1  11
HETATM   11  C   UNK N   1       0.585   0.703  -0.302  0.00  0.00     0.076 C 
BRANCH  11  12
HETATM   12  C   UNK N   1       1.821   0.076   0.343  0.00  0.00     0.177 C 
BRANCH  12  13
HETATM   13  N   UNK N   1       2.072  -1.232  -0.244  0.00  0.00    -0.417 N 
HETATM   14  H   UNK N   1       1.366  -1.843  -0.654  0.00  0.00     0.150 HD
HETATM   15  H   UNK N   1       3.036  -1.567  -0.244  0.00  0.00     0.150 HD
ENDBRANCH  12  13
BRANCH  12  16
HETATM   16  C   UNK N   1       3.022   0.961   0.119  0.00  0.00     0.163 C 
HETATM   17  O   UNK N   1       2.889   2.170  -0.004  0.00  0.00    -0.648 OA
BRANCH  16  18
HETATM   18  O   UNK N   1       4.258   0.425   0.070  0.00  0.00    -0.775 OA
HETATM   19  H   UNK N   1       4.364  -0.505   0.037  0.00  0.00     0.167 HD
ENDBRANCH  16  18
ENDBRANCH  12  16
ENDBRANCH  11  12
ENDBRANCH   1  11
BRANCH   9  20
HETATM   20  O   UNK N   1      -4.130   3.436  -0.038  0.00  0.00    -0.361 OA
HETATM   21  H   UNK N   1      -3.507   4.135  -0.058  0.00  0.00     0.217 HD
ENDBRANCH   9  20
TORSDOF 6
