REMARK  8 active torsions:
REMARK  status: ('A' for Active; 'I' for Inactive)
REMARK    1  A    between atoms: O_5  and  C_40 
REMARK    2  A    between atoms: C_20  and  C_18 
REMARK    3  A    between atoms: C_24  and  C_22 
REMARK    4  A    between atoms: C_23  and  C_34 
REMARK    5  A    between atoms: C_25  and  C_28 
REMARK    6  A    between atoms: C_42  and  C_45 
REMARK    7  A    between atoms: C_43  and  C_44 
REMARK    8  A    between atoms: C_50  and  C_51 
ROOT
HETATM    1  O   UNK N   1       5.402  -3.031   0.000  0.00  0.00    -0.353 OA
HETATM    2  O   UNK N   1       5.527   1.564   0.000  0.00  0.00    -0.395 OA
HETATM    3  O   UNK N   1       7.535   2.746   0.000  0.00  0.00    -0.348 OA
HETATM    4  O   UNK N   1       1.792  -1.592   0.000  0.00  0.00    -0.395 OA
HETATM    5  O   UNK N   1       6.831  -3.026  -0.000  0.00  0.00    -0.348 OA
HETATM    6  O   UNK N   1       8.598   3.700  -0.000  0.00  0.00    -0.348 OA
HETATM    7  O   UNK N   1       4.809  -4.681  -0.000  0.00  0.00    -0.388 OA
HETATM    8  O   UNK N   1       6.841  -5.501  -0.000  0.00  0.00    -0.390 OA
HETATM    9  O   UNK N   1       9.237   0.918  -0.000  0.00  0.00    -0.388 OA
HETATM   10  O   UNK N   1       7.667  -4.670   0.000  0.00  0.00    -0.390 OA
HETATM   11  O   UNK N   1      10.851   1.258  -0.000  0.00  0.00    -0.390 OA
HETATM   12  O   UNK N   1      11.364   2.826   0.000  0.00  0.00    -0.390 OA
HETATM   13  O   UNK N   1       8.977  -2.830  -0.000  0.00  0.00    -0.398 OA
HETATM   14  O   UNK N   1       9.711   5.269   0.000  0.00  0.00    -0.398 OA
HETATM   15  C   UNK N   1       6.127  -0.911   0.000  0.00  0.00    -0.029 A 
HETATM   16  C   UNK N   1       6.841  -0.499  -0.000  0.00  0.00    -0.030 A 
HETATM   17  C   UNK N   1       4.812   0.101   0.000  0.00  0.00     0.005 A 
HETATM   18  C   UNK N   1       4.062  -0.317  -0.000  0.00  0.00    -0.033 A 
HETATM   19  C   UNK N   1       6.241   0.326   0.000  0.00  0.00     0.030 A 
HETATM   20  C   UNK N   1       4.055  -1.776   0.000  0.00  0.00     0.033 A 
HETATM   21  C   UNK N   1       5.540  -1.771   0.000  0.00  0.00     0.042 A 
HETATM   22  C   UNK N   1       5.412   0.926   0.000  0.00  0.00     0.038 A 
HETATM   23  C   UNK N   1       7.022   1.177   0.000  0.00  0.00     0.027 A 
HETATM   24  C   UNK N   1       5.527   0.738  -0.000  0.00  0.00     0.123 A 
HETATM   25  C   UNK N   1       7.622  -0.150  -0.000  0.00  0.00     0.011 A 
HETATM   26  C   UNK N   1       5.399  -1.606  -0.000  0.00  0.00     0.131 A 
HETATM   27  C   UNK N   1       3.283  -2.230   0.000  0.00  0.00    -0.015 A 
HETATM   28  C   UNK N   1       7.503  -0.086   0.000  0.00  0.00     0.009 A 
HETATM   29  C   UNK N   1       3.297   0.148  -0.000  0.00  0.00     0.012 A 
HETATM   30  C   UNK N   1       6.057  -1.544  -0.000  0.00  0.00     0.016 A 
HETATM   31  C   UNK N   1       7.124  -0.674   0.000  0.00  0.00     0.016 A 
HETATM   32  C   UNK N   1       4.068  -0.092   0.000  0.00  0.00     0.016 A 
HETATM   33  C   UNK N   1       2.508  -1.782   0.000  0.00  0.00     0.126 A 
HETATM   34  C   UNK N   1       7.278   1.962  -0.000  0.00  0.00     0.065 A 
HETATM   35  C   UNK N   1       2.515  -0.287   0.000  0.00  0.00     0.033 A 
HETATM   36  C   UNK N   1       3.474  -2.946   0.000  0.00  0.00     0.018 A 
HETATM   37  C   UNK N   1       3.699  -2.943  -0.000  0.00  0.00     0.018 A 
HETATM   38  C   UNK N   1       8.062   1.705  -0.000  0.00  0.00     0.042 A 
HETATM   39  C   UNK N   1       7.094   2.218   0.000  0.00  0.00     0.046 A 
HETATM   40  C   UNK N   1       5.519  -3.441  -0.000  0.00  0.00     0.292 A 
HETATM   41  C   UNK N   1       8.233   0.298   0.000  0.00  0.00     0.030 A 
HETATM   42  C   UNK N   1       8.942   2.916  -0.000  0.00  0.00     0.292 A 
HETATM   43  C   UNK N   1       5.522  -4.266  -0.000  0.00  0.00     0.204 A 
HETATM   44  C   UNK N   1       6.238  -4.676   0.000  0.00  0.00     0.183 A 
HETATM   45  C   UNK N   1       9.493   2.302  -0.000  0.00  0.00     0.204 A 
HETATM   46  C   UNK N   1       7.547  -2.835   0.000  0.00  0.00     0.179 A 
HETATM   47  C   UNK N   1       9.617   0.042  -0.000  0.00  0.00    -0.025 A 
HETATM   48  C   UNK N   1       7.551  -4.260   0.000  0.00  0.00     0.180 A 
HETATM   49  C   UNK N   1      10.300   1.872   0.000  0.00  0.00     0.183 A 
HETATM   50  C   UNK N   1      10.006   3.870   0.000  0.00  0.00     0.179 A 
HETATM   51  C   UNK N   1      10.557   3.256   0.000  0.00  0.00     0.180 A 
HETATM   52  C   UNK N   1       8.260  -2.420  -0.000  0.00  0.00     0.198 A 
HETATM   53  C   UNK N   1       9.787  -0.766  -0.000  0.00  0.00    -0.091 A 
HETATM   54  C   UNK N   1       9.662   4.654  -0.000  0.00  0.00     0.198 A 
HETATM   55  C   UNK N   1      10.571  -1.022   0.000  0.00  0.00     0.042 A 
HETATM   56  C   UNK N   1       9.173  -1.317   0.000  0.00  0.00     0.042 A 
HETATM   57  H   UNK N   1       6.367   2.049   0.000  0.00  0.00     0.210 HD
HETATM   58  H   UNK N   1       1.539  -0.656  -0.000  0.00  0.00     0.210 HD
HETATM   59  H   UNK N   1       3.967  -4.199   0.000  0.00  0.00     0.210 HD
HETATM   60  H   UNK N   1       6.449  -6.388  -0.000  0.00  0.00     0.210 HD
HETATM   61  H   UNK N   1       8.322   0.594   0.000  0.00  0.00     0.210 HD
HETATM   62  H   UNK N   1       6.991  -5.366  -0.000  0.00  0.00     0.210 HD
HETATM   63  H   UNK N   1      10.550   0.336  -0.000  0.00  0.00     0.210 HD
HETATM   64  H   UNK N   1      11.397   1.857  -0.000  0.00  0.00     0.210 HD
HETATM   65  H   UNK N   1       8.980  -3.800  -0.000  0.00  0.00     0.209 HD
HETATM   66  H   UNK N   1      10.587   5.685   0.000  0.00  0.00     0.209 HD
ENDROOT
TORSDOF 8
