REMARK  5 active torsions:
REMARK  status: ('A' for Active; 'I' for Inactive)
REMARK    1  A    between atoms: C_4  and  O_20 
REMARK    2  A    between atoms: C_13  and  O_26 
REMARK    3  A    between atoms: C_15  and  O_21 
REMARK    4  A    between atoms: C_17  and  C_27 
REMARK    5  A    between atoms: C_18  and  O_31 
ROOT
HETATM    1  C   UNK N   1       4.519  -9.041  -0.430  0.00  0.00     0.266 A 
HETATM    2  O   UNK N   1       4.801  -9.560   0.773  0.00  0.00    -0.310 OA
HETATM    3  C   UNK N   1       6.038  -9.213   1.248  0.00  0.00     0.200 A 
HETATM    4  C   UNK N   1       6.702  -8.280   0.020  0.00  0.00     0.141 A 
HETATM    5  C   UNK N   1       5.596  -8.220  -1.054  0.00  0.00     0.122 A 
HETATM    6  C   UNK N   1       8.060 -10.780   0.373  0.00  0.00     0.077 A 
HETATM    7  C   UNK N   1       8.054  -9.222  -0.531  0.00  0.00     0.199 A 
HETATM    8  C   UNK N   1       9.595 -11.500  -0.083  0.00  0.00     0.068 C 
HETATM    9  C   UNK N   1      10.090 -10.414  -1.309  0.00  0.00     0.284 C 
HETATM   10  O   UNK N   1       9.193  -9.220  -1.581  0.00  0.00    -0.334 OA
HETATM   11  O   UNK N   1      11.264  -9.893  -0.835  0.00  0.00    -0.287 OA
HETATM   12  C   UNK N   1      11.606 -10.329   0.378  0.00  0.00     0.291 C 
HETATM   13  C   UNK N   1      10.785 -11.433   0.921  0.00  0.00     0.232 C 
HETATM   14  O   UNK N   1       3.441  -9.231  -0.968  0.00  0.00    -0.265 OA
HETATM   15  C   UNK N   1       6.922 -10.552   1.702  0.00  0.00     0.166 C 
HETATM   16  C   UNK N   1       7.229 -11.487  -0.454  0.00  0.00     0.177 A 
HETATM   17  C   UNK N   1       9.212 -12.870  -0.651  0.00  0.00     0.042 C 
HETATM   18  C   UNK N   1       8.006 -12.377  -1.441  0.00  0.00     0.154 C 
HETATM   19  O   UNK N   1      12.607  -9.919   0.945  0.00  0.00    -0.262 OA
HETATM   20  C   UNK N   1       5.089  -6.811  -1.333  0.00  0.00     0.024 C 
HETATM   21  C   UNK N   1       8.579  -9.329   0.460  0.00  0.00     0.298 A 
HETATM   22  O   UNK N   1       7.689 -10.228  -0.509  0.00  0.00    -0.310 OA
HETATM   23  O   UNK N   1       9.281  -8.317   0.625  0.00  0.00    -0.262 OA
ENDROOT
BRANCH  17  24
HETATM   24  C   UNK N   1       8.853 -14.086   0.307  0.00  0.00    -0.044 C 
HETATM   25  C   UNK N   1       9.724 -14.217   1.537  0.00  0.00     0.015 C 
HETATM   26  C   UNK N   1       7.423 -14.119   0.826  0.00  0.00     0.015 C 
HETATM   27  C   UNK N   1       9.068 -15.354  -0.496  0.00  0.00     0.015 C 
ENDBRANCH  17  24
BRANCH  18  28
HETATM   28  O   UNK N   1       7.221 -13.412  -1.956  0.00  0.00    -0.393 OA
HETATM   29  H   UNK N   1       6.326 -13.299  -2.313  0.00  0.00     0.210 HD
ENDBRANCH  18  28
BRANCH  13  30
HETATM   30  O   UNK N   1      11.618 -12.549   0.812  0.00  0.00    -0.385 OA
HETATM   31  H   UNK N   1      11.236 -13.437   0.737  0.00  0.00     0.210 HD
ENDBRANCH  13  30
BRANCH  15  32
HETATM   32  O   UNK N   1       6.139 -11.665   2.034  0.00  0.00    -0.392 OA
HETATM   33  H   UNK N   1       5.201 -11.580   2.264  0.00  0.00     0.210 HD
ENDBRANCH  15  32
BRANCH   4  34
HETATM   34  O   UNK N   1       7.061  -7.006   0.490  0.00  0.00    -0.382 OA
HETATM   35  H   UNK N   1       7.947  -6.781   0.815  0.00  0.00     0.210 HD
ENDBRANCH   4  34
TORSDOF 5
