REMARK  4 active torsions:
REMARK  status: ('A' for Active; 'I' for Inactive)
REMARK    1  A    between atoms: C_4  and  O_20 
REMARK    2  A    between atoms: C_13  and  O_25 
REMARK    3  A    between atoms: C_17  and  C_26 
REMARK    4  A    between atoms: C_18  and  O_30 
ROOT
HETATM    1  C   UNK N   1       5.480  -7.256   0.558  0.00  0.00     0.266 C 
HETATM    2  O   UNK N   1       5.491  -8.508   1.057  0.00  0.00    -0.312 OA
HETATM    3  C   UNK N   1       6.485  -9.255   0.496  0.00  0.00     0.171 C 
HETATM    4  C   UNK N   1       7.230  -8.261  -0.612  0.00  0.00     0.138 C 
HETATM    5  C   UNK N   1       6.686  -6.867  -0.255  0.00  0.00     0.122 C 
HETATM    6  C   UNK N   1       8.873 -10.400   0.313  0.00  0.00     0.051 A 
HETATM    7  C   UNK N   1       8.904  -8.740  -0.593  0.00  0.00     0.196 A 
HETATM    8  C   UNK N   1      10.550 -11.044   0.051  0.00  0.00     0.066 C 
HETATM    9  C   UNK N   1      11.050  -9.915  -1.123  0.00  0.00     0.284 C 
HETATM   10  O   UNK N   1      10.073  -8.817  -1.528  0.00  0.00    -0.334 OA
HETATM   11  O   UNK N   1      12.116  -9.284  -0.541  0.00  0.00    -0.287 OA
HETATM   12  C   UNK N   1      12.389  -9.699   0.698  0.00  0.00     0.291 C 
HETATM   13  C   UNK N   1      11.607 -10.863   1.176  0.00  0.00     0.232 C 
HETATM   14  O   UNK N   1       4.480  -6.559   0.616  0.00  0.00    -0.265 OA
HETATM   15  C   UNK N   1       7.408 -10.310   1.415  0.00  0.00     0.052 C 
HETATM   16  C   UNK N   1       8.209 -11.326  -0.500  0.00  0.00     0.174 A 
HETATM   17  C   UNK N   1      10.310 -12.462  -0.547  0.00  0.00     0.042 C 
HETATM   18  C   UNK N   1       9.131 -12.069  -1.427  0.00  0.00     0.154 C 
HETATM   19  O   UNK N   1      13.308  -9.221   1.342  0.00  0.00    -0.262 OA
HETATM   20  C   UNK N   1       7.583  -6.014   0.622  0.00  0.00     0.024 C 
HETATM   21  C   UNK N   1       9.235  -8.990   0.432  0.00  0.00     0.298 A 
HETATM   22  O   UNK N   1       8.589 -10.051  -0.486  0.00  0.00    -0.310 OA
HETATM   23  O   UNK N   1       8.890  -8.266   1.399  0.00  0.00    -0.262 OA
ENDROOT
BRANCH  17  24
HETATM   24  C   UNK N   1       9.973 -13.654   0.451  0.00  0.00    -0.044 C 
HETATM   25  C   UNK N   1       9.482 -14.880  -0.300  0.00  0.00     0.015 C 
HETATM   26  C   UNK N   1      11.194 -14.154   1.186  0.00  0.00     0.015 C 
HETATM   27  C   UNK N   1       8.930 -13.312   1.503  0.00  0.00     0.015 C 
ENDBRANCH  17  24
BRANCH  18  28
HETATM   28  O   UNK N   1       8.479 -13.127  -2.058  0.00  0.00    -0.393 OA
HETATM   29  H   UNK N   1       7.614 -13.103  -2.497  0.00  0.00     0.210 HD
ENDBRANCH  18  28
BRANCH  13  30
HETATM   30  O   UNK N   1      12.532 -11.906   1.197  0.00  0.00    -0.385 OA
HETATM   31  H   UNK N   1      12.225 -12.826   1.210  0.00  0.00     0.210 HD
ENDBRANCH  13  30
BRANCH   4  32
HETATM   32  O   UNK N   1       6.700  -8.601  -1.859  0.00  0.00    -0.383 OA
HETATM   33  H   UNK N   1       6.312  -8.399  -2.725  0.00  0.00     0.210 HD
ENDBRANCH   4  32
TORSDOF 4
