REMARK  7 active torsions:
REMARK  status: ('A' for Active; 'I' for Inactive)
REMARK    1  A    between atoms: S_1  and  C_9 
REMARK    2  A    between atoms: S_1  and  C_10 
REMARK    3  A    between atoms: N_4  and  C_12 
REMARK    4  A    between atoms: N_4  and  C_15 
REMARK    5  A    between atoms: N_7  and  C_15 
REMARK    6  A    between atoms: C_8  and  C_9 
REMARK    7  A    between atoms: C_10  and  C_12 
ROOT
HETATM    1  S   UNK N   1       2.844  -0.465  -0.850  0.00  0.00    -0.161 SA
ENDROOT
BRANCH   1   2
HETATM    2  C   UNK N   1       2.779  -1.529   0.621  0.00  0.00     0.133 C 
BRANCH   2   3
HETATM    3  C   UNK N   1       2.223  -2.856   0.261  0.00  0.00     0.041 A 
HETATM    4  N   UNK N   1       0.911  -3.110   0.111  0.00  0.00    -0.353 N 
HETATM    5  C   UNK N   1       0.838  -4.419  -0.209  0.00  0.00     0.180 A 
ATOM      6  HN  UNK N   1       0.137  -2.454   0.215  1.00  0.00     0.166 HD
HETATM    7  N   UNK N   1       2.065  -4.994  -0.265  0.00  0.00    -0.354 N 
HETATM    8  C   UNK N   1       2.923  -4.010   0.031  0.00  0.00     0.029 A 
HETATM    9  H   UNK N   1       2.279  -5.931  -0.478  0.00  0.00     0.166 HD
HETATM   10  C   UNK N   1       4.404  -4.175   0.080  0.00  0.00     0.070 C 
ENDBRANCH   2   3
ENDBRANCH   1   2
BRANCH   1  11
HETATM   11  C   UNK N   1       4.551   0.027  -0.478  0.00  0.00     0.093 C 
BRANCH  11  12
HETATM   12  C   UNK N   1       4.526   1.063   0.628  0.00  0.00     0.132 C 
BRANCH  12  13
HETATM   13  N   UNK N   1       4.703   2.391   0.090  0.00  0.00    -0.367 N 
HETATM   14  H   UNK N   1       5.586   2.630  -0.273  0.00  0.00     0.161 HD
BRANCH  13  15
HETATM   15  C   UNK N   1       3.672   3.375   0.055  0.00  0.00     0.167 C 
HETATM   16  S   UNK N   1       2.288   3.007   0.268  0.00  0.00    -0.041 SA
BRANCH  15  17
HETATM   17  N   UNK N   1       4.039   4.730  -0.188  0.00  0.00    -0.372 N 
HETATM   18  C   UNK N   1       3.107   5.833  -0.155  0.00  0.00     0.148 C 
HETATM   19  H   UNK N   1       4.982   4.926  -0.391  0.00  0.00     0.161 HD
ENDBRANCH  15  17
ENDBRANCH  13  15
ENDBRANCH  12  13
ENDBRANCH  11  12
ENDBRANCH   1  11
TORSDOF 7
