MODEL 1
REMARK VINA RESULT:      -4.4      0.000      0.000
REMARK  7 active torsions:
REMARK  status: ('A' for Active; 'I' for Inactive)
REMARK    1  A    between atoms: S_1  and  C_9 
REMARK    2  A    between atoms: S_1  and  C_10 
REMARK    3  A    between atoms: N_4  and  C_12 
REMARK    4  A    between atoms: N_4  and  C_15 
REMARK    5  A    between atoms: N_7  and  C_15 
REMARK    6  A    between atoms: C_8  and  C_9 
REMARK    7  A    between atoms: C_10  and  C_12 
ROOT
HETATM    1  S   UNK N   1      31.014  16.968   5.927  0.00  0.00    -0.161 SA
ENDROOT
BRANCH   1   2
HETATM    2  C   UNK N   1      29.332  16.648   6.535  0.00  0.00     0.133 C 
BRANCH   2   3
HETATM    3  C   UNK N   1      28.586  17.925   6.653  0.00  0.00     0.041 A 
HETATM    4  N   UNK N   1      28.280  18.720   5.613  0.00  0.00    -0.353 N 
HETATM    5  C   UNK N   1      27.611  19.763   6.149  0.00  0.00     0.180 A 
ATOM      6  HN  UNK N   1      28.503  18.568   4.630  1.00  0.00     0.166 HD
HETATM    7  N   UNK N   1      27.488  19.645   7.495  0.00  0.00    -0.354 N 
HETATM    8  C   UNK N   1      28.101  18.495   7.800  0.00  0.00     0.029 A 
HETATM    9  H   UNK N   1      27.044  20.269   8.113  0.00  0.00     0.166 HD
HETATM   10  C   UNK N   1      28.208  17.942   9.180  0.00  0.00     0.070 C 
ENDBRANCH   2   3
ENDBRANCH   1   2
BRANCH   1  11
HETATM   11  C   UNK N   1      31.713  15.749   7.076  0.00  0.00     0.093 C 
BRANCH  11  12
HETATM   12  C   UNK N   1      31.409  16.191   8.493  0.00  0.00     0.132 C 
BRANCH  12  13
HETATM   13  N   UNK N   1      32.216  17.331   8.859  0.00  0.00    -0.367 N 
HETATM   14  H   UNK N   1      31.757  18.181   9.048  0.00  0.00     0.161 HD
BRANCH  13  15
HETATM   15  C   UNK N   1      33.637  17.295   8.961  0.00  0.00     0.167 C 
HETATM   16  S   UNK N   1      34.461  18.156   8.139  0.00  0.00    -0.041 SA
BRANCH  15  17
HETATM   17  N   UNK N   1      34.225  16.396   9.897  0.00  0.00    -0.372 N 
HETATM   18  C   UNK N   1      35.410  16.699  10.666  0.00  0.00     0.148 C 
HETATM   19  H   UNK N   1      33.801  15.518  10.026  0.00  0.00     0.161 HD
ENDBRANCH  15  17
ENDBRANCH  13  15
ENDBRANCH  12  13
ENDBRANCH  11  12
ENDBRANCH   1  11
TORSDOF 7
ENDMDL
MODEL 2
REMARK VINA RESULT:      -4.3      1.125      1.755
REMARK  7 active torsions:
REMARK  status: ('A' for Active; 'I' for Inactive)
REMARK    1  A    between atoms: S_1  and  C_9 
REMARK    2  A    between atoms: S_1  and  C_10 
REMARK    3  A    between atoms: N_4  and  C_12 
REMARK    4  A    between atoms: N_4  and  C_15 
REMARK    5  A    between atoms: N_7  and  C_15 
REMARK    6  A    between atoms: C_8  and  C_9 
REMARK    7  A    between atoms: C_10  and  C_12 
ROOT
HETATM    1  S   UNK N   1      30.141  15.687   6.150  0.00  0.00    -0.161 SA
ENDROOT
BRANCH   1   2
HETATM    2  C   UNK N   1      29.812  17.473   6.105  0.00  0.00     0.133 C 
BRANCH   2   3
HETATM    3  C   UNK N   1      29.004  17.867   7.285  0.00  0.00     0.041 A 
HETATM    4  N   UNK N   1      29.045  17.239   8.473  0.00  0.00    -0.353 N 
HETATM    5  C   UNK N   1      28.169  17.903   9.256  0.00  0.00     0.180 A 
ATOM      6  HN  UNK N   1      29.616  16.433   8.729  1.00  0.00     0.166 HD
HETATM    7  N   UNK N   1      27.581  18.931   8.594  0.00  0.00    -0.354 N 
HETATM    8  C   UNK N   1      28.108  18.899   7.364  0.00  0.00     0.029 A 
HETATM    9  H   UNK N   1      26.912  19.563   8.943  0.00  0.00     0.166 HD
HETATM   10  C   UNK N   1      27.763  19.861   6.279  0.00  0.00     0.070 C 
ENDBRANCH   2   3
ENDBRANCH   1   2
BRANCH   1  11
HETATM   11  C   UNK N   1      31.900  15.970   6.499  0.00  0.00     0.093 C 
BRANCH  11  12
HETATM   12  C   UNK N   1      32.168  15.618   7.948  0.00  0.00     0.132 C 
BRANCH  12  13
HETATM   13  N   UNK N   1      32.445  16.805   8.722  0.00  0.00    -0.367 N 
HETATM   14  H   UNK N   1      31.683  17.295   9.107  0.00  0.00     0.161 HD
BRANCH  13  15
HETATM   15  C   UNK N   1      33.758  17.308   8.958  0.00  0.00     0.167 C 
HETATM   16  S   UNK N   1      34.369  18.246   8.041  0.00  0.00    -0.041 SA
BRANCH  15  17
HETATM   17  N   UNK N   1      34.450  16.868  10.124  0.00  0.00    -0.372 N 
HETATM   18  C   UNK N   1      35.517  15.895  10.105  0.00  0.00     0.148 C 
HETATM   19  H   UNK N   1      34.184  17.249  10.992  0.00  0.00     0.161 HD
ENDBRANCH  15  17
ENDBRANCH  13  15
ENDBRANCH  12  13
ENDBRANCH  11  12
ENDBRANCH   1  11
TORSDOF 7
ENDMDL
MODEL 3
REMARK VINA RESULT:      -4.3      3.190      5.223
REMARK  7 active torsions:
REMARK  status: ('A' for Active; 'I' for Inactive)
REMARK    1  A    between atoms: S_1  and  C_9 
REMARK    2  A    between atoms: S_1  and  C_10 
REMARK    3  A    between atoms: N_4  and  C_12 
REMARK    4  A    between atoms: N_4  and  C_15 
REMARK    5  A    between atoms: N_7  and  C_15 
REMARK    6  A    between atoms: C_8  and  C_9 
REMARK    7  A    between atoms: C_10  and  C_12 
ROOT
HETATM    1  S   UNK N   1      34.885  15.612   8.688  0.00  0.00    -0.161 SA
ENDROOT
BRANCH   1   2
HETATM    2  C   UNK N   1      34.163  17.279   8.714  0.00  0.00     0.133 C 
BRANCH   2   3
HETATM    3  C   UNK N   1      32.763  17.231   8.227  0.00  0.00     0.041 A 
HETATM    4  N   UNK N   1      31.688  17.117   9.027  0.00  0.00    -0.353 N 
HETATM    5  C   UNK N   1      30.626  17.108   8.195  0.00  0.00     0.180 A 
ATOM      6  HN  UNK N   1      31.677  17.052  10.045  1.00  0.00     0.166 HD
HETATM    7  N   UNK N   1      31.002  17.215   6.896  0.00  0.00    -0.354 N 
HETATM    8  C   UNK N   1      32.338  17.290   6.927  0.00  0.00     0.029 A 
HETATM    9  H   UNK N   1      30.419  17.234   6.103  0.00  0.00     0.166 HD
HETATM   10  C   UNK N   1      33.198  17.429   5.717  0.00  0.00     0.070 C 
ENDBRANCH   2   3
ENDBRANCH   1   2
BRANCH   1  11
HETATM   11  C   UNK N   1      34.724  15.462  10.489  0.00  0.00     0.093 C 
BRANCH  11  12
HETATM   12  C   UNK N   1      36.003  15.962  11.132  0.00  0.00     0.132 C 
BRANCH  12  13
HETATM   13  N   UNK N   1      36.180  15.377  12.441  0.00  0.00    -0.367 N 
HETATM   14  H   UNK N   1      36.165  15.977  13.221  0.00  0.00     0.161 HD
BRANCH  13  15
HETATM   15  C   UNK N   1      36.374  13.983  12.666  0.00  0.00     0.167 C 
HETATM   16  S   UNK N   1      35.471  13.236  13.515  0.00  0.00    -0.041 SA
BRANCH  15  17
HETATM   17  N   UNK N   1      37.476  13.343  12.028  0.00  0.00    -0.372 N 
HETATM   18  C   UNK N   1      37.344  12.458  10.895  0.00  0.00     0.148 C 
HETATM   19  H   UNK N   1      38.379  13.513  12.381  0.00  0.00     0.161 HD
ENDBRANCH  15  17
ENDBRANCH  13  15
ENDBRANCH  12  13
ENDBRANCH  11  12
ENDBRANCH   1  11
TORSDOF 7
ENDMDL
MODEL 4
REMARK VINA RESULT:      -4.2      4.379      9.074
REMARK  7 active torsions:
REMARK  status: ('A' for Active; 'I' for Inactive)
REMARK    1  A    between atoms: S_1  and  C_9 
REMARK    2  A    between atoms: S_1  and  C_10 
REMARK    3  A    between atoms: N_4  and  C_12 
REMARK    4  A    between atoms: N_4  and  C_15 
REMARK    5  A    between atoms: N_7  and  C_15 
REMARK    6  A    between atoms: C_8  and  C_9 
REMARK    7  A    between atoms: C_10  and  C_12 
ROOT
HETATM    1  S   UNK N   1      36.400  13.825  11.787  0.00  0.00    -0.161 SA
ENDROOT
BRANCH   1   2
HETATM    2  C   UNK N   1      35.617  13.181  13.294  0.00  0.00     0.133 C 
BRANCH   2   3
HETATM    3  C   UNK N   1      36.167  13.872  14.485  0.00  0.00     0.041 A 
HETATM    4  N   UNK N   1      37.003  14.924  14.429  0.00  0.00    -0.353 N 
HETATM    5  C   UNK N   1      37.259  15.241  15.716  0.00  0.00     0.180 A 
ATOM      6  HN  UNK N   1      37.364  15.385  13.594  1.00  0.00     0.166 HD
HETATM    7  N   UNK N   1      36.609  14.420  16.577  0.00  0.00    -0.354 N 
HETATM    8  C   UNK N   1      35.931  13.568  15.799  0.00  0.00     0.029 A 
HETATM    9  H   UNK N   1      36.631  14.445  17.561  0.00  0.00     0.166 HD
HETATM   10  C   UNK N   1      35.053  12.479  16.314  0.00  0.00     0.070 C 
ENDBRANCH   2   3
ENDBRANCH   1   2
BRANCH   1  11
HETATM   11  C   UNK N   1      35.027  14.979  11.508  0.00  0.00     0.093 C 
BRANCH  11  12
HETATM   12  C   UNK N   1      35.546  16.170  10.728  0.00  0.00     0.132 C 
BRANCH  12  13
HETATM   13  N   UNK N   1      35.013  16.175   9.386  0.00  0.00    -0.367 N 
HETATM   14  H   UNK N   1      35.330  15.487   8.759  0.00  0.00     0.161 HD
BRANCH  13  15
HETATM   15  C   UNK N   1      34.053  17.120   8.919  0.00  0.00     0.167 C 
HETATM   16  S   UNK N   1      34.459  18.252   8.112  0.00  0.00    -0.041 SA
BRANCH  15  17
HETATM   17  N   UNK N   1      32.685  16.919   9.261  0.00  0.00    -0.372 N 
HETATM   18  C   UNK N   1      31.579  17.402   8.466  0.00  0.00     0.148 C 
HETATM   19  H   UNK N   1      32.480  16.424  10.086  0.00  0.00     0.161 HD
ENDBRANCH  15  17
ENDBRANCH  13  15
ENDBRANCH  12  13
ENDBRANCH  11  12
ENDBRANCH   1  11
TORSDOF 7
ENDMDL
MODEL 5
REMARK VINA RESULT:      -4.2      8.182     10.506
REMARK  7 active torsions:
REMARK  status: ('A' for Active; 'I' for Inactive)
REMARK    1  A    between atoms: S_1  and  C_9 
REMARK    2  A    between atoms: S_1  and  C_10 
REMARK    3  A    between atoms: N_4  and  C_12 
REMARK    4  A    between atoms: N_4  and  C_15 
REMARK    5  A    between atoms: N_7  and  C_15 
REMARK    6  A    between atoms: C_8  and  C_9 
REMARK    7  A    between atoms: C_10  and  C_12 
ROOT
HETATM    1  S   UNK N   1      20.756  14.247   9.390  0.00  0.00    -0.161 SA
ENDROOT
BRANCH   1   2
HETATM    2  C   UNK N   1      21.508  12.597   9.283  0.00  0.00     0.133 C 
BRANCH   2   3
HETATM    3  C   UNK N   1      22.393  12.368  10.451  0.00  0.00     0.041 A 
HETATM    4  N   UNK N   1      21.967  11.925  11.647  0.00  0.00    -0.353 N 
HETATM    5  C   UNK N   1      23.075  11.860  12.416  0.00  0.00     0.180 A 
ATOM      6  HN  UNK N   1      21.013  11.686  11.915  1.00  0.00     0.166 HD
HETATM    7  N   UNK N   1      24.183  12.249  11.738  0.00  0.00    -0.354 N 
HETATM    8  C   UNK N   1      23.747  12.566  10.512  0.00  0.00     0.029 A 
HETATM    9  H   UNK N   1      25.108  12.290  12.073  0.00  0.00     0.166 HD
HETATM   10  C   UNK N   1      24.626  13.042   9.406  0.00  0.00     0.070 C 
ENDBRANCH   2   3
ENDBRANCH   1   2
BRANCH   1  11
HETATM   11  C   UNK N   1      20.663  14.374   7.582  0.00  0.00     0.093 C 
BRANCH  11  12
HETATM   12  C   UNK N   1      22.038  14.727   7.050  0.00  0.00     0.132 C 
BRANCH  12  13
HETATM   13  N   UNK N   1      22.129  16.139   6.763  0.00  0.00    -0.367 N 
HETATM   14  H   UNK N   1      21.841  16.773   7.458  0.00  0.00     0.161 HD
BRANCH  13  15
HETATM   15  C   UNK N   1      22.613  16.666   5.530  0.00  0.00     0.167 C 
HETATM   16  S   UNK N   1      22.029  16.259   4.269  0.00  0.00    -0.041 SA
BRANCH  15  17
HETATM   17  N   UNK N   1      23.681  17.608   5.571  0.00  0.00    -0.372 N 
HETATM   18  C   UNK N   1      23.908  18.610   4.555  0.00  0.00     0.148 C 
HETATM   19  H   UNK N   1      24.301  17.575   6.335  0.00  0.00     0.161 HD
ENDBRANCH  15  17
ENDBRANCH  13  15
ENDBRANCH  12  13
ENDBRANCH  11  12
ENDBRANCH   1  11
TORSDOF 7
ENDMDL
MODEL 6
REMARK VINA RESULT:      -4.2      3.676      5.753
REMARK  7 active torsions:
REMARK  status: ('A' for Active; 'I' for Inactive)
REMARK    1  A    between atoms: S_1  and  C_9 
REMARK    2  A    between atoms: S_1  and  C_10 
REMARK    3  A    between atoms: N_4  and  C_12 
REMARK    4  A    between atoms: N_4  and  C_15 
REMARK    5  A    between atoms: N_7  and  C_15 
REMARK    6  A    between atoms: C_8  and  C_9 
REMARK    7  A    between atoms: C_10  and  C_12 
ROOT
HETATM    1  S   UNK N   1      34.440  15.402   9.863  0.00  0.00    -0.161 SA
ENDROOT
BRANCH   1   2
HETATM    2  C   UNK N   1      34.263  17.036   9.088  0.00  0.00     0.133 C 
BRANCH   2   3
HETATM    3  C   UNK N   1      32.927  17.153   8.456  0.00  0.00     0.041 A 
HETATM    4  N   UNK N   1      31.765  17.111   9.133  0.00  0.00    -0.353 N 
HETATM    5  C   UNK N   1      30.804  17.250   8.196  0.00  0.00     0.180 A 
ATOM      6  HN  UNK N   1      31.638  16.999  10.139  1.00  0.00     0.166 HD
HETATM    7  N   UNK N   1      31.327  17.379   6.951  0.00  0.00    -0.354 N 
HETATM    8  C   UNK N   1      32.653  17.317   7.125  0.00  0.00     0.029 A 
HETATM    9  H   UNK N   1      30.839  17.495   6.105  0.00  0.00     0.166 HD
HETATM   10  C   UNK N   1      33.650  17.425   6.021  0.00  0.00     0.070 C 
ENDBRANCH   2   3
ENDBRANCH   1   2
BRANCH   1  11
HETATM   11  C   UNK N   1      35.903  15.947  10.789  0.00  0.00     0.093 C 
BRANCH  11  12
HETATM   12  C   UNK N   1      35.823  15.386  12.195  0.00  0.00     0.132 C 
BRANCH  12  13
HETATM   13  N   UNK N   1      36.821  14.363  12.396  0.00  0.00    -0.367 N 
HETATM   14  H   UNK N   1      37.692  14.470  11.949  0.00  0.00     0.161 HD
BRANCH  13  15
HETATM   15  C   UNK N   1      36.618  13.206  13.204  0.00  0.00     0.167 C 
HETATM   16  S   UNK N   1      35.902  12.058  12.690  0.00  0.00    -0.041 SA
BRANCH  15  17
HETATM   17  N   UNK N   1      37.144  13.207  14.528  0.00  0.00    -0.372 N 
HETATM   18  C   UNK N   1      36.979  14.299  15.458  0.00  0.00     0.148 C 
HETATM   19  H   UNK N   1      37.650  12.417  14.827  0.00  0.00     0.161 HD
ENDBRANCH  15  17
ENDBRANCH  13  15
ENDBRANCH  12  13
ENDBRANCH  11  12
ENDBRANCH   1  11
TORSDOF 7
ENDMDL
MODEL 7
REMARK VINA RESULT:      -4.2      1.781      6.780
REMARK  7 active torsions:
REMARK  status: ('A' for Active; 'I' for Inactive)
REMARK    1  A    between atoms: S_1  and  C_9 
REMARK    2  A    between atoms: S_1  and  C_10 
REMARK    3  A    between atoms: N_4  and  C_12 
REMARK    4  A    between atoms: N_4  and  C_15 
REMARK    5  A    between atoms: N_7  and  C_15 
REMARK    6  A    between atoms: C_8  and  C_9 
REMARK    7  A    between atoms: C_10  and  C_12 
ROOT
HETATM    1  S   UNK N   1      30.924  17.101   8.631  0.00  0.00    -0.161 SA
ENDROOT
BRANCH   1   2
HETATM    2  C   UNK N   1      32.327  16.030   8.198  0.00  0.00     0.133 C 
BRANCH   2   3
HETATM    3  C   UNK N   1      33.443  16.250   9.150  0.00  0.00     0.041 A 
HETATM    4  N   UNK N   1      33.702  15.459  10.206  0.00  0.00    -0.353 N 
HETATM    5  C   UNK N   1      34.783  16.006  10.801  0.00  0.00     0.180 A 
ATOM      6  HN  UNK N   1      33.192  14.625  10.495  1.00  0.00     0.166 HD
HETATM    7  N   UNK N   1      35.211  17.115  10.149  0.00  0.00    -0.354 N 
HETATM    8  C   UNK N   1      34.367  17.260   9.120  0.00  0.00     0.029 A 
HETATM    9  H   UNK N   1      35.976  17.689  10.381  0.00  0.00     0.166 HD
HETATM   10  C   UNK N   1      34.456  18.352   8.110  0.00  0.00     0.070 C 
ENDBRANCH   2   3
ENDBRANCH   1   2
BRANCH   1  11
HETATM   11  C   UNK N   1      30.115  16.765   7.042  0.00  0.00     0.093 C 
BRANCH  11  12
HETATM   12  C   UNK N   1      28.655  17.158   7.149  0.00  0.00     0.132 C 
BRANCH  12  13
HETATM   13  N   UNK N   1      28.507  18.593   7.108  0.00  0.00    -0.367 N 
HETATM   14  H   UNK N   1      28.998  19.129   7.771  0.00  0.00     0.161 HD
BRANCH  13  15
HETATM   15  C   UNK N   1      27.690  19.278   6.161  0.00  0.00     0.167 C 
HETATM   16  S   UNK N   1      28.005  19.245   4.748  0.00  0.00    -0.041 SA
BRANCH  15  17
HETATM   17  N   UNK N   1      26.552  19.989   6.640  0.00  0.00    -0.372 N 
HETATM   18  C   UNK N   1      26.499  21.426   6.770  0.00  0.00     0.148 C 
HETATM   19  H   UNK N   1      25.755  19.471   6.897  0.00  0.00     0.161 HD
ENDBRANCH  15  17
ENDBRANCH  13  15
ENDBRANCH  12  13
ENDBRANCH  11  12
ENDBRANCH   1  11
TORSDOF 7
ENDMDL
MODEL 8
REMARK VINA RESULT:      -4.1      2.760      4.026
REMARK  7 active torsions:
REMARK  status: ('A' for Active; 'I' for Inactive)
REMARK    1  A    between atoms: S_1  and  C_9 
REMARK    2  A    between atoms: S_1  and  C_10 
REMARK    3  A    between atoms: N_4  and  C_12 
REMARK    4  A    between atoms: N_4  and  C_15 
REMARK    5  A    between atoms: N_7  and  C_15 
REMARK    6  A    between atoms: C_8  and  C_9 
REMARK    7  A    between atoms: C_10  and  C_12 
ROOT
HETATM    1  S   UNK N   1      33.419  16.061   9.052  0.00  0.00    -0.161 SA
ENDROOT
BRANCH   1   2
HETATM    2  C   UNK N   1      32.747  17.567   8.290  0.00  0.00     0.133 C 
BRANCH   2   3
HETATM    3  C   UNK N   1      31.391  17.300   7.752  0.00  0.00     0.041 A 
HETATM    4  N   UNK N   1      31.144  16.556   6.659  0.00  0.00    -0.353 N 
HETATM    5  C   UNK N   1      29.802  16.568   6.518  0.00  0.00     0.180 A 
ATOM      6  HN  UNK N   1      31.825  16.082   6.066  1.00  0.00     0.166 HD
HETATM    7  N   UNK N   1      29.199  17.298   7.489  0.00  0.00    -0.354 N 
HETATM    8  C   UNK N   1      30.200  17.751   8.254  0.00  0.00     0.029 A 
HETATM    9  H   UNK N   1      28.235  17.458   7.607  0.00  0.00     0.166 HD
HETATM   10  C   UNK N   1      30.011  18.601   9.465  0.00  0.00     0.070 C 
ENDBRANCH   2   3
ENDBRANCH   1   2
BRANCH   1  11
HETATM   11  C   UNK N   1      34.919  16.937   9.576  0.00  0.00     0.093 C 
BRANCH  11  12
HETATM   12  C   UNK N   1      35.292  16.468  10.968  0.00  0.00     0.132 C 
BRANCH  12  13
HETATM   13  N   UNK N   1      36.497  15.674  10.935  0.00  0.00    -0.367 N 
HETATM   14  H   UNK N   1      37.344  16.127  10.721  0.00  0.00     0.161 HD
BRANCH  13  15
HETATM   15  C   UNK N   1      36.530  14.273  11.195  0.00  0.00     0.167 C 
HETATM   16  S   UNK N   1      36.119  13.321  10.184  0.00  0.00    -0.041 SA
BRANCH  15  17
HETATM   17  N   UNK N   1      36.984  13.833  12.472  0.00  0.00    -0.372 N 
HETATM   18  C   UNK N   1      36.254  14.045  13.701  0.00  0.00     0.148 C 
HETATM   19  H   UNK N   1      37.844  13.357  12.520  0.00  0.00     0.161 HD
ENDBRANCH  15  17
ENDBRANCH  13  15
ENDBRANCH  12  13
ENDBRANCH  11  12
ENDBRANCH   1  11
TORSDOF 7
ENDMDL
MODEL 9
REMARK VINA RESULT:      -4.0      2.676      3.634
REMARK  7 active torsions:
REMARK  status: ('A' for Active; 'I' for Inactive)
REMARK    1  A    between atoms: S_1  and  C_9 
REMARK    2  A    between atoms: S_1  and  C_10 
REMARK    3  A    between atoms: N_4  and  C_12 
REMARK    4  A    between atoms: N_4  and  C_15 
REMARK    5  A    between atoms: N_7  and  C_15 
REMARK    6  A    between atoms: C_8  and  C_9 
REMARK    7  A    between atoms: C_10  and  C_12 
ROOT
HETATM    1  S   UNK N   1      32.368  15.303   9.008  0.00  0.00    -0.161 SA
ENDROOT
BRANCH   1   2
HETATM    2  C   UNK N   1      31.491  16.174   7.677  0.00  0.00     0.133 C 
BRANCH   2   3
HETATM    3  C   UNK N   1      30.559  17.173   8.254  0.00  0.00     0.041 A 
HETATM    4  N   UNK N   1      30.763  17.810   9.420  0.00  0.00    -0.353 N 
HETATM    5  C   UNK N   1      29.692  18.617   9.575  0.00  0.00     0.180 A 
ATOM      6  HN  UNK N   1      31.557  17.707  10.052  1.00  0.00     0.166 HD
HETATM    7  N   UNK N   1      28.823  18.505   8.540  0.00  0.00    -0.354 N 
HETATM    8  C   UNK N   1      29.373  17.601   7.721  0.00  0.00     0.029 A 
HETATM    9  H   UNK N   1      27.973  18.986   8.416  0.00  0.00     0.166 HD
HETATM   10  C   UNK N   1      28.769  17.160   6.431  0.00  0.00     0.070 C 
ENDBRANCH   2   3
ENDBRANCH   1   2
BRANCH   1  11
HETATM   11  C   UNK N   1      33.933  16.115   8.574  0.00  0.00     0.093 C 
BRANCH  11  12
HETATM   12  C   UNK N   1      34.752  16.292   9.837  0.00  0.00     0.132 C 
BRANCH  12  13
HETATM   13  N   UNK N   1      34.178  15.543  10.929  0.00  0.00    -0.367 N 
HETATM   14  H   UNK N   1      33.277  15.791  11.238  0.00  0.00     0.161 HD
BRANCH  13  15
HETATM   15  C   UNK N   1      34.843  14.466  11.586  0.00  0.00     0.167 C 
HETATM   16  S   UNK N   1      35.959  14.714  12.474  0.00  0.00    -0.041 SA
BRANCH  15  17
HETATM   17  N   UNK N   1      34.376  13.140  11.351  0.00  0.00    -0.372 N 
HETATM   18  C   UNK N   1      35.197  11.962  11.496  0.00  0.00     0.148 C 
HETATM   19  H   UNK N   1      33.439  13.021  11.073  0.00  0.00     0.161 HD
ENDBRANCH  15  17
ENDBRANCH  13  15
ENDBRANCH  12  13
ENDBRANCH  11  12
ENDBRANCH   1  11
TORSDOF 7
ENDMDL
