REMARK  4 active torsions:
REMARK  status: ('A' for Active; 'I' for Inactive)
REMARK    1  A    between atoms: O_1  and  C_18 
REMARK       I    between atoms: N_6  and  C_26 
REMARK    2  A    between atoms: C_10  and  C_13 
REMARK    3  A    between atoms: C_14  and  C_16 
REMARK    4  A    between atoms: C_21  and  C_26 
ROOT
HETATM    1  N   UNK N   1       7.935  -3.669  -0.269  0.00  0.00    -0.351 N 
HETATM    2  N   UNK N   1       5.547  -4.080  -0.150  0.00  0.00    -0.351 N 
ATOM      3  HN  UNK N   1       5.640  -5.093  -0.217  1.00  0.00     0.166 HD
HETATM    4  C   UNK N   1       6.566  -1.940  -0.044  0.00  0.00     0.021 A 
HETATM    5  C   UNK N   1       7.832  -1.410  -0.098  0.00  0.00     0.006 A 
HETATM    6  C   UNK N   1       6.657  -3.281  -0.148  0.00  0.00     0.116 A 
HETATM    7  C   UNK N   1       5.356  -1.323   0.061  0.00  0.00     0.030 A 
HETATM    8  C   UNK N   1       4.187  -2.082   0.048  0.00  0.00    -0.008 A 
HETATM    9  C   UNK N   1       8.674  -2.519  -0.247  0.00  0.00     0.103 A 
HETATM   10  C   UNK N   1       4.301  -3.496  -0.058  0.00  0.00     0.102 A 
HETATM   11  H   UNK N   1       8.272  -4.591  -0.355  0.00  0.00     0.166 HD
ENDROOT
BRANCH   8  12
HETATM   12  C   UNK N   1       2.920  -1.320   0.080  0.00  0.00    -0.008 A 
HETATM   13  C   UNK N   1       3.018   0.070   0.150  0.00  0.00     0.032 A 
HETATM   14  C   UNK N   1       1.914   0.900   0.120  0.00  0.00     0.048 A 
HETATM   15  C   UNK N   1       0.654   0.290   0.019  0.00  0.00     0.104 A 
HETATM   16  N   UNK N   1       0.549  -1.073  -0.041  0.00  0.00    -0.373 N 
HETATM   17  C   UNK N   1       1.648  -1.887  -0.018  0.00  0.00     0.100 A 
ATOM     18  HN  UNK N   1      -0.377  -1.495  -0.104  1.00  0.00     0.164 HD
BRANCH  14  19
HETATM   19  C   UNK N   1       2.174   2.378   0.180  0.00  0.00     0.254 C 
HETATM   20  O   UNK N   1       3.339   2.742   0.301  0.00  0.00    -0.267 OA
HETATM   21  N   UNK N   1       1.195   3.331   0.097  0.00  0.00    -0.357 N 
HETATM   22  C   UNK N   1       1.551   4.729   0.154  0.00  0.00     0.152 C 
HETATM   23  C   UNK N   1      -0.197   3.004  -0.062  0.00  0.00     0.152 C 
ENDBRANCH  14  19
ENDBRANCH   8  12
BRANCH   5  24
HETATM   24  C   UNK N   1       8.132   0.072  -0.063  0.00  0.00     0.010 A 
HETATM   25  C   UNK N   1       9.433   0.668  -0.129  0.00  0.00     0.079 A 
HETATM   26  C   UNK N   1       9.543   2.067  -0.183  0.00  0.00     0.037 A 
HETATM   27  C   UNK N   1       8.420   2.890  -0.140  0.00  0.00     0.003 A 
HETATM   28  C   UNK N   1       7.157   2.327  -0.045  0.00  0.00     0.001 A 
HETATM   29  C   UNK N   1       7.022   0.944  -0.017  0.00  0.00     0.015 A 
BRANCH  25  30
HETATM   30  O   UNK N   1      10.590  -0.031  -0.147  0.00  0.00    -0.355 OA
HETATM   31  C   UNK N   1      10.872  -1.056   0.720  0.00  0.00     0.210 C 
ENDBRANCH  25  30
ENDBRANCH   5  24
TORSDOF 4
