MODEL 1
REMARK VINA RESULT:      -8.1      0.000      0.000
REMARK  4 active torsions:
REMARK  status: ('A' for Active; 'I' for Inactive)
REMARK    1  A    between atoms: O_1  and  C_18 
REMARK       I    between atoms: N_6  and  C_26 
REMARK    2  A    between atoms: C_10  and  C_13 
REMARK    3  A    between atoms: C_14  and  C_16 
REMARK    4  A    between atoms: C_21  and  C_26 
ROOT
HETATM    1  N   UNK N   1      37.858  10.740  13.352  0.00  0.00    -0.351 N 
HETATM    2  N   UNK N   1      37.334  11.604  11.147  0.00  0.00    -0.351 N 
ATOM      3  HN  UNK N   1      37.705  10.791  10.656  1.00  0.00     0.166 HD
HETATM    4  C   UNK N   1      36.853  12.709  13.190  0.00  0.00     0.021 A 
HETATM    5  C   UNK N   1      37.034  12.491  14.534  0.00  0.00     0.006 A 
HETATM    6  C   UNK N   1      37.351  11.655  12.513  0.00  0.00     0.116 A 
HETATM    7  C   UNK N   1      36.311  13.773  12.535  0.00  0.00     0.030 A 
HETATM    8  C   UNK N   1      36.279  13.787  11.142  0.00  0.00    -0.008 A 
HETATM    9  C   UNK N   1      37.675  11.248  14.608  0.00  0.00     0.103 A 
HETATM   10  C   UNK N   1      36.805  12.665  10.443  0.00  0.00     0.102 A 
HETATM   11  H   UNK N   1      38.275   9.879  13.114  0.00  0.00     0.166 HD
ENDROOT
BRANCH   8  12
HETATM   12  C   UNK N   1      35.751  15.020  10.519  0.00  0.00    -0.008 A 
HETATM   13  C   UNK N   1      35.353  14.935   9.184  0.00  0.00     0.032 A 
HETATM   14  C   UNK N   1      34.782  15.995   8.505  0.00  0.00     0.048 A 
HETATM   15  C   UNK N   1      34.614  17.195   9.213  0.00  0.00     0.104 A 
HETATM   16  N   UNK N   1      35.011  17.289  10.519  0.00  0.00    -0.373 N 
HETATM   17  C   UNK N   1      35.568  16.233  11.185  0.00  0.00     0.100 A 
ATOM     18  HN  UNK N   1      34.888  18.174  11.010  1.00  0.00     0.164 HD
BRANCH  14  19
HETATM   19  C   UNK N   1      34.381  15.750   7.079  0.00  0.00     0.254 C 
HETATM   20  O   UNK N   1      35.220  15.965   6.211  0.00  0.00    -0.267 OA
HETATM   21  N   UNK N   1      33.148  15.294   6.699  0.00  0.00    -0.357 N 
HETATM   22  C   UNK N   1      32.864  15.080   5.299  0.00  0.00     0.152 C 
HETATM   23  C   UNK N   1      32.103  14.997   7.643  0.00  0.00     0.152 C 
ENDBRANCH  14  19
ENDBRANCH   8  12
BRANCH   5  24
HETATM   24  C   UNK N   1      36.646  13.478  15.612  0.00  0.00     0.010 A 
HETATM   25  C   UNK N   1      35.702  13.247  16.664  0.00  0.00     0.079 A 
HETATM   26  C   UNK N   1      35.520  14.231  17.650  0.00  0.00     0.037 A 
HETATM   27  C   UNK N   1      36.211  15.440  17.611  0.00  0.00     0.003 A 
HETATM   28  C   UNK N   1      37.105  15.689  16.581  0.00  0.00     0.001 A 
HETATM   29  C   UNK N   1      37.321  14.719  15.609  0.00  0.00     0.015 A 
BRANCH  25  30
HETATM   30  O   UNK N   1      34.957  12.125  16.785  0.00  0.00    -0.355 OA
HETATM   31  C   UNK N   1      35.251  11.109  17.659  0.00  0.00     0.210 C 
ENDBRANCH  25  30
ENDBRANCH   5  24
TORSDOF 4
ENDMDL
MODEL 2
REMARK VINA RESULT:      -8.0     12.141     16.297
REMARK  4 active torsions:
REMARK  status: ('A' for Active; 'I' for Inactive)
REMARK    1  A    between atoms: O_1  and  C_18 
REMARK       I    between atoms: N_6  and  C_26 
REMARK    2  A    between atoms: C_10  and  C_13 
REMARK    3  A    between atoms: C_14  and  C_16 
REMARK    4  A    between atoms: C_21  and  C_26 
ROOT
HETATM    1  N   UNK N   1      23.764  20.577   2.414  0.00  0.00    -0.351 N 
HETATM    2  N   UNK N   1      21.677  19.784   3.363  0.00  0.00    -0.351 N 
ATOM      3  HN  UNK N   1      21.093  20.330   2.731  1.00  0.00     0.166 HD
HETATM    4  C   UNK N   1      23.838  19.107   4.071  0.00  0.00     0.021 A 
HETATM    5  C   UNK N   1      25.147  19.379   3.754  0.00  0.00     0.006 A 
HETATM    6  C   UNK N   1      23.040  19.831   3.261  0.00  0.00     0.116 A 
HETATM    7  C   UNK N   1      23.315  18.296   5.032  0.00  0.00     0.030 A 
HETATM    8  C   UNK N   1      21.933  18.217   5.196  0.00  0.00    -0.008 A 
HETATM    9  C   UNK N   1      25.071  20.313   2.713  0.00  0.00     0.103 A 
HETATM   10  C   UNK N   1      21.105  18.984   4.330  0.00  0.00     0.102 A 
HETATM   11  H   UNK N   1      23.425  21.188   1.719  0.00  0.00     0.166 HD
ENDROOT
BRANCH   8  12
HETATM   12  C   UNK N   1      21.461  17.378   6.319  0.00  0.00    -0.008 A 
HETATM   13  C   UNK N   1      20.727  18.015   7.321  0.00  0.00     0.032 A 
HETATM   14  C   UNK N   1      20.174  17.335   8.389  0.00  0.00     0.048 A 
HETATM   15  C   UNK N   1      20.379  15.948   8.444  0.00  0.00     0.104 A 
HETATM   16  N   UNK N   1      21.105  15.318   7.470  0.00  0.00    -0.373 N 
HETATM   17  C   UNK N   1      21.643  15.997   6.412  0.00  0.00     0.100 A 
ATOM     18  HN  UNK N   1      21.250  14.310   7.535  1.00  0.00     0.164 HD
BRANCH  14  19
HETATM   19  C   UNK N   1      19.389  18.148   9.378  0.00  0.00     0.254 C 
HETATM   20  O   UNK N   1      19.962  19.092   9.914  0.00  0.00    -0.267 OA
HETATM   21  N   UNK N   1      18.082  17.905   9.704  0.00  0.00    -0.357 N 
HETATM   22  C   UNK N   1      17.413  18.754  10.660  0.00  0.00     0.152 C 
HETATM   23  C   UNK N   1      17.322  16.833   9.118  0.00  0.00     0.152 C 
ENDBRANCH  14  19
ENDBRANCH   8  12
BRANCH   5  24
HETATM   24  C   UNK N   1      26.335  18.792   4.483  0.00  0.00     0.010 A 
HETATM   25  C   UNK N   1      26.911  19.296   5.694  0.00  0.00     0.079 A 
HETATM   26  C   UNK N   1      27.955  18.582   6.304  0.00  0.00     0.037 A 
HETATM   27  C   UNK N   1      28.467  17.414   5.742  0.00  0.00     0.003 A 
HETATM   28  C   UNK N   1      27.939  16.933   4.554  0.00  0.00     0.001 A 
HETATM   29  C   UNK N   1      26.887  17.608   3.947  0.00  0.00     0.015 A 
BRANCH  25  30
HETATM   30  O   UNK N   1      26.514  20.432   6.310  0.00  0.00    -0.355 OA
HETATM   31  C   UNK N   1      27.173  21.629   6.195  0.00  0.00     0.210 C 
ENDBRANCH  25  30
ENDBRANCH   5  24
TORSDOF 4
ENDMDL
MODEL 3
REMARK VINA RESULT:      -7.9     18.854     22.065
REMARK  4 active torsions:
REMARK  status: ('A' for Active; 'I' for Inactive)
REMARK    1  A    between atoms: O_1  and  C_18 
REMARK       I    between atoms: N_6  and  C_26 
REMARK    2  A    between atoms: C_10  and  C_13 
REMARK    3  A    between atoms: C_14  and  C_16 
REMARK    4  A    between atoms: C_21  and  C_26 
ROOT
HETATM    1  N   UNK N   1      31.515  21.016  -3.251  0.00  0.00    -0.351 N 
HETATM    2  N   UNK N   1      29.961  22.712  -2.479  0.00  0.00    -0.351 N 
ATOM      3  HN  UNK N   1      30.314  22.710  -1.522  1.00  0.00     0.166 HD
HETATM    4  C   UNK N   1      30.088  21.894  -4.702  0.00  0.00     0.021 A 
HETATM    5  C   UNK N   1      30.817  20.969  -5.408  0.00  0.00     0.006 A 
HETATM    6  C   UNK N   1      30.523  21.901  -3.426  0.00  0.00     0.116 A 
HETATM    7  C   UNK N   1      29.062  22.698  -5.101  0.00  0.00     0.030 A 
HETATM    8  C   UNK N   1      28.438  23.535  -4.177  0.00  0.00    -0.008 A 
HETATM    9  C   UNK N   1      31.703  20.426  -4.469  0.00  0.00     0.103 A 
HETATM   10  C   UNK N   1      28.912  23.533  -2.836  0.00  0.00     0.102 A 
HETATM   11  H   UNK N   1      32.007  20.831  -2.418  0.00  0.00     0.166 HD
ENDROOT
BRANCH   8  12
HETATM   12  C   UNK N   1      27.281  24.306  -4.681  0.00  0.00    -0.008 A 
HETATM   13  C   UNK N   1      27.101  25.589  -4.164  0.00  0.00     0.032 A 
HETATM   14  C   UNK N   1      26.100  26.436  -4.598  0.00  0.00     0.048 A 
HETATM   15  C   UNK N   1      25.240  25.956  -5.598  0.00  0.00     0.104 A 
HETATM   16  N   UNK N   1      25.404  24.695  -6.103  0.00  0.00    -0.373 N 
HETATM   17  C   UNK N   1      26.403  23.866  -5.673  0.00  0.00     0.100 A 
ATOM     18  HN  UNK N   1      24.762  24.364  -6.822  1.00  0.00     0.164 HD
BRANCH  14  19
HETATM   19  C   UNK N   1      26.042  27.798  -3.967  0.00  0.00     0.254 C 
HETATM   20  O   UNK N   1      25.436  27.904  -2.906  0.00  0.00    -0.267 OA
HETATM   21  N   UNK N   1      26.631  28.913  -4.499  0.00  0.00    -0.357 N 
HETATM   22  C   UNK N   1      26.527  30.176  -3.807  0.00  0.00     0.152 C 
HETATM   23  C   UNK N   1      27.377  28.887  -5.729  0.00  0.00     0.152 C 
ENDBRANCH  14  19
ENDBRANCH   8  12
BRANCH   5  24
HETATM   24  C   UNK N   1      30.583  20.639  -6.866  0.00  0.00     0.010 A 
HETATM   25  C   UNK N   1      31.130  21.346  -7.985  0.00  0.00     0.079 A 
HETATM   26  C   UNK N   1      30.899  20.858  -9.282  0.00  0.00     0.037 A 
HETATM   27  C   UNK N   1      30.123  19.724  -9.508  0.00  0.00     0.003 A 
HETATM   28  C   UNK N   1      29.562  19.048  -8.435  0.00  0.00     0.001 A 
HETATM   29  C   UNK N   1      29.799  19.497  -7.141  0.00  0.00     0.015 A 
BRANCH  25  30
HETATM   30  O   UNK N   1      31.873  22.471  -7.886  0.00  0.00    -0.355 OA
HETATM   31  C   UNK N   1      31.342  23.736  -7.904  0.00  0.00     0.210 C 
ENDBRANCH  25  30
ENDBRANCH   5  24
TORSDOF 4
ENDMDL
MODEL 4
REMARK VINA RESULT:      -7.4     17.782     22.705
REMARK  4 active torsions:
REMARK  status: ('A' for Active; 'I' for Inactive)
REMARK    1  A    between atoms: O_1  and  C_18 
REMARK       I    between atoms: N_6  and  C_26 
REMARK    2  A    between atoms: C_10  and  C_13 
REMARK    3  A    between atoms: C_14  and  C_16 
REMARK    4  A    between atoms: C_21  and  C_26 
ROOT
HETATM    1  N   UNK N   1      24.713  22.176  -7.948  0.00  0.00    -0.351 N 
HETATM    2  N   UNK N   1      25.227  23.771  -6.194  0.00  0.00    -0.351 N 
ATOM      3  HN  UNK N   1      24.271  24.114  -6.120  1.00  0.00     0.166 HD
HETATM    4  C   UNK N   1      26.792  22.290  -7.188  0.00  0.00     0.021 A 
HETATM    5  C   UNK N   1      26.805  21.328  -8.168  0.00  0.00     0.006 A 
HETATM    6  C   UNK N   1      25.539  22.776  -7.079  0.00  0.00     0.116 A 
HETATM    7  C   UNK N   1      27.805  22.776  -6.418  0.00  0.00     0.030 A 
HETATM    8  C   UNK N   1      27.553  23.803  -5.509  0.00  0.00    -0.008 A 
HETATM    9  C   UNK N   1      25.485  21.281  -8.635  0.00  0.00     0.103 A 
HETATM   10  C   UNK N   1      26.225  24.301  -5.404  0.00  0.00     0.102 A 
HETATM   11  H   UNK N   1      23.749  22.343  -8.067  0.00  0.00     0.166 HD
ENDROOT
BRANCH   8  12
HETATM   12  C   UNK N   1      28.729  24.324  -4.780  0.00  0.00    -0.008 A 
HETATM   13  C   UNK N   1      29.625  23.385  -4.267  0.00  0.00     0.032 A 
HETATM   14  C   UNK N   1      30.795  23.741  -3.624  0.00  0.00     0.048 A 
HETATM   15  C   UNK N   1      31.065  25.112  -3.492  0.00  0.00     0.104 A 
HETATM   16  N   UNK N   1      30.187  26.039  -3.985  0.00  0.00    -0.373 N 
HETATM   17  C   UNK N   1      29.034  25.678  -4.627  0.00  0.00     0.100 A 
ATOM     18  HN  UNK N   1      30.398  27.030  -3.870  1.00  0.00     0.164 HD
BRANCH  14  19
HETATM   19  C   UNK N   1      31.673  22.621  -3.144  0.00  0.00     0.254 C 
HETATM   20  O   UNK N   1      31.467  22.185  -2.016  0.00  0.00    -0.267 OA
HETATM   21  N   UNK N   1      32.673  22.059  -3.892  0.00  0.00    -0.357 N 
HETATM   22  C   UNK N   1      33.455  20.978  -3.342  0.00  0.00     0.152 C 
HETATM   23  C   UNK N   1      32.980  22.491  -5.229  0.00  0.00     0.152 C 
ENDBRANCH  14  19
ENDBRANCH   8  12
BRANCH   5  24
HETATM   24  C   UNK N   1      28.047  20.588  -8.614  0.00  0.00     0.010 A 
HETATM   25  C   UNK N   1      28.851  20.907  -9.755  0.00  0.00     0.079 A 
HETATM   26  C   UNK N   1      30.033  20.184  -9.984  0.00  0.00     0.037 A 
HETATM   27  C   UNK N   1      30.425  19.142  -9.146  0.00  0.00     0.003 A 
HETATM   28  C   UNK N   1      29.639  18.803  -8.056  0.00  0.00     0.001 A 
HETATM   29  C   UNK N   1      28.479  19.522  -7.795  0.00  0.00     0.015 A 
BRANCH  25  30
HETATM   30  O   UNK N   1      28.553  21.877 -10.649  0.00  0.00    -0.355 OA
HETATM   31  C   UNK N   1      28.976  23.177 -10.529  0.00  0.00     0.210 C 
ENDBRANCH  25  30
ENDBRANCH   5  24
TORSDOF 4
ENDMDL
MODEL 5
REMARK VINA RESULT:      -7.4      7.307     11.029
REMARK  4 active torsions:
REMARK  status: ('A' for Active; 'I' for Inactive)
REMARK    1  A    between atoms: O_1  and  C_18 
REMARK       I    between atoms: N_6  and  C_26 
REMARK    2  A    between atoms: C_10  and  C_13 
REMARK    3  A    between atoms: C_14  and  C_16 
REMARK    4  A    between atoms: C_21  and  C_26 
ROOT
HETATM    1  N   UNK N   1      31.296  16.458   9.422  0.00  0.00    -0.351 N 
HETATM    2  N   UNK N   1      29.254  17.768   9.481  0.00  0.00    -0.351 N 
ATOM      3  HN  UNK N   1      29.175  17.741  10.497  1.00  0.00     0.166 HD
HETATM    4  C   UNK N   1      30.446  17.196   7.511  0.00  0.00     0.021 A 
HETATM    5  C   UNK N   1      31.572  16.486   7.171  0.00  0.00     0.006 A 
HETATM    6  C   UNK N   1      30.307  17.163   8.852  0.00  0.00     0.116 A 
HETATM    7  C   UNK N   1      29.536  17.835   6.725  0.00  0.00     0.030 A 
HETATM    8  C   UNK N   1      28.432  18.457   7.306  0.00  0.00    -0.008 A 
HETATM    9  C   UNK N   1      32.083  16.026   8.391  0.00  0.00     0.103 A 
HETATM   10  C   UNK N   1      28.303  18.416   8.722  0.00  0.00     0.102 A 
HETATM   11  H   UNK N   1      31.428  16.288  10.383  0.00  0.00     0.166 HD
ENDROOT
BRANCH   8  12
HETATM   12  C   UNK N   1      27.455  19.050   6.368  0.00  0.00    -0.008 A 
HETATM   13  C   UNK N   1      26.720  18.167   5.576  0.00  0.00     0.032 A 
HETATM   14  C   UNK N   1      25.731  18.587   4.708  0.00  0.00     0.048 A 
HETATM   15  C   UNK N   1      25.480  19.967   4.639  0.00  0.00     0.104 A 
HETATM   16  N   UNK N   1      26.202  20.840   5.406  0.00  0.00    -0.373 N 
HETATM   17  C   UNK N   1      27.175  20.414   6.268  0.00  0.00     0.100 A 
ATOM     18  HN  UNK N   1      26.010  21.838   5.333  1.00  0.00     0.164 HD
BRANCH  14  19
HETATM   19  C   UNK N   1      25.007  17.522   3.937  0.00  0.00     0.254 C 
HETATM   20  O   UNK N   1      25.605  16.995   3.004  0.00  0.00    -0.267 OA
HETATM   21  N   UNK N   1      23.736  17.101   4.220  0.00  0.00    -0.357 N 
HETATM   22  C   UNK N   1      23.132  16.060   3.423  0.00  0.00     0.152 C 
HETATM   23  C   UNK N   1      22.960  17.646   5.303  0.00  0.00     0.152 C 
ENDBRANCH  14  19
ENDBRANCH   8  12
BRANCH   5  24
HETATM   24  C   UNK N   1      32.030  16.256   5.748  0.00  0.00     0.010 A 
HETATM   25  C   UNK N   1      31.682  15.137   4.923  0.00  0.00     0.079 A 
HETATM   26  C   UNK N   1      32.110  15.114   3.586  0.00  0.00     0.037 A 
HETATM   27  C   UNK N   1      32.891  16.135   3.051  0.00  0.00     0.003 A 
HETATM   28  C   UNK N   1      33.261  17.208   3.847  0.00  0.00     0.001 A 
HETATM   29  C   UNK N   1      32.827  17.266   5.166  0.00  0.00     0.015 A 
BRANCH  25  30
HETATM   30  O   UNK N   1      30.954  14.079   5.344  0.00  0.00    -0.355 OA
HETATM   31  C   UNK N   1      29.694  13.792   4.883  0.00  0.00     0.210 C 
ENDBRANCH  25  30
ENDBRANCH   5  24
TORSDOF 4
ENDMDL
MODEL 6
REMARK VINA RESULT:      -7.3     11.738     15.366
REMARK  4 active torsions:
REMARK  status: ('A' for Active; 'I' for Inactive)
REMARK    1  A    between atoms: O_1  and  C_18 
REMARK       I    between atoms: N_6  and  C_26 
REMARK    2  A    between atoms: C_10  and  C_13 
REMARK    3  A    between atoms: C_14  and  C_16 
REMARK    4  A    between atoms: C_21  and  C_26 
ROOT
HETATM    1  N   UNK N   1      23.889  20.567   2.585  0.00  0.00    -0.351 N 
HETATM    2  N   UNK N   1      21.836  19.647   3.494  0.00  0.00    -0.351 N 
ATOM      3  HN  UNK N   1      21.230  20.204   2.892  1.00  0.00     0.166 HD
HETATM    4  C   UNK N   1      24.022  19.015   4.163  0.00  0.00     0.021 A 
HETATM    5  C   UNK N   1      25.319  19.352   3.860  0.00  0.00     0.006 A 
HETATM    6  C   UNK N   1      23.196  19.751   3.393  0.00  0.00     0.116 A 
HETATM    7  C   UNK N   1      23.532  18.136   5.081  0.00  0.00     0.030 A 
HETATM    8  C   UNK N   1      22.155  17.997   5.242  0.00  0.00    -0.008 A 
HETATM    9  C   UNK N   1      25.206  20.336   2.869  0.00  0.00     0.103 A 
HETATM   10  C   UNK N   1      21.296  18.778   4.418  0.00  0.00     0.102 A 
HETATM   11  H   UNK N   1      23.525  21.201   1.924  0.00  0.00     0.166 HD
ENDROOT
BRANCH   8  12
HETATM   12  C   UNK N   1      21.717  17.084   6.319  0.00  0.00    -0.008 A 
HETATM   13  C   UNK N   1      22.399  15.872   6.438  0.00  0.00     0.032 A 
HETATM   14  C   UNK N   1      22.133  14.960   7.441  0.00  0.00     0.048 A 
HETATM   15  C   UNK N   1      21.128  15.292   8.362  0.00  0.00     0.104 A 
HETATM   16  N   UNK N   1      20.449  16.475   8.247  0.00  0.00    -0.373 N 
HETATM   17  C   UNK N   1      20.723  17.375   7.255  0.00  0.00     0.100 A 
ATOM     18  HN  UNK N   1      19.715  16.691   8.921  1.00  0.00     0.164 HD
BRANCH  14  19
HETATM   19  C   UNK N   1      22.963  13.708   7.458  0.00  0.00     0.254 C 
HETATM   20  O   UNK N   1      24.106  13.794   7.895  0.00  0.00    -0.267 OA
HETATM   21  N   UNK N   1      22.516  12.488   7.028  0.00  0.00    -0.357 N 
HETATM   22  C   UNK N   1      23.390  11.341   7.095  0.00  0.00     0.152 C 
HETATM   23  C   UNK N   1      21.187  12.284   6.514  0.00  0.00     0.152 C 
ENDBRANCH  14  19
ENDBRANCH   8  12
BRANCH   5  24
HETATM   24  C   UNK N   1      26.530  18.772   4.555  0.00  0.00     0.010 A 
HETATM   25  C   UNK N   1      27.103  19.246   5.779  0.00  0.00     0.079 A 
HETATM   26  C   UNK N   1      28.173  18.540   6.353  0.00  0.00     0.037 A 
HETATM   27  C   UNK N   1      28.712  17.409   5.743  0.00  0.00     0.003 A 
HETATM   28  C   UNK N   1      28.186  16.958   4.543  0.00  0.00     0.001 A 
HETATM   29  C   UNK N   1      27.110  17.625   3.970  0.00  0.00     0.015 A 
BRANCH  25  30
HETATM   30  O   UNK N   1      26.681  20.346   6.442  0.00  0.00    -0.355 OA
HETATM   31  C   UNK N   1      27.155  21.610   6.197  0.00  0.00     0.210 C 
ENDBRANCH  25  30
ENDBRANCH   5  24
TORSDOF 4
ENDMDL
MODEL 7
REMARK VINA RESULT:      -7.3      7.274     10.468
REMARK  4 active torsions:
REMARK  status: ('A' for Active; 'I' for Inactive)
REMARK    1  A    between atoms: O_1  and  C_18 
REMARK       I    between atoms: N_6  and  C_26 
REMARK    2  A    between atoms: C_10  and  C_13 
REMARK    3  A    between atoms: C_14  and  C_16 
REMARK    4  A    between atoms: C_21  and  C_26 
ROOT
HETATM    1  N   UNK N   1      32.933  18.005   8.983  0.00  0.00    -0.351 N 
HETATM    2  N   UNK N   1      30.561  18.147   9.469  0.00  0.00    -0.351 N 
ATOM      3  HN  UNK N   1      30.697  18.510  10.412  1.00  0.00     0.166 HD
HETATM    4  C   UNK N   1      31.486  17.416   7.411  0.00  0.00     0.021 A 
HETATM    5  C   UNK N   1      32.731  17.220   6.865  0.00  0.00     0.006 A 
HETATM    6  C   UNK N   1      31.636  17.881   8.667  0.00  0.00     0.116 A 
HETATM    7  C   UNK N   1      30.249  17.187   6.888  0.00  0.00     0.030 A 
HETATM    8  C   UNK N   1      29.114  17.422   7.663  0.00  0.00    -0.008 A 
HETATM    9  C   UNK N   1      33.624  17.591   7.878  0.00  0.00     0.103 A 
HETATM   10  C   UNK N   1      29.290  17.917   8.985  0.00  0.00     0.102 A 
HETATM   11  H   UNK N   1      33.311  18.327   9.834  0.00  0.00     0.166 HD
ENDROOT
BRANCH   8  12
HETATM   12  C   UNK N   1      27.821  17.064   7.042  0.00  0.00    -0.008 A 
HETATM   13  C   UNK N   1      27.447  17.775   5.901  0.00  0.00     0.032 A 
HETATM   14  C   UNK N   1      26.297  17.494   5.189  0.00  0.00     0.048 A 
HETATM   15  C   UNK N   1      25.489  16.448   5.660  0.00  0.00     0.104 A 
HETATM   16  N   UNK N   1      25.844  15.751   6.783  0.00  0.00    -0.373 N 
HETATM   17  C   UNK N   1      26.988  16.031   7.478  0.00  0.00     0.100 A 
ATOM     18  HN  UNK N   1      25.237  15.002   7.112  1.00  0.00     0.164 HD
BRANCH  14  19
HETATM   19  C   UNK N   1      26.034  18.328   3.968  0.00  0.00     0.254 C 
HETATM   20  O   UNK N   1      25.961  17.745   2.891  0.00  0.00    -0.267 OA
HETATM   21  N   UNK N   1      25.863  19.686   3.990  0.00  0.00    -0.357 N 
HETATM   22  C   UNK N   1      25.604  20.395   2.760  0.00  0.00     0.152 C 
HETATM   23  C   UNK N   1      25.914  20.456   5.204  0.00  0.00     0.152 C 
ENDBRANCH  14  19
ENDBRANCH   8  12
BRANCH   5  24
HETATM   24  C   UNK N   1      32.971  16.656   5.482  0.00  0.00     0.010 A 
HETATM   25  C   UNK N   1      33.448  15.338   5.183  0.00  0.00     0.079 A 
HETATM   26  C   UNK N   1      33.527  14.927   3.843  0.00  0.00     0.037 A 
HETATM   27  C   UNK N   1      33.186  15.781   2.796  0.00  0.00     0.003 A 
HETATM   28  C   UNK N   1      32.753  17.068   3.070  0.00  0.00     0.001 A 
HETATM   29  C   UNK N   1      32.641  17.488   4.391  0.00  0.00     0.015 A 
BRANCH  25  30
HETATM   30  O   UNK N   1      33.833  14.438   6.116  0.00  0.00    -0.355 OA
HETATM   31  C   UNK N   1      33.202  13.237   6.318  0.00  0.00     0.210 C 
ENDBRANCH  25  30
ENDBRANCH   5  24
TORSDOF 4
ENDMDL
MODEL 8
REMARK VINA RESULT:      -7.1     10.551     15.732
REMARK  4 active torsions:
REMARK  status: ('A' for Active; 'I' for Inactive)
REMARK    1  A    between atoms: O_1  and  C_18 
REMARK       I    between atoms: N_6  and  C_26 
REMARK    2  A    between atoms: C_10  and  C_13 
REMARK    3  A    between atoms: C_14  and  C_16 
REMARK    4  A    between atoms: C_21  and  C_26 
ROOT
HETATM    1  N   UNK N   1      19.176  17.274   3.622  0.00  0.00    -0.351 N 
HETATM    2  N   UNK N   1      20.559  19.100   2.825  0.00  0.00    -0.351 N 
ATOM      3  HN  UNK N   1      19.807  19.542   2.297  1.00  0.00     0.166 HD
HETATM    4  C   UNK N   1      21.296  17.362   4.262  0.00  0.00     0.021 A 
HETATM    5  C   UNK N   1      20.776  16.233   4.846  0.00  0.00     0.006 A 
HETATM    6  C   UNK N   1      20.325  17.959   3.542  0.00  0.00     0.116 A 
HETATM    7  C   UNK N   1      22.558  17.873   4.301  0.00  0.00     0.030 A 
HETATM    8  C   UNK N   1      22.863  19.025   3.578  0.00  0.00    -0.008 A 
HETATM    9  C   UNK N   1      19.442  16.197   4.421  0.00  0.00     0.103 A 
HETATM   10  C   UNK N   1      21.826  19.645   2.827  0.00  0.00     0.102 A 
HETATM   11  H   UNK N   1      18.317  17.499   3.195  0.00  0.00     0.166 HD
ENDROOT
BRANCH   8  12
HETATM   12  C   UNK N   1      24.277  19.455   3.612  0.00  0.00    -0.008 A 
HETATM   13  C   UNK N   1      25.141  18.729   4.432  0.00  0.00     0.032 A 
HETATM   14  C   UNK N   1      26.497  18.986   4.504  0.00  0.00     0.048 A 
HETATM   15  C   UNK N   1      26.996  20.031   3.711  0.00  0.00     0.104 A 
HETATM   16  N   UNK N   1      26.153  20.754   2.911  0.00  0.00    -0.373 N 
HETATM   17  C   UNK N   1      24.814  20.488   2.840  0.00  0.00     0.100 A 
ATOM     18  HN  UNK N   1      26.536  21.515   2.351  1.00  0.00     0.164 HD
BRANCH  14  19
HETATM   19  C   UNK N   1      27.307  18.107   5.413  0.00  0.00     0.254 C 
HETATM   20  O   UNK N   1      27.520  16.957   5.044  0.00  0.00    -0.267 OA
HETATM   21  N   UNK N   1      27.825  18.517   6.613  0.00  0.00    -0.357 N 
HETATM   22  C   UNK N   1      28.601  17.596   7.409  0.00  0.00     0.152 C 
HETATM   23  C   UNK N   1      27.643  19.849   7.123  0.00  0.00     0.152 C 
ENDBRANCH  14  19
ENDBRANCH   8  12
BRANCH   5  24
HETATM   24  C   UNK N   1      21.579  15.270   5.692  0.00  0.00     0.010 A 
HETATM   25  C   UNK N   1      21.786  15.365   7.106  0.00  0.00     0.079 A 
HETATM   26  C   UNK N   1      22.477  14.337   7.768  0.00  0.00     0.037 A 
HETATM   27  C   UNK N   1      22.996  13.244   7.077  0.00  0.00     0.003 A 
HETATM   28  C   UNK N   1      22.830  13.156   5.704  0.00  0.00     0.001 A 
HETATM   29  C   UNK N   1      22.126  14.148   5.032  0.00  0.00     0.015 A 
BRANCH  25  30
HETATM   30  O   UNK N   1      21.352  16.392   7.871  0.00  0.00    -0.355 OA
HETATM   31  C   UNK N   1      20.187  16.362   8.594  0.00  0.00     0.210 C 
ENDBRANCH  25  30
ENDBRANCH   5  24
TORSDOF 4
ENDMDL
MODEL 9
REMARK VINA RESULT:      -7.1     18.428     23.006
REMARK  4 active torsions:
REMARK  status: ('A' for Active; 'I' for Inactive)
REMARK    1  A    between atoms: O_1  and  C_18 
REMARK       I    between atoms: N_6  and  C_26 
REMARK    2  A    between atoms: C_10  and  C_13 
REMARK    3  A    between atoms: C_14  and  C_16 
REMARK    4  A    between atoms: C_21  and  C_26 
ROOT
HETATM    1  N   UNK N   1      25.649  24.877  -8.700  0.00  0.00    -0.351 N 
HETATM    2  N   UNK N   1      26.693  22.945  -7.668  0.00  0.00    -0.351 N 
ATOM      3  HN  UNK N   1      26.197  22.270  -8.249  1.00  0.00     0.166 HD
HETATM    4  C   UNK N   1      27.147  25.203  -7.099  0.00  0.00     0.021 A 
HETATM    5  C   UNK N   1      26.725  26.454  -7.477  0.00  0.00     0.006 A 
HETATM    6  C   UNK N   1      26.493  24.287  -7.841  0.00  0.00     0.116 A 
HETATM    7  C   UNK N   1      28.037  24.826  -6.139  0.00  0.00     0.030 A 
HETATM    8  C   UNK N   1      28.272  23.472  -5.904  0.00  0.00    -0.008 A 
HETATM    9  C   UNK N   1      25.777  26.220  -8.480  0.00  0.00     0.103 A 
HETATM   10  C   UNK N   1      27.576  22.519  -6.698  0.00  0.00     0.102 A 
HETATM   11  H   UNK N   1      25.060  24.434  -9.355  0.00  0.00     0.166 HD
ENDROOT
BRANCH   8  12
HETATM   12  C   UNK N   1      29.188  23.158  -4.786  0.00  0.00    -0.008 A 
HETATM   13  C   UNK N   1      30.218  22.254  -5.046  0.00  0.00     0.032 A 
HETATM   14  C   UNK N   1      31.179  21.926  -4.109  0.00  0.00     0.048 A 
HETATM   15  C   UNK N   1      31.086  22.541  -2.851  0.00  0.00     0.104 A 
HETATM   16  N   UNK N   1      30.073  23.422  -2.586  0.00  0.00    -0.373 N 
HETATM   17  C   UNK N   1      29.130  23.747  -3.522  0.00  0.00     0.100 A 
ATOM     18  HN  UNK N   1      30.020  23.850  -1.661  1.00  0.00     0.164 HD
BRANCH  14  19
HETATM   19  C   UNK N   1      32.242  20.956  -4.538  0.00  0.00     0.254 C 
HETATM   20  O   UNK N   1      31.981  19.760  -4.456  0.00  0.00    -0.267 OA
HETATM   21  N   UNK N   1      33.467  21.327  -5.021  0.00  0.00    -0.357 N 
HETATM   22  C   UNK N   1      34.417  20.314  -5.417  0.00  0.00     0.152 C 
HETATM   23  C   UNK N   1      33.860  22.703  -5.170  0.00  0.00     0.152 C 
ENDBRANCH  14  19
ENDBRANCH   8  12
BRANCH   5  24
HETATM   24  C   UNK N   1      27.198  27.739  -6.832  0.00  0.00     0.010 A 
HETATM   25  C   UNK N   1      26.700  28.299  -5.611  0.00  0.00     0.079 A 
HETATM   26  C   UNK N   1      27.310  29.452  -5.089  0.00  0.00     0.037 A 
HETATM   27  C   UNK N   1      28.364  30.082  -5.747  0.00  0.00     0.003 A 
HETATM   28  C   UNK N   1      28.835  29.567  -6.945  0.00  0.00     0.001 A 
HETATM   29  C   UNK N   1      28.264  28.412  -7.467  0.00  0.00     0.015 A 
BRANCH  25  30
HETATM   30  O   UNK N   1      25.666  27.789  -4.906  0.00  0.00    -0.355 OA
HETATM   31  C   UNK N   1      25.705  27.572  -3.552  0.00  0.00     0.210 C 
ENDBRANCH  25  30
ENDBRANCH   5  24
TORSDOF 4
ENDMDL
