MODEL 1
REMARK VINA RESULT:      -6.4      0.000      0.000
REMARK  6 active torsions:
REMARK  status: ('A' for Active; 'I' for Inactive)
REMARK    1  A    between atoms: O_1  and  S_2 
REMARK    2  A    between atoms: S_2  and  N_5 
REMARK    3  A    between atoms: N_5  and  C_6 
REMARK       I    between atoms: N_11  and  C_12 
REMARK    4  A    between atoms: C_12  and  O_14 
REMARK    5  A    between atoms: O_14  and  C_15 
REMARK    6  A    between atoms: C_19  and  C_20 
REMARK       I    between atoms: C_20  and  N_22 
ROOT
HETATM    1  C   UNK N   1      33.076  16.656   8.647  0.00  0.00     0.044 A 
HETATM    2  C   UNK N   1      33.650  16.509   7.378  0.00  0.00     0.031 A 
HETATM    3  C   UNK N   1      31.749  17.082   8.761  0.00  0.00     0.039 A 
HETATM    4  C   UNK N   1      30.993  17.343   7.612  0.00  0.00    -0.032 A 
HETATM    5  C   UNK N   1      29.566  17.760   7.746  0.00  0.00     0.168 C 
HETATM    6  N   UNK N   1      28.807  17.406   6.559  0.00  0.00    -0.310 N 
HETATM    7  C   UNK N   1      27.588  16.795   6.732  0.00  0.00     0.364 C 
HETATM    8  O   UNK N   1      27.204  16.517   7.860  0.00  0.00    -0.238 OA
HETATM    9  C   UNK N   1      29.346  17.870   5.267  0.00  0.00     0.186 C 
HETATM   10  C   UNK N   1      30.803  17.427   5.081  0.00  0.00     0.074 C 
HETATM   11  C   UNK N   1      31.580  17.201   6.341  0.00  0.00    -0.048 A 
HETATM   12  C   UNK N   1      32.908  16.788   6.233  0.00  0.00     0.010 A 
ENDROOT
BRANCH   1  13
HETATM   13  N   UNK N   1      33.822  16.355   9.817  0.00  0.00    -0.273 N 
HETATM   14  H   UNK N   1      33.369  16.389  10.690  0.00  0.00     0.180 HD
BRANCH  13  15
HETATM   15  S   UNK N   1      35.530  15.923   9.762  0.00  0.00     0.199 S 
HETATM   16  O   UNK N   1      35.536  17.427  10.080  0.00  0.00    -0.585 OA
HETATM   17  O   UNK N   1      34.937  15.236  11.001  0.00  0.00    -0.585 OA
BRANCH  15  18
HETATM   18  O   UNK N   1      36.546  16.197  11.117  0.00  0.00    -0.279 OA
HETATM   19  H   UNK N   1      36.825  17.080  11.407  0.00  0.00     0.234 HD
ENDBRANCH  15  18
ENDBRANCH  13  15
ENDBRANCH   1  13
BRANCH   9  20
HETATM   20  C   UNK N   1      28.598  17.438   4.013  0.00  0.00     0.240 C 
HETATM   21  O   UNK N   1      28.849  16.349   3.521  0.00  0.00    -0.271 OA
HETATM   22  N   UNK N   1      27.637  18.214   3.436  0.00  0.00    -0.364 N 
HETATM   23  C   UNK N   1      27.249  19.508   3.943  0.00  0.00     0.149 C 
HETATM   24  H   UNK N   1      27.185  17.873   2.631  0.00  0.00     0.161 HD
ENDBRANCH   9  20
BRANCH   7  25
HETATM   25  O   UNK N   1      26.769  16.558   5.671  0.00  0.00    -0.294 OA
BRANCH  25  26
HETATM   26  C   UNK N   1      26.050  15.395   5.454  0.00  0.00     0.061 C 
HETATM   27  C   UNK N   1      26.911  14.147   5.555  0.00  0.00     0.046 C 
HETATM   28  C   UNK N   1      25.454  15.451   4.064  0.00  0.00     0.046 C 
HETATM   29  C   UNK N   1      24.908  15.315   6.454  0.00  0.00     0.046 C 
ENDBRANCH  25  26
ENDBRANCH   7  25
TORSDOF 6
ENDMDL
MODEL 2
REMARK VINA RESULT:      -6.4     11.795     15.302
REMARK  6 active torsions:
REMARK  status: ('A' for Active; 'I' for Inactive)
REMARK    1  A    between atoms: O_1  and  S_2 
REMARK    2  A    between atoms: S_2  and  N_5 
REMARK    3  A    between atoms: N_5  and  C_6 
REMARK       I    between atoms: N_11  and  C_12 
REMARK    4  A    between atoms: C_12  and  O_14 
REMARK    5  A    between atoms: O_14  and  C_15 
REMARK    6  A    between atoms: C_19  and  C_20 
REMARK       I    between atoms: C_20  and  N_22 
ROOT
HETATM    1  C   UNK N   1      35.913  12.227  15.845  0.00  0.00     0.044 A 
HETATM    2  C   UNK N   1      35.517  13.327  16.615  0.00  0.00     0.031 A 
HETATM    3  C   UNK N   1      36.040  10.971  16.447  0.00  0.00     0.039 A 
HETATM    4  C   UNK N   1      35.754  10.811  17.808  0.00  0.00    -0.032 A 
HETATM    5  C   UNK N   1      35.856   9.458  18.429  0.00  0.00     0.168 C 
HETATM    6  N   UNK N   1      34.989   9.352  19.591  0.00  0.00    -0.310 N 
HETATM    7  C   UNK N   1      34.201   8.233  19.708  0.00  0.00     0.364 C 
HETATM    8  O   UNK N   1      34.205   7.393  18.817  0.00  0.00    -0.238 OA
HETATM    9  C   UNK N   1      35.141  10.393  20.625  0.00  0.00     0.186 C 
HETATM   10  C   UNK N   1      35.007  11.798  20.025  0.00  0.00     0.074 C 
HETATM   11  C   UNK N   1      35.363  11.923  18.576  0.00  0.00    -0.048 A 
HETATM   12  C   UNK N   1      35.251  13.176  17.974  0.00  0.00     0.010 A 
ENDROOT
BRANCH   1  13
HETATM   13  N   UNK N   1      36.167  12.370  14.455  0.00  0.00    -0.273 N 
HETATM   14  H   UNK N   1      36.593  11.626  13.971  0.00  0.00     0.180 HD
BRANCH  13  15
HETATM   15  S   UNK N   1      35.747  13.833  13.565  0.00  0.00     0.199 S 
HETATM   16  O   UNK N   1      36.897  13.219  12.751  0.00  0.00    -0.585 OA
HETATM   17  O   UNK N   1      34.564  12.865  13.415  0.00  0.00    -0.585 OA
BRANCH  15  18
HETATM   18  O   UNK N   1      35.275  13.750  11.919  0.00  0.00    -0.279 OA
HETATM   19  H   UNK N   1      34.385  13.979  11.605  0.00  0.00     0.234 HD
ENDBRANCH  15  18
ENDBRANCH  13  15
ENDBRANCH   1  13
BRANCH   9  20
HETATM   20  C   UNK N   1      34.185  10.333  21.808  0.00  0.00     0.240 C 
HETATM   21  O   UNK N   1      33.078  10.838  21.700  0.00  0.00    -0.271 OA
HETATM   22  N   UNK N   1      34.510   9.711  22.976  0.00  0.00    -0.364 N 
HETATM   23  C   UNK N   1      35.781   9.067  23.207  0.00  0.00     0.149 C 
HETATM   24  H   UNK N   1      33.843   9.701  23.701  0.00  0.00     0.161 HD
ENDBRANCH   9  20
BRANCH   7  25
HETATM   25  O   UNK N   1      33.468   8.010  20.833  0.00  0.00    -0.294 OA
BRANCH  25  26
HETATM   26  C   UNK N   1      32.153   7.576  20.863  0.00  0.00     0.061 C 
HETATM   27  C   UNK N   1      31.232   8.440  20.018  0.00  0.00     0.046 C 
HETATM   28  C   UNK N   1      31.666   7.621  22.295  0.00  0.00     0.046 C 
HETATM   29  C   UNK N   1      32.086   6.134  20.386  0.00  0.00     0.046 C 
ENDBRANCH  25  26
ENDBRANCH   7  25
TORSDOF 6
ENDMDL
MODEL 3
REMARK VINA RESULT:      -6.2      5.314      8.134
REMARK  6 active torsions:
REMARK  status: ('A' for Active; 'I' for Inactive)
REMARK    1  A    between atoms: O_1  and  S_2 
REMARK    2  A    between atoms: S_2  and  N_5 
REMARK    3  A    between atoms: N_5  and  C_6 
REMARK       I    between atoms: N_11  and  C_12 
REMARK    4  A    between atoms: C_12  and  O_14 
REMARK    5  A    between atoms: O_14  and  C_15 
REMARK    6  A    between atoms: C_19  and  C_20 
REMARK       I    between atoms: C_20  and  N_22 
ROOT
HETATM    1  C   UNK N   1      35.768  13.032  14.565  0.00  0.00     0.044 A 
HETATM    2  C   UNK N   1      35.083  11.889  14.133  0.00  0.00     0.031 A 
HETATM    3  C   UNK N   1      36.113  14.023  13.641  0.00  0.00     0.039 A 
HETATM    4  C   UNK N   1      35.760  13.881  12.294  0.00  0.00    -0.032 A 
HETATM    5  C   UNK N   1      36.101  14.964  11.324  0.00  0.00     0.168 C 
HETATM    6  N   UNK N   1      35.187  14.957  10.194  0.00  0.00    -0.310 N 
HETATM    7  C   UNK N   1      34.651  16.157   9.791  0.00  0.00     0.364 C 
HETATM    8  O   UNK N   1      34.908  17.177  10.418  0.00  0.00    -0.238 OA
HETATM    9  C   UNK N   1      35.028  13.676   9.481  0.00  0.00     0.186 C 
HETATM   10  C   UNK N   1      34.642  12.547  10.445  0.00  0.00     0.074 C 
HETATM   11  C   UNK N   1      35.079  12.727  11.866  0.00  0.00    -0.048 A 
HETATM   12  C   UNK N   1      34.748  11.736  12.790  0.00  0.00     0.010 A 
ENDROOT
BRANCH   1  13
HETATM   13  N   UNK N   1      36.096  13.203  15.936  0.00  0.00    -0.273 N 
HETATM   14  H   UNK N   1      37.043  13.182  16.204  0.00  0.00     0.180 HD
BRANCH  13  15
HETATM   15  S   UNK N   1      34.868  13.452  17.176  0.00  0.00     0.199 S 
HETATM   16  O   UNK N   1      35.535  12.126  17.574  0.00  0.00    -0.585 OA
HETATM   17  O   UNK N   1      35.935  14.536  17.383  0.00  0.00    -0.585 OA
BRANCH  15  18
HETATM   18  O   UNK N   1      35.301  13.527  18.834  0.00  0.00    -0.279 OA
HETATM   19  H   UNK N   1      35.141  14.303  19.394  0.00  0.00     0.234 HD
ENDBRANCH  15  18
ENDBRANCH  13  15
ENDBRANCH   1  13
BRANCH   9  20
HETATM   20  C   UNK N   1      34.014  13.641   8.345  0.00  0.00     0.240 C 
HETATM   21  O   UNK N   1      32.837  13.454   8.609  0.00  0.00    -0.271 OA
HETATM   22  N   UNK N   1      34.372  13.839   7.045  0.00  0.00    -0.364 N 
HETATM   23  C   UNK N   1      35.730  14.086   6.622  0.00  0.00     0.149 C 
HETATM   24  H   UNK N   1      33.667  13.812   6.358  0.00  0.00     0.161 HD
ENDBRANCH   9  20
BRANCH   7  25
HETATM   25  O   UNK N   1      33.896  16.239   8.662  0.00  0.00    -0.294 OA
BRANCH  25  26
HETATM   26  C   UNK N   1      33.590  17.407   7.983  0.00  0.00     0.061 C 
HETATM   27  C   UNK N   1      34.623  18.500   8.203  0.00  0.00     0.046 C 
HETATM   28  C   UNK N   1      32.251  17.911   8.474  0.00  0.00     0.046 C 
HETATM   29  C   UNK N   1      33.466  17.108   6.498  0.00  0.00     0.046 C 
ENDBRANCH  25  26
ENDBRANCH   7  25
TORSDOF 6
ENDMDL
MODEL 4
REMARK VINA RESULT:      -6.2      3.952      5.855
REMARK  6 active torsions:
REMARK  status: ('A' for Active; 'I' for Inactive)
REMARK    1  A    between atoms: O_1  and  S_2 
REMARK    2  A    between atoms: S_2  and  N_5 
REMARK    3  A    between atoms: N_5  and  C_6 
REMARK       I    between atoms: N_11  and  C_12 
REMARK    4  A    between atoms: C_12  and  O_14 
REMARK    5  A    between atoms: O_14  and  C_15 
REMARK    6  A    between atoms: C_19  and  C_20 
REMARK       I    between atoms: C_20  and  N_22 
ROOT
HETATM    1  C   UNK N   1      35.512  14.250  11.833  0.00  0.00     0.044 A 
HETATM    2  C   UNK N   1      36.051  15.535  11.700  0.00  0.00     0.031 A 
HETATM    3  C   UNK N   1      34.484  13.839  10.978  0.00  0.00     0.039 A 
HETATM    4  C   UNK N   1      34.010  14.701   9.983  0.00  0.00    -0.032 A 
HETATM    5  C   UNK N   1      32.940  14.236   9.052  0.00  0.00     0.168 C 
HETATM    6  N   UNK N   1      33.002  14.952   7.789  0.00  0.00    -0.310 N 
HETATM    7  C   UNK N   1      32.920  14.221   6.629  0.00  0.00     0.364 C 
HETATM    8  O   UNK N   1      32.856  12.999   6.685  0.00  0.00    -0.238 OA
HETATM    9  C   UNK N   1      32.997  16.425   7.864  0.00  0.00     0.186 C 
HETATM   10  C   UNK N   1      34.110  16.939   8.786  0.00  0.00     0.074 C 
HETATM   11  C   UNK N   1      34.553  15.994   9.860  0.00  0.00    -0.048 A 
HETATM   12  C   UNK N   1      35.569  16.404  10.723  0.00  0.00     0.010 A 
ENDROOT
BRANCH   1  13
HETATM   13  N   UNK N   1      36.013  13.354  12.814  0.00  0.00    -0.273 N 
HETATM   14  H   UNK N   1      36.208  12.425  12.552  0.00  0.00     0.180 HD
BRANCH  13  15
HETATM   15  S   UNK N   1      36.298  13.844  14.483  0.00  0.00     0.199 S 
HETATM   16  O   UNK N   1      34.823  13.414  14.469  0.00  0.00    -0.585 OA
HETATM   17  O   UNK N   1      37.111  12.562  14.251  0.00  0.00    -0.585 OA
BRANCH  15  18
HETATM   18  O   UNK N   1      36.030  12.749  15.775  0.00  0.00    -0.279 OA
HETATM   19  H   UNK N   1      35.190  12.285  15.918  0.00  0.00     0.234 HD
ENDBRANCH  15  18
ENDBRANCH  13  15
ENDBRANCH   1  13
BRANCH   9  20
HETATM   20  C   UNK N   1      33.140  17.182   6.550  0.00  0.00     0.240 C 
HETATM   21  O   UNK N   1      34.257  17.476   6.155  0.00  0.00    -0.271 OA
HETATM   22  N   UNK N   1      32.064  17.519   5.784  0.00  0.00    -0.364 N 
HETATM   23  C   UNK N   1      30.701  17.206   6.145  0.00  0.00     0.149 C 
HETATM   24  H   UNK N   1      32.224  18.001   4.941  0.00  0.00     0.161 HD
ENDBRANCH   9  20
BRANCH   7  25
HETATM   25  O   UNK N   1      32.838  14.838   5.419  0.00  0.00    -0.294 OA
BRANCH  25  26
HETATM   26  C   UNK N   1      33.545  14.479   4.283  0.00  0.00     0.061 C 
HETATM   27  C   UNK N   1      33.070  13.164   3.688  0.00  0.00     0.046 C 
HETATM   28  C   UNK N   1      35.005  14.334   4.653  0.00  0.00     0.046 C 
HETATM   29  C   UNK N   1      33.429  15.584   3.246  0.00  0.00     0.046 C 
ENDBRANCH  25  26
ENDBRANCH   7  25
TORSDOF 6
ENDMDL
MODEL 5
REMARK VINA RESULT:      -6.1      2.697      3.836
REMARK  6 active torsions:
REMARK  status: ('A' for Active; 'I' for Inactive)
REMARK    1  A    between atoms: O_1  and  S_2 
REMARK    2  A    between atoms: S_2  and  N_5 
REMARK    3  A    between atoms: N_5  and  C_6 
REMARK       I    between atoms: N_11  and  C_12 
REMARK    4  A    between atoms: C_12  and  O_14 
REMARK    5  A    between atoms: O_14  and  C_15 
REMARK    6  A    between atoms: C_19  and  C_20 
REMARK       I    between atoms: C_20  and  N_22 
ROOT
HETATM    1  C   UNK N   1      34.251  13.610  10.564  0.00  0.00     0.044 A 
HETATM    2  C   UNK N   1      34.010  12.571   9.656  0.00  0.00     0.031 A 
HETATM    3  C   UNK N   1      33.889  14.919  10.229  0.00  0.00     0.039 A 
HETATM    4  C   UNK N   1      33.273  15.186   9.001  0.00  0.00    -0.032 A 
HETATM    5  C   UNK N   1      32.857  16.581   8.673  0.00  0.00     0.168 C 
HETATM    6  N   UNK N   1      31.757  16.586   7.723  0.00  0.00    -0.310 N 
HETATM    7  C   UNK N   1      30.686  17.407   7.980  0.00  0.00     0.364 C 
HETATM    8  O   UNK N   1      30.659  18.061   9.015  0.00  0.00    -0.238 OA
HETATM    9  C   UNK N   1      31.954  15.815   6.481  0.00  0.00     0.186 C 
HETATM   10  C   UNK N   1      32.349  14.364   6.784  0.00  0.00     0.074 C 
HETATM   11  C   UNK N   1      33.041  14.138   8.091  0.00  0.00    -0.048 A 
HETATM   12  C   UNK N   1      33.415  12.836   8.425  0.00  0.00     0.010 A 
ENDROOT
BRANCH   1  13
HETATM   13  N   UNK N   1      34.839  13.343  11.829  0.00  0.00    -0.273 N 
HETATM   14  H   UNK N   1      34.661  12.477  12.261  0.00  0.00     0.180 HD
BRANCH  13  15
HETATM   15  S   UNK N   1      35.876  14.507  12.651  0.00  0.00     0.199 S 
HETATM   16  O   UNK N   1      35.174  13.761  13.796  0.00  0.00    -0.585 OA
HETATM   17  O   UNK N   1      36.802  13.478  11.986  0.00  0.00    -0.585 OA
BRANCH  15  18
HETATM   18  O   UNK N   1      37.060  13.983  13.776  0.00  0.00    -0.279 OA
HETATM   19  H   UNK N   1      37.831  13.447  13.531  0.00  0.00     0.234 HD
ENDBRANCH  15  18
ENDBRANCH  13  15
ENDBRANCH   1  13
BRANCH   9  20
HETATM   20  C   UNK N   1      30.778  15.752   5.516  0.00  0.00     0.240 C 
HETATM   21  O   UNK N   1      29.917  14.904   5.688  0.00  0.00    -0.271 OA
HETATM   22  N   UNK N   1      30.638  16.628   4.481  0.00  0.00    -0.364 N 
HETATM   23  C   UNK N   1      31.585  17.679   4.195  0.00  0.00     0.149 C 
HETATM   24  H   UNK N   1      29.850  16.538   3.897  0.00  0.00     0.161 HD
ENDBRANCH   9  20
BRANCH   7  25
HETATM   25  O   UNK N   1      29.687  17.559   7.068  0.00  0.00    -0.294 OA
BRANCH  25  26
HETATM   26  C   UNK N   1      28.363  17.834   7.364  0.00  0.00     0.061 C 
HETATM   27  C   UNK N   1      27.908  17.192   8.664  0.00  0.00     0.046 C 
HETATM   28  C   UNK N   1      27.500  17.301   6.242  0.00  0.00     0.046 C 
HETATM   29  C   UNK N   1      28.165  19.339   7.437  0.00  0.00     0.046 C 
ENDBRANCH  25  26
ENDBRANCH   7  25
TORSDOF 6
ENDMDL
MODEL 6
REMARK VINA RESULT:      -5.9      4.035      8.645
REMARK  6 active torsions:
REMARK  status: ('A' for Active; 'I' for Inactive)
REMARK    1  A    between atoms: O_1  and  S_2 
REMARK    2  A    between atoms: S_2  and  N_5 
REMARK    3  A    between atoms: N_5  and  C_6 
REMARK       I    between atoms: N_11  and  C_12 
REMARK    4  A    between atoms: C_12  and  O_14 
REMARK    5  A    between atoms: O_14  and  C_15 
REMARK    6  A    between atoms: C_19  and  C_20 
REMARK       I    between atoms: C_20  and  N_22 
ROOT
HETATM    1  C   UNK N   1      31.188  16.928   8.044  0.00  0.00     0.044 A 
HETATM    2  C   UNK N   1      32.130  17.909   8.379  0.00  0.00     0.031 A 
HETATM    3  C   UNK N   1      31.595  15.599   7.898  0.00  0.00     0.039 A 
HETATM    4  C   UNK N   1      32.935  15.247   8.103  0.00  0.00    -0.032 A 
HETATM    5  C   UNK N   1      33.350  13.818   7.981  0.00  0.00     0.168 C 
HETATM    6  N   UNK N   1      34.536  13.552   8.777  0.00  0.00    -0.310 N 
HETATM    7  C   UNK N   1      34.541  12.430   9.571  0.00  0.00     0.364 C 
HETATM    8  O   UNK N   1      33.541  11.726   9.632  0.00  0.00    -0.238 OA
HETATM    9  C   UNK N   1      35.696  14.433   8.549  0.00  0.00     0.186 C 
HETATM   10  C   UNK N   1      35.312  15.910   8.701  0.00  0.00     0.074 C 
HETATM   11  C   UNK N   1      33.877  16.239   8.432  0.00  0.00    -0.048 A 
HETATM   12  C   UNK N   1      33.467  17.566   8.564  0.00  0.00     0.010 A 
ENDROOT
BRANCH   1  13
HETATM   13  N   UNK N   1      29.819  17.268   7.874  0.00  0.00    -0.273 N 
HETATM   14  H   UNK N   1      29.302  16.814   7.170  0.00  0.00     0.180 HD
BRANCH  13  15
HETATM   15  S   UNK N   1      29.014  18.474   8.877  0.00  0.00     0.199 S 
HETATM   16  O   UNK N   1      28.111  18.356   7.639  0.00  0.00    -0.585 OA
HETATM   17  O   UNK N   1      28.895  17.131   9.612  0.00  0.00    -0.585 OA
BRANCH  15  18
HETATM   18  O   UNK N   1      27.396  18.241   9.394  0.00  0.00    -0.279 OA
HETATM   19  H   UNK N   1      26.891  18.906   9.889  0.00  0.00     0.234 HD
ENDBRANCH  15  18
ENDBRANCH  13  15
ENDBRANCH   1  13
BRANCH   9  20
HETATM   20  C   UNK N   1      36.916  14.209   9.432  0.00  0.00     0.240 C 
HETATM   21  O   UNK N   1      36.965  14.757  10.522  0.00  0.00    -0.271 OA
HETATM   22  N   UNK N   1      37.943  13.394   9.061  0.00  0.00    -0.364 N 
HETATM   23  C   UNK N   1      37.981  12.682   7.806  0.00  0.00     0.149 C 
HETATM   24  H   UNK N   1      38.700  13.285   9.682  0.00  0.00     0.161 HD
ENDBRANCH   9  20
BRANCH   7  25
HETATM   25  O   UNK N   1      35.665  12.052  10.238  0.00  0.00    -0.294 OA
BRANCH  25  26
HETATM   26  C   UNK N   1      35.718  11.645  11.561  0.00  0.00     0.061 C 
HETATM   27  C   UNK N   1      35.008  12.608  12.498  0.00  0.00     0.046 C 
HETATM   28  C   UNK N   1      37.170  11.559  11.978  0.00  0.00     0.046 C 
HETATM   29  C   UNK N   1      35.107  10.260  11.687  0.00  0.00     0.046 C 
ENDBRANCH  25  26
ENDBRANCH   7  25
TORSDOF 6
ENDMDL
MODEL 7
REMARK VINA RESULT:      -5.8      7.366     10.688
REMARK  6 active torsions:
REMARK  status: ('A' for Active; 'I' for Inactive)
REMARK    1  A    between atoms: O_1  and  S_2 
REMARK    2  A    between atoms: S_2  and  N_5 
REMARK    3  A    between atoms: N_5  and  C_6 
REMARK       I    between atoms: N_11  and  C_12 
REMARK    4  A    between atoms: C_12  and  O_14 
REMARK    5  A    between atoms: O_14  and  C_15 
REMARK    6  A    between atoms: C_19  and  C_20 
REMARK       I    between atoms: C_20  and  N_22 
ROOT
HETATM    1  C   UNK N   1      35.790  11.752  16.769  0.00  0.00     0.044 A 
HETATM    2  C   UNK N   1      36.558  10.636  16.414  0.00  0.00     0.031 A 
HETATM    3  C   UNK N   1      35.637  12.804  15.860  0.00  0.00     0.039 A 
HETATM    4  C   UNK N   1      36.235  12.734  14.597  0.00  0.00    -0.032 A 
HETATM    5  C   UNK N   1      36.032  13.847  13.622  0.00  0.00     0.168 C 
HETATM    6  N   UNK N   1      36.175  13.374  12.256  0.00  0.00    -0.310 N 
HETATM    7  C   UNK N   1      35.224  13.754  11.339  0.00  0.00     0.364 C 
HETATM    8  O   UNK N   1      34.265  14.423  11.703  0.00  0.00    -0.238 OA
HETATM    9  C   UNK N   1      37.416  12.645  11.935  0.00  0.00     0.186 C 
HETATM   10  C   UNK N   1      37.636  11.471  12.897  0.00  0.00     0.074 C 
HETATM   11  C   UNK N   1      37.011  11.613  14.250  0.00  0.00    -0.048 A 
HETATM   12  C   UNK N   1      37.170  10.572  15.164  0.00  0.00     0.010 A 
ENDROOT
BRANCH   1  13
HETATM   13  N   UNK N   1      35.147  11.814  18.033  0.00  0.00    -0.273 N 
HETATM   14  H   UNK N   1      34.245  12.206  18.088  0.00  0.00     0.180 HD
BRANCH  13  15
HETATM   15  S   UNK N   1      35.905  11.216  19.508  0.00  0.00     0.199 S 
HETATM   16  O   UNK N   1      35.527  12.667  19.846  0.00  0.00    -0.585 OA
HETATM   17  O   UNK N   1      34.576  10.462  19.353  0.00  0.00    -0.585 OA
BRANCH  15  18
HETATM   18  O   UNK N   1      35.055  11.232  20.998  0.00  0.00    -0.279 OA
HETATM   19  H   UNK N   1      34.088  11.185  21.063  0.00  0.00     0.234 HD
ENDBRANCH  15  18
ENDBRANCH  13  15
ENDBRANCH   1  13
BRANCH   9  20
HETATM   20  C   UNK N   1      37.539  12.080  10.526  0.00  0.00     0.240 C 
HETATM   21  O   UNK N   1      37.109  10.960  10.299  0.00  0.00    -0.271 OA
HETATM   22  N   UNK N   1      38.088  12.792   9.502  0.00  0.00    -0.364 N 
HETATM   23  C   UNK N   1      38.610  14.130   9.653  0.00  0.00     0.149 C 
HETATM   24  H   UNK N   1      38.130  12.373   8.612  0.00  0.00     0.161 HD
ENDBRANCH   9  20
BRANCH   7  25
HETATM   25  O   UNK N   1      35.368  13.457  10.019  0.00  0.00    -0.294 OA
BRANCH  25  26
HETATM   26  C   UNK N   1      34.377  12.951   9.195  0.00  0.00     0.061 C 
HETATM   27  C   UNK N   1      33.214  13.913   9.018  0.00  0.00     0.046 C 
HETATM   28  C   UNK N   1      33.848  11.674   9.811  0.00  0.00     0.046 C 
HETATM   29  C   UNK N   1      34.973  12.609   7.840  0.00  0.00     0.046 C 
ENDBRANCH  25  26
ENDBRANCH   7  25
TORSDOF 6
ENDMDL
MODEL 8
REMARK VINA RESULT:      -5.8     14.922     16.449
REMARK  6 active torsions:
REMARK  status: ('A' for Active; 'I' for Inactive)
REMARK    1  A    between atoms: O_1  and  S_2 
REMARK    2  A    between atoms: S_2  and  N_5 
REMARK    3  A    between atoms: N_5  and  C_6 
REMARK       I    between atoms: N_11  and  C_12 
REMARK    4  A    between atoms: C_12  and  O_14 
REMARK    5  A    between atoms: O_14  and  C_15 
REMARK    6  A    between atoms: C_19  and  C_20 
REMARK       I    between atoms: C_20  and  N_22 
ROOT
HETATM    1  C   UNK N   1      26.163  27.405  -3.972  0.00  0.00     0.044 A 
HETATM    2  C   UNK N   1      25.352  27.779  -5.049  0.00  0.00     0.031 A 
HETATM    3  C   UNK N   1      26.748  26.134  -3.955  0.00  0.00     0.039 A 
HETATM    4  C   UNK N   1      26.538  25.249  -5.019  0.00  0.00    -0.032 A 
HETATM    5  C   UNK N   1      27.199  23.911  -5.007  0.00  0.00     0.168 C 
HETATM    6  N   UNK N   1      27.378  23.407  -6.359  0.00  0.00    -0.310 N 
HETATM    7  C   UNK N   1      28.603  22.883  -6.695  0.00  0.00     0.364 C 
HETATM    8  O   UNK N   1      29.516  22.905  -5.879  0.00  0.00    -0.238 OA
HETATM    9  C   UNK N   1      26.176  23.366  -7.213  0.00  0.00     0.186 C 
HETATM   10  C   UNK N   1      25.491  24.737  -7.275  0.00  0.00     0.074 C 
HETATM   11  C   UNK N   1      25.715  25.630  -6.095  0.00  0.00    -0.048 A 
HETATM   12  C   UNK N   1      25.123  26.894  -6.100  0.00  0.00     0.010 A 
ENDROOT
BRANCH   1  13
HETATM   13  N   UNK N   1      26.415  28.310  -2.907  0.00  0.00    -0.273 N 
HETATM   14  H   UNK N   1      25.867  28.248  -2.092  0.00  0.00     0.180 HD
BRANCH  13  15
HETATM   15  S   UNK N   1      27.675  29.540  -2.993  0.00  0.00     0.199 S 
HETATM   16  O   UNK N   1      26.378  30.316  -3.268  0.00  0.00    -0.585 OA
HETATM   17  O   UNK N   1      27.591  29.090  -1.527  0.00  0.00    -0.585 OA
BRANCH  15  18
HETATM   18  O   UNK N   1      27.626  30.915  -1.969  0.00  0.00    -0.279 OA
HETATM   19  H   UNK N   1      26.832  31.457  -1.838  0.00  0.00     0.234 HD
ENDBRANCH  15  18
ENDBRANCH  13  15
ENDBRANCH   1  13
BRANCH   9  20
HETATM   20  C   UNK N   1      26.370  22.913  -8.653  0.00  0.00     0.240 C 
HETATM   21  O   UNK N   1      26.778  23.717  -9.477  0.00  0.00    -0.271 OA
HETATM   22  N   UNK N   1      26.130  21.631  -9.051  0.00  0.00    -0.364 N 
HETATM   23  C   UNK N   1      25.663  20.596  -8.160  0.00  0.00     0.149 C 
HETATM   24  H   UNK N   1      26.283  21.400  -9.996  0.00  0.00     0.161 HD
ENDBRANCH   9  20
BRANCH   7  25
HETATM   25  O   UNK N   1      28.796  22.276  -7.897  0.00  0.00    -0.294 OA
BRANCH  25  26
HETATM   26  C   UNK N   1      29.690  21.247  -8.144  0.00  0.00     0.061 C 
HETATM   27  C   UNK N   1      31.130  21.641  -7.859  0.00  0.00     0.046 C 
HETATM   28  C   UNK N   1      29.583  20.858  -9.603  0.00  0.00     0.046 C 
HETATM   29  C   UNK N   1      29.312  20.038  -7.304  0.00  0.00     0.046 C 
ENDBRANCH  25  26
ENDBRANCH   7  25
TORSDOF 6
ENDMDL
MODEL 9
REMARK VINA RESULT:      -5.8      4.361      8.992
REMARK  6 active torsions:
REMARK  status: ('A' for Active; 'I' for Inactive)
REMARK    1  A    between atoms: O_1  and  S_2 
REMARK    2  A    between atoms: S_2  and  N_5 
REMARK    3  A    between atoms: N_5  and  C_6 
REMARK       I    between atoms: N_11  and  C_12 
REMARK    4  A    between atoms: C_12  and  O_14 
REMARK    5  A    between atoms: O_14  and  C_15 
REMARK    6  A    between atoms: C_19  and  C_20 
REMARK       I    between atoms: C_20  and  N_22 
ROOT
HETATM    1  C   UNK N   1      32.584  16.920   6.891  0.00  0.00     0.044 A 
HETATM    2  C   UNK N   1      33.076  17.902   7.760  0.00  0.00     0.031 A 
HETATM    3  C   UNK N   1      33.047  15.605   7.002  0.00  0.00     0.039 A 
HETATM    4  C   UNK N   1      33.983  15.269   7.987  0.00  0.00    -0.032 A 
HETATM    5  C   UNK N   1      34.439  13.854   8.119  0.00  0.00     0.168 C 
HETATM    6  N   UNK N   1      34.885  13.575   9.474  0.00  0.00    -0.310 N 
HETATM    7  C   UNK N   1      34.441  12.423  10.075  0.00  0.00     0.364 C 
HETATM    8  O   UNK N   1      33.647  11.699   9.486  0.00  0.00    -0.238 OA
HETATM    9  C   UNK N   1      35.901  14.485  10.035  0.00  0.00     0.186 C 
HETATM   10  C   UNK N   1      35.447  15.948   9.947  0.00  0.00     0.074 C 
HETATM   11  C   UNK N   1      34.477  16.263   8.851  0.00  0.00    -0.048 A 
HETATM   12  C   UNK N   1      34.022  17.576   8.729  0.00  0.00     0.010 A 
ENDROOT
BRANCH   1  13
HETATM   13  N   UNK N   1      31.605  17.242   5.915  0.00  0.00    -0.273 N 
HETATM   14  H   UNK N   1      30.946  17.945   6.118  0.00  0.00     0.180 HD
BRANCH  13  15
HETATM   15  S   UNK N   1      31.528  16.431   4.352  0.00  0.00     0.199 S 
HETATM   16  O   UNK N   1      30.061  16.749   4.679  0.00  0.00    -0.585 OA
HETATM   17  O   UNK N   1      32.209  17.787   4.116  0.00  0.00    -0.585 OA
BRANCH  15  18
HETATM   18  O   UNK N   1      30.817  17.206   2.997  0.00  0.00    -0.279 OA
HETATM   19  H   UNK N   1      29.985  17.703   3.041  0.00  0.00     0.234 HD
ENDBRANCH  15  18
ENDBRANCH  13  15
ENDBRANCH   1  13
BRANCH   9  20
HETATM   20  C   UNK N   1      36.317  14.247  11.480  0.00  0.00     0.240 C 
HETATM   21  O   UNK N   1      35.627  14.705  12.377  0.00  0.00    -0.271 OA
HETATM   22  N   UNK N   1      37.419  13.515  11.809  0.00  0.00    -0.364 N 
HETATM   23  C   UNK N   1      38.294  12.913  10.831  0.00  0.00     0.149 C 
HETATM   24  H   UNK N   1      37.628  13.390  12.763  0.00  0.00     0.161 HD
ENDBRANCH   9  20
BRANCH   7  25
HETATM   25  O   UNK N   1      34.923  12.037  11.287  0.00  0.00    -0.294 OA
BRANCH  25  26
HETATM   26  C   UNK N   1      35.080  10.727  11.711  0.00  0.00     0.061 C 
HETATM   27  C   UNK N   1      33.755   9.994  11.848  0.00  0.00     0.046 C 
HETATM   28  C   UNK N   1      35.760  10.739  13.063  0.00  0.00     0.046 C 
HETATM   29  C   UNK N   1      35.979   9.986  10.736  0.00  0.00     0.046 C 
ENDBRANCH  25  26
ENDBRANCH   7  25
TORSDOF 6
ENDMDL
