MODEL 1
REMARK VINA RESULT:      -7.8      0.000      0.000
REMARK  2 active torsions:
REMARK  status: ('A' for Active; 'I' for Inactive)
REMARK    1  A    between atoms: C_1  and  O_2 
REMARK    2  A    between atoms: C_3  and  O_21 
ROOT
HETATM    1  C   UNK N   1      31.027  20.940  -4.247  0.00  0.00     0.099 A 
HETATM    2  C   UNK N   1      31.116  21.796  -3.140  0.00  0.00     0.099 A 
HETATM    3  C   UNK N   1      30.326  22.946  -3.081  0.00  0.00     0.047 A 
HETATM    4  C   UNK N   1      30.165  21.254  -5.305  0.00  0.00     0.047 A 
HETATM    5  C   UNK N   1      29.386  22.415  -5.253  0.00  0.00    -0.049 A 
HETATM    6  C   UNK N   1      28.501  22.789  -6.396  0.00  0.00     0.039 C 
HETATM    7  C   UNK N   1      27.138  23.184  -5.855  0.00  0.00     0.010 C 
HETATM    8  C   UNK N   1      27.211  24.337  -4.832  0.00  0.00    -0.001 C 
HETATM    9  C   UNK N   1      26.808  25.688  -5.467  0.00  0.00     0.001 C 
HETATM   10  C   UNK N   1      25.350  25.843  -5.862  0.00  0.00     0.008 C 
HETATM   11  C   UNK N   1      25.097  27.359  -5.803  0.00  0.00     0.033 C 
HETATM   12  C   UNK N   1      26.362  28.009  -5.221  0.00  0.00     0.126 C 
HETATM   13  O   UNK N   1      27.141  28.481  -6.281  0.00  0.00    -0.395 OA
HETATM   14  C   UNK N   1      27.054  26.850  -4.512  0.00  0.00    -0.014 C 
HETATM   15  C   UNK N   1      26.365  26.647  -3.157  0.00  0.00     0.018 C 
HETATM   16  C   UNK N   1      28.567  27.041  -4.280  0.00  0.00     0.013 C 
HETATM   17  C   UNK N   1      29.379  25.732  -4.447  0.00  0.00     0.010 C 
HETATM   18  C   UNK N   1      28.576  24.479  -4.052  0.00  0.00     0.024 C 
HETATM   19  C   UNK N   1      29.448  23.255  -4.129  0.00  0.00    -0.044 A 
HETATM   20  H   UNK N   1      27.721  28.726  -7.020  0.00  0.00     0.210 HD
ENDROOT
BRANCH   2  21
HETATM   21  O   UNK N   1      31.958  21.515  -2.130  0.00  0.00    -0.358 OA
HETATM   22  H   UNK N   1      32.014  20.653  -1.767  0.00  0.00     0.217 HD
ENDBRANCH   2  21
BRANCH   1  23
HETATM   23  O   UNK N   1      31.770  19.823  -4.302  0.00  0.00    -0.358 OA
HETATM   24  H   UNK N   1      31.714  19.181  -3.621  0.00  0.00     0.217 HD
ENDBRANCH   1  23
TORSDOF 2
ENDMDL
MODEL 2
REMARK VINA RESULT:      -7.3     21.816     25.223
REMARK  2 active torsions:
REMARK  status: ('A' for Active; 'I' for Inactive)
REMARK    1  A    between atoms: C_1  and  O_2 
REMARK    2  A    between atoms: C_3  and  O_21 
ROOT
HETATM    1  C   UNK N   1      35.467  11.380  19.832  0.00  0.00     0.099 A 
HETATM    2  C   UNK N   1      35.047  12.668  19.474  0.00  0.00     0.099 A 
HETATM    3  C   UNK N   1      35.087  13.070  18.138  0.00  0.00     0.047 A 
HETATM    4  C   UNK N   1      35.952  10.506  18.851  0.00  0.00     0.047 A 
HETATM    5  C   UNK N   1      36.007  10.915  17.514  0.00  0.00    -0.049 A 
HETATM    6  C   UNK N   1      36.570  10.012  16.465  0.00  0.00     0.039 C 
HETATM    7  C   UNK N   1      35.636  10.008  15.268  0.00  0.00     0.010 C 
HETATM    8  C   UNK N   1      35.396  11.419  14.690  0.00  0.00    -0.001 C 
HETATM    9  C   UNK N   1      36.237  11.665  13.416  0.00  0.00     0.001 C 
HETATM   10  C   UNK N   1      35.854  10.861  12.186  0.00  0.00     0.008 C 
HETATM   11  C   UNK N   1      36.322  11.725  11.004  0.00  0.00     0.033 C 
HETATM   12  C   UNK N   1      36.808  13.063  11.583  0.00  0.00     0.126 C 
HETATM   13  O   UNK N   1      38.199  13.009  11.709  0.00  0.00    -0.395 OA
HETATM   14  C   UNK N   1      36.140  13.113  12.953  0.00  0.00    -0.014 C 
HETATM   15  C   UNK N   1      34.688  13.565  12.754  0.00  0.00     0.018 C 
HETATM   16  C   UNK N   1      36.820  14.048  13.973  0.00  0.00     0.013 C 
HETATM   17  C   UNK N   1      36.805  13.488  15.418  0.00  0.00     0.010 C 
HETATM   18  C   UNK N   1      35.569  12.615  15.705  0.00  0.00     0.024 C 
HETATM   19  C   UNK N   1      35.553  12.193  17.149  0.00  0.00    -0.044 A 
HETATM   20  H   UNK N   1      39.152  12.936  11.879  0.00  0.00     0.210 HD
ENDROOT
BRANCH   2  21
HETATM   21  O   UNK N   1      34.602  13.523  20.413  0.00  0.00    -0.358 OA
HETATM   22  H   UNK N   1      35.158  14.187  20.770  0.00  0.00     0.217 HD
ENDBRANCH   2  21
BRANCH   1  23
HETATM   23  O   UNK N   1      35.415  10.980  21.113  0.00  0.00    -0.358 OA
HETATM   24  H   UNK N   1      34.853  10.276  21.368  0.00  0.00     0.217 HD
ENDBRANCH   1  23
TORSDOF 2
ENDMDL
MODEL 3
REMARK VINA RESULT:      -7.3     23.162     26.705
REMARK  2 active torsions:
REMARK  status: ('A' for Active; 'I' for Inactive)
REMARK    1  A    between atoms: C_1  and  O_2 
REMARK    2  A    between atoms: C_3  and  O_21 
ROOT
HETATM    1  C   UNK N   1      35.587  13.735  13.494  0.00  0.00     0.099 A 
HETATM    2  C   UNK N   1      36.443  14.220  14.491  0.00  0.00     0.099 A 
HETATM    3  C   UNK N   1      36.527  13.564  15.721  0.00  0.00     0.047 A 
HETATM    4  C   UNK N   1      34.794  12.608  13.742  0.00  0.00     0.047 A 
HETATM    5  C   UNK N   1      34.865  11.960  14.980  0.00  0.00    -0.049 A 
HETATM    6  C   UNK N   1      33.988  10.788  15.277  0.00  0.00     0.039 C 
HETATM    7  C   UNK N   1      34.829   9.691  15.904  0.00  0.00     0.010 C 
HETATM    8  C   UNK N   1      35.559  10.153  17.183  0.00  0.00    -0.001 C 
HETATM    9  C   UNK N   1      34.841   9.659  18.460  0.00  0.00     0.001 C 
HETATM   10  C   UNK N   1      34.875   8.164  18.722  0.00  0.00     0.008 C 
HETATM   11  C   UNK N   1      34.733   8.040  20.248  0.00  0.00     0.033 C 
HETATM   12  C   UNK N   1      34.786   9.462  20.827  0.00  0.00     0.126 C 
HETATM   13  O   UNK N   1      33.476   9.900  21.040  0.00  0.00    -0.395 OA
HETATM   14  C   UNK N   1      35.454  10.266  19.717  0.00  0.00    -0.014 C 
HETATM   15  C   UNK N   1      36.966  10.023  19.803  0.00  0.00     0.018 C 
HETATM   16  C   UNK N   1      35.188  11.784  19.764  0.00  0.00     0.013 C 
HETATM   17  C   UNK N   1      35.026  12.418  18.359  0.00  0.00     0.010 C 
HETATM   18  C   UNK N   1      35.860  11.699  17.282  0.00  0.00     0.024 C 
HETATM   19  C   UNK N   1      35.749  12.424  15.967  0.00  0.00    -0.044 A 
HETATM   20  H   UNK N   1      32.567  10.235  21.101  0.00  0.00     0.210 HD
ENDROOT
BRANCH   2  21
HETATM   21  O   UNK N   1      37.192  15.316  14.271  0.00  0.00    -0.358 OA
HETATM   22  H   UNK N   1      37.050  15.861  13.522  0.00  0.00     0.217 HD
ENDBRANCH   2  21
BRANCH   1  23
HETATM   23  O   UNK N   1      35.515  14.351  12.302  0.00  0.00    -0.358 OA
HETATM   24  H   UNK N   1      35.748  15.255  12.221  0.00  0.00     0.217 HD
ENDBRANCH   1  23
TORSDOF 2
ENDMDL
MODEL 4
REMARK VINA RESULT:      -7.3     23.465     26.096
REMARK  2 active torsions:
REMARK  status: ('A' for Active; 'I' for Inactive)
REMARK    1  A    between atoms: C_1  and  O_2 
REMARK    2  A    between atoms: C_3  and  O_21 
ROOT
HETATM    1  C   UNK N   1      35.011  12.824  19.523  0.00  0.00     0.099 A 
HETATM    2  C   UNK N   1      35.361  11.475  19.668  0.00  0.00     0.099 A 
HETATM    3  C   UNK N   1      35.777  10.737  18.558  0.00  0.00     0.047 A 
HETATM    4  C   UNK N   1      35.051  13.424  18.258  0.00  0.00     0.047 A 
HETATM    5  C   UNK N   1      35.451  12.680  17.143  0.00  0.00    -0.049 A 
HETATM    6  C   UNK N   1      35.450  13.292  15.780  0.00  0.00     0.039 C 
HETATM    7  C   UNK N   1      36.758  12.954  15.088  0.00  0.00     0.010 C 
HETATM    8  C   UNK N   1      37.011  11.434  14.994  0.00  0.00    -0.001 C 
HETATM    9  C   UNK N   1      36.688  10.887  13.584  0.00  0.00     0.001 C 
HETATM   10  C   UNK N   1      37.609  11.328  12.460  0.00  0.00     0.008 C 
HETATM   11  C   UNK N   1      37.512  10.198  11.422  0.00  0.00     0.033 C 
HETATM   12  C   UNK N   1      36.673   9.074  12.049  0.00  0.00     0.126 C 
HETATM   13  O   UNK N   1      35.357   9.201  11.595  0.00  0.00    -0.395 OA
HETATM   14  C   UNK N   1      36.762   9.366  13.544  0.00  0.00    -0.014 C 
HETATM   15  C   UNK N   1      38.108   8.834  14.049  0.00  0.00     0.018 C 
HETATM   16  C   UNK N   1      35.631   8.752  14.394  0.00  0.00     0.013 C 
HETATM   17  C   UNK N   1      35.173   9.672  15.554  0.00  0.00     0.010 C 
HETATM   18  C   UNK N   1      36.312  10.552  16.101  0.00  0.00     0.024 C 
HETATM   19  C   UNK N   1      35.837  11.338  17.293  0.00  0.00    -0.044 A 
HETATM   20  H   UNK N   1      34.429   9.345  11.350  0.00  0.00     0.210 HD
ENDROOT
BRANCH   2  21
HETATM   21  O   UNK N   1      35.304  10.884  20.875  0.00  0.00    -0.358 OA
HETATM   22  H   UNK N   1      35.816  11.195  21.595  0.00  0.00     0.217 HD
ENDBRANCH   2  21
BRANCH   1  23
HETATM   23  O   UNK N   1      34.628  13.545  20.590  0.00  0.00    -0.358 OA
HETATM   24  H   UNK N   1      33.848  13.321  21.058  0.00  0.00     0.217 HD
ENDBRANCH   1  23
TORSDOF 2
ENDMDL
MODEL 5
REMARK VINA RESULT:      -7.2     13.315     14.883
REMARK  2 active torsions:
REMARK  status: ('A' for Active; 'I' for Inactive)
REMARK    1  A    between atoms: C_1  and  O_2 
REMARK    2  A    between atoms: C_3  and  O_21 
ROOT
HETATM    1  C   UNK N   1      20.767  19.996   1.506  0.00  0.00     0.099 A 
HETATM    2  C   UNK N   1      21.526  20.420   2.606  0.00  0.00     0.099 A 
HETATM    3  C   UNK N   1      21.869  19.512   3.610  0.00  0.00     0.047 A 
HETATM    4  C   UNK N   1      20.331  18.668   1.429  0.00  0.00     0.047 A 
HETATM    5  C   UNK N   1      20.660  17.763   2.443  0.00  0.00    -0.049 A 
HETATM    6  C   UNK N   1      20.158  16.357   2.401  0.00  0.00     0.039 C 
HETATM    7  C   UNK N   1      21.307  15.414   2.711  0.00  0.00     0.010 C 
HETATM    8  C   UNK N   1      21.970  15.707   4.074  0.00  0.00    -0.001 C 
HETATM    9  C   UNK N   1      21.503  14.711   5.161  0.00  0.00     0.001 C 
HETATM   10  C   UNK N   1      21.961  13.272   5.004  0.00  0.00     0.008 C 
HETATM   11  C   UNK N   1      21.963  12.713   6.436  0.00  0.00     0.033 C 
HETATM   12  C   UNK N   1      21.666  13.886   7.383  0.00  0.00     0.126 C 
HETATM   13  O   UNK N   1      20.304  13.866   7.696  0.00  0.00    -0.395 OA
HETATM   14  C   UNK N   1      22.012  15.110   6.541  0.00  0.00    -0.014 C 
HETATM   15  C   UNK N   1      23.535  15.288   6.571  0.00  0.00     0.018 C 
HETATM   16  C   UNK N   1      21.346  16.423   6.999  0.00  0.00     0.013 C 
HETATM   17  C   UNK N   1      20.922  17.335   5.820  0.00  0.00     0.010 C 
HETATM   18  C   UNK N   1      21.844  17.191   4.595  0.00  0.00     0.024 C 
HETATM   19  C   UNK N   1      21.450  18.177   3.528  0.00  0.00    -0.044 A 
HETATM   20  H   UNK N   1      19.345  13.903   7.838  0.00  0.00     0.210 HD
ENDROOT
BRANCH   2  21
HETATM   21  O   UNK N   1      21.931  21.700   2.700  0.00  0.00    -0.358 OA
HETATM   22  H   UNK N   1      21.404  22.402   2.375  0.00  0.00     0.217 HD
ENDBRANCH   2  21
BRANCH   1  23
HETATM   23  O   UNK N   1      20.449  20.860   0.528  0.00  0.00    -0.358 OA
HETATM   24  H   UNK N   1      19.553  21.016   0.305  0.00  0.00     0.217 HD
ENDBRANCH   1  23
TORSDOF 2
ENDMDL
MODEL 6
REMARK VINA RESULT:      -7.2     16.965     18.212
REMARK  2 active torsions:
REMARK  status: ('A' for Active; 'I' for Inactive)
REMARK    1  A    between atoms: C_1  and  O_2 
REMARK    2  A    between atoms: C_3  and  O_21 
ROOT
HETATM    1  C   UNK N   1      22.861  11.930  12.011  0.00  0.00     0.099 A 
HETATM    2  C   UNK N   1      24.012  12.173  11.248  0.00  0.00     0.099 A 
HETATM    3  C   UNK N   1      23.913  12.847  10.029  0.00  0.00     0.047 A 
HETATM    4  C   UNK N   1      21.609  12.341  11.536  0.00  0.00     0.047 A 
HETATM    5  C   UNK N   1      21.508  13.001  10.307  0.00  0.00    -0.049 A 
HETATM    6  C   UNK N   1      20.175  13.399   9.764  0.00  0.00     0.039 C 
HETATM    7  C   UNK N   1      20.252  14.832   9.270  0.00  0.00     0.010 C 
HETATM    8  C   UNK N   1      21.350  15.040   8.204  0.00  0.00    -0.001 C 
HETATM    9  C   UNK N   1      20.756  15.095   6.777  0.00  0.00     0.001 C 
HETATM   10  C   UNK N   1      19.903  16.306   6.445  0.00  0.00     0.008 C 
HETATM   11  C   UNK N   1      20.025  16.452   4.919  0.00  0.00     0.033 C 
HETATM   12  C   UNK N   1      21.068  15.429   4.446  0.00  0.00     0.126 C 
HETATM   13  O   UNK N   1      20.394  14.294   3.984  0.00  0.00    -0.395 OA
HETATM   14  C   UNK N   1      21.851  15.115   5.717  0.00  0.00    -0.014 C 
HETATM   15  C   UNK N   1      22.859  16.249   5.942  0.00  0.00     0.018 C 
HETATM   16  C   UNK N   1      22.605  13.770   5.700  0.00  0.00     0.013 C 
HETATM   17  C   UNK N   1      22.596  13.049   7.072  0.00  0.00     0.010 C 
HETATM   18  C   UNK N   1      22.561  14.029   8.259  0.00  0.00     0.024 C 
HETATM   19  C   UNK N   1      22.664  13.277   9.559  0.00  0.00    -0.044 A 
HETATM   20  H   UNK N   1      19.928  13.476   3.750  0.00  0.00     0.210 HD
ENDROOT
BRANCH   2  21
HETATM   21  O   UNK N   1      25.216  11.762  11.684  0.00  0.00    -0.358 OA
HETATM   22  H   UNK N   1      25.442  10.853  11.707  0.00  0.00     0.217 HD
ENDBRANCH   2  21
BRANCH   1  23
HETATM   23  O   UNK N   1      22.951  11.298  13.193  0.00  0.00    -0.358 OA
HETATM   24  H   UNK N   1      22.528  10.473  13.323  0.00  0.00     0.217 HD
ENDBRANCH   1  23
TORSDOF 2
ENDMDL
MODEL 7
REMARK VINA RESULT:      -7.1     21.657     24.989
REMARK  2 active torsions:
REMARK  status: ('A' for Active; 'I' for Inactive)
REMARK    1  A    between atoms: C_1  and  O_2 
REMARK    2  A    between atoms: C_3  and  O_21 
ROOT
HETATM    1  C   UNK N   1      35.320  10.402  19.465  0.00  0.00     0.099 A 
HETATM    2  C   UNK N   1      35.553   9.443  18.470  0.00  0.00     0.099 A 
HETATM    3  C   UNK N   1      35.688   9.836  17.138  0.00  0.00     0.047 A 
HETATM    4  C   UNK N   1      35.196  11.753  19.117  0.00  0.00     0.047 A 
HETATM    5  C   UNK N   1      35.315  12.146  17.780  0.00  0.00    -0.049 A 
HETATM    6  C   UNK N   1      35.133  13.575  17.387  0.00  0.00     0.039 C 
HETATM    7  C   UNK N   1      36.257  13.974  16.448  0.00  0.00     0.010 C 
HETATM    8  C   UNK N   1      36.335  13.078  15.193  0.00  0.00    -0.001 C 
HETATM    9  C   UNK N   1      35.714  13.771  13.958  0.00  0.00     0.001 C 
HETATM   10  C   UNK N   1      36.460  14.974  13.409  0.00  0.00     0.008 C 
HETATM   11  C   UNK N   1      36.067  15.023  11.924  0.00  0.00     0.033 C 
HETATM   12  C   UNK N   1      35.244  13.759  11.629  0.00  0.00     0.126 C 
HETATM   13  O   UNK N   1      33.887  14.094  11.692  0.00  0.00    -0.395 OA
HETATM   14  C   UNK N   1      35.625  12.821  12.769  0.00  0.00    -0.014 C 
HETATM   15  C   UNK N   1      36.979  12.188  12.427  0.00  0.00     0.018 C 
HETATM   16  C   UNK N   1      34.607  11.699  13.056  0.00  0.00     0.013 C 
HETATM   17  C   UNK N   1      34.457  11.382  14.565  0.00  0.00     0.010 C 
HETATM   18  C   UNK N   1      35.758  11.618  15.354  0.00  0.00     0.024 C 
HETATM   19  C   UNK N   1      35.584  11.190  16.787  0.00  0.00    -0.044 A 
HETATM   20  H   UNK N   1      32.950  14.307  11.825  0.00  0.00     0.210 HD
ENDROOT
BRANCH   2  21
HETATM   21  O   UNK N   1      35.651   8.140  18.792  0.00  0.00    -0.358 OA
HETATM   22  H   UNK N   1      34.942   7.685  19.201  0.00  0.00     0.217 HD
ENDBRANCH   2  21
BRANCH   1  23
HETATM   23  O   UNK N   1      35.207  10.032  20.752  0.00  0.00    -0.358 OA
HETATM   24  H   UNK N   1      35.096   9.130  20.978  0.00  0.00     0.217 HD
ENDBRANCH   1  23
TORSDOF 2
ENDMDL
MODEL 8
REMARK VINA RESULT:      -7.0     11.776     14.337
REMARK  2 active torsions:
REMARK  status: ('A' for Active; 'I' for Inactive)
REMARK    1  A    between atoms: C_1  and  O_2 
REMARK    2  A    between atoms: C_3  and  O_21 
ROOT
HETATM    1  C   UNK N   1      34.429  15.611   9.017  0.00  0.00     0.099 A 
HETATM    2  C   UNK N   1      33.313  15.366   9.829  0.00  0.00     0.099 A 
HETATM    3  C   UNK N   1      32.038  15.732   9.395  0.00  0.00     0.047 A 
HETATM    4  C   UNK N   1      34.266  16.248   7.780  0.00  0.00     0.047 A 
HETATM    5  C   UNK N   1      32.990  16.630   7.352  0.00  0.00    -0.049 A 
HETATM    6  C   UNK N   1      32.807  17.356   6.060  0.00  0.00     0.039 C 
HETATM    7  C   UNK N   1      31.660  16.719   5.296  0.00  0.00     0.010 C 
HETATM    8  C   UNK N   1      30.340  16.706   6.097  0.00  0.00    -0.001 C 
HETATM    9  C   UNK N   1      29.381  17.828   5.634  0.00  0.00     0.001 C 
HETATM   10  C   UNK N   1      28.790  17.682   4.243  0.00  0.00     0.008 C 
HETATM   11  C   UNK N   1      27.465  18.460   4.308  0.00  0.00     0.033 C 
HETATM   12  C   UNK N   1      27.259  18.887   5.769  0.00  0.00     0.126 C 
HETATM   13  O   UNK N   1      27.697  20.207   5.908  0.00  0.00    -0.395 OA
HETATM   14  C   UNK N   1      28.162  17.931   6.542  0.00  0.00    -0.014 C 
HETATM   15  C   UNK N   1      27.424  16.594   6.682  0.00  0.00     0.018 C 
HETATM   16  C   UNK N   1      28.579  18.421   7.944  0.00  0.00     0.013 C 
HETATM   17  C   UNK N   1      30.035  18.044   8.314  0.00  0.00     0.010 C 
HETATM   18  C   UNK N   1      30.490  16.722   7.668  0.00  0.00     0.024 C 
HETATM   19  C   UNK N   1      31.868  16.353   8.149  0.00  0.00    -0.044 A 
HETATM   20  H   UNK N   1      28.085  21.090   6.022  0.00  0.00     0.210 HD
ENDROOT
BRANCH   2  21
HETATM   21  O   UNK N   1      33.463  14.776  11.029  0.00  0.00    -0.358 OA
HETATM   22  H   UNK N   1      33.682  13.868  11.101  0.00  0.00     0.217 HD
ENDBRANCH   2  21
BRANCH   1  23
HETATM   23  O   UNK N   1      35.656  15.244   9.421  0.00  0.00    -0.358 OA
HETATM   24  H   UNK N   1      36.084  14.508   9.031  0.00  0.00     0.217 HD
ENDBRANCH   1  23
TORSDOF 2
ENDMDL
MODEL 9
REMARK VINA RESULT:      -6.9     12.445     14.991
REMARK  2 active torsions:
REMARK  status: ('A' for Active; 'I' for Inactive)
REMARK    1  A    between atoms: C_1  and  O_2 
REMARK    2  A    between atoms: C_3  and  O_21 
ROOT
HETATM    1  C   UNK N   1      28.552  18.556   8.260  0.00  0.00     0.099 A 
HETATM    2  C   UNK N   1      29.628  18.198   9.084  0.00  0.00     0.099 A 
HETATM    3  C   UNK N   1      30.708  17.491   8.554  0.00  0.00     0.047 A 
HETATM    4  C   UNK N   1      28.549  18.179   6.911  0.00  0.00     0.047 A 
HETATM    5  C   UNK N   1      29.624  17.455   6.385  0.00  0.00    -0.049 A 
HETATM    6  C   UNK N   1      29.611  17.001   4.962  0.00  0.00     0.039 C 
HETATM    7  C   UNK N   1      30.956  17.320   4.332  0.00  0.00     0.010 C 
HETATM    8  C   UNK N   1      32.138  16.680   5.089  0.00  0.00    -0.001 C 
HETATM    9  C   UNK N   1      32.654  15.409   4.374  0.00  0.00     0.001 C 
HETATM   10  C   UNK N   1      33.342  15.617   3.036  0.00  0.00     0.008 C 
HETATM   11  C   UNK N   1      34.289  14.413   2.903  0.00  0.00     0.033 C 
HETATM   12  C   UNK N   1      34.237  13.644   4.232  0.00  0.00     0.126 C 
HETATM   13  O   UNK N   1      33.343  12.578   4.088  0.00  0.00    -0.395 OA
HETATM   14  C   UNK N   1      33.695  14.678   5.213  0.00  0.00    -0.014 C 
HETATM   15  C   UNK N   1      34.856  15.591   5.625  0.00  0.00     0.018 C 
HETATM   16  C   UNK N   1      33.044  14.092   6.482  0.00  0.00     0.013 C 
HETATM   17  C   UNK N   1      31.803  14.889   6.954  0.00  0.00     0.010 C 
HETATM   18  C   UNK N   1      31.897  16.390   6.622  0.00  0.00     0.024 C 
HETATM   19  C   UNK N   1      30.719  17.127   7.200  0.00  0.00    -0.044 A 
HETATM   20  H   UNK N   1      32.657  11.896   4.015  0.00  0.00     0.210 HD
ENDROOT
BRANCH   2  21
HETATM   21  O   UNK N   1      29.629  18.536  10.386  0.00  0.00    -0.358 OA
HETATM   22  H   UNK N   1      30.351  18.324  10.944  0.00  0.00     0.217 HD
ENDBRANCH   2  21
BRANCH   1  23
HETATM   23  O   UNK N   1      27.517  19.252   8.759  0.00  0.00    -0.358 OA
HETATM   24  H   UNK N   1      27.283  20.082   8.393  0.00  0.00     0.217 HD
ENDBRANCH   1  23
TORSDOF 2
ENDMDL
