MODEL 1
REMARK VINA RESULT:      -8.4      0.000      0.000
REMARK  6 active torsions:
REMARK  status: ('A' for Active; 'I' for Inactive)
REMARK    1  A    between atoms: C_3  and  C_7 
REMARK    2  A    between atoms: C_6  and  N_24 
REMARK    3  A    between atoms: C_7  and  O_29 
REMARK    4  A    between atoms: C_9  and  C_22 
REMARK    5  A    between atoms: C_22  and  C_23 
REMARK    6  A    between atoms: C_22  and  O_26 
REMARK       I    between atoms: C_23  and  N_24 
ROOT
HETATM    1  C   UNK N   1      33.926  17.971   8.307  0.00  0.00     0.243 C 
ENDROOT
BRANCH   1   2
HETATM    2  C   UNK N   1      32.591  17.446   7.854  0.00  0.00    -0.020 A 
HETATM    3  C   UNK N   1      32.468  17.027   6.531  0.00  0.00     0.018 A 
HETATM    4  C   UNK N   1      31.217  16.915   5.916  0.00  0.00    -0.043 A 
HETATM    5  C   UNK N   1      30.058  17.313   6.632  0.00  0.00    -0.043 A 
HETATM    6  C   UNK N   1      31.152  16.441   4.478  0.00  0.00    -0.020 C 
HETATM    7  C   UNK N   1      30.177  17.668   7.986  0.00  0.00     0.009 A 
HETATM    8  C   UNK N   1      28.713  17.474   5.939  0.00  0.00    -0.020 C 
HETATM    9  C   UNK N   1      31.433  17.750   8.586  0.00  0.00     0.011 A 
HETATM   10  C   UNK N   1      28.829  17.375   4.417  0.00  0.00     0.015 C 
HETATM   11  C   UNK N   1      27.706  16.469   6.464  0.00  0.00     0.020 C 
HETATM   12  C   UNK N   1      28.183  18.875   6.208  0.00  0.00     0.020 C 
HETATM   13  C   UNK N   1      29.715  16.218   4.009  0.00  0.00     0.015 C 
HETATM   14  C   UNK N   1      31.851  17.450   3.580  0.00  0.00     0.020 C 
HETATM   15  C   UNK N   1      31.858  15.103   4.338  0.00  0.00     0.020 C 
ENDBRANCH   1   2
BRANCH   1  16
HETATM   16  C   UNK N   1      34.663  17.044   9.212  0.00  0.00     0.255 C 
HETATM   17  N   UNK N   1      34.524  15.699   9.101  0.00  0.00    -0.322 N 
HETATM   18  H   UNK N   1      34.011  15.314   8.354  0.00  0.00     0.169 HD
HETATM   19  O   UNK N   1      35.408  17.517  10.070  0.00  0.00    -0.270 OA
BRANCH  17  20
HETATM   20  C   UNK N   1      35.118  14.860  10.061  0.00  0.00     0.073 A 
HETATM   21  C   UNK N   1      36.375  14.275   9.839  0.00  0.00     0.144 A 
HETATM   22  C   UNK N   1      37.005  13.578  10.877  0.00  0.00     0.062 A 
HETATM   23  F   UNK N   1      37.012  14.437   8.651  0.00  0.00    -0.204 F 
HETATM   24  C   UNK N   1      36.378  13.458  12.129  0.00  0.00     0.040 A 
HETATM   25  C   UNK N   1      35.112  14.016  12.326  0.00  0.00     0.021 A 
HETATM   26  C   UNK N   1      34.492  14.718  11.302  0.00  0.00     0.034 A 
BRANCH  24  27
HETATM   27  C   UNK N   1      37.055  12.799  13.258  0.00  0.00     0.176 C 
HETATM   28  O   UNK N   1      37.532  11.685  13.128  0.00  0.00    -0.646 OA
BRANCH  27  29
HETATM   29  O   UNK N   1      37.184  13.445  14.434  0.00  0.00    -0.773 OA
HETATM   30  H   UNK N   1      36.429  13.631  14.959  0.00  0.00     0.167 HD
ENDBRANCH  27  29
ENDBRANCH  24  27
ENDBRANCH  17  20
ENDBRANCH   1  16
BRANCH   1  31
HETATM   31  O   UNK N   1      34.734  18.357   7.235  0.00  0.00    -0.381 OA
HETATM   32  H   UNK N   1      34.619  19.209   6.785  0.00  0.00     0.211 HD
ENDBRANCH   1  31
TORSDOF 6
ENDMDL
MODEL 2
REMARK VINA RESULT:      -8.2      6.093     10.951
REMARK  6 active torsions:
REMARK  status: ('A' for Active; 'I' for Inactive)
REMARK    1  A    between atoms: C_3  and  C_7 
REMARK    2  A    between atoms: C_6  and  N_24 
REMARK    3  A    between atoms: C_7  and  O_29 
REMARK    4  A    between atoms: C_9  and  C_22 
REMARK    5  A    between atoms: C_22  and  C_23 
REMARK    6  A    between atoms: C_22  and  O_26 
REMARK       I    between atoms: C_23  and  N_24 
ROOT
HETATM    1  C   UNK N   1      27.484  16.071   5.190  0.00  0.00     0.243 C 
ENDROOT
BRANCH   1   2
HETATM    2  C   UNK N   1      28.752  16.703   5.697  0.00  0.00    -0.020 A 
HETATM    3  C   UNK N   1      29.910  16.544   4.940  0.00  0.00     0.018 A 
HETATM    4  C   UNK N   1      31.178  16.727   5.501  0.00  0.00    -0.043 A 
HETATM    5  C   UNK N   1      31.285  17.004   6.888  0.00  0.00    -0.043 A 
HETATM    6  C   UNK N   1      32.398  16.551   4.618  0.00  0.00    -0.020 C 
HETATM    7  C   UNK N   1      30.117  17.233   7.633  0.00  0.00     0.009 A 
HETATM    8  C   UNK N   1      32.624  16.945   7.608  0.00  0.00    -0.020 C 
HETATM    9  C   UNK N   1      28.862  17.068   7.047  0.00  0.00     0.011 A 
HETATM   10  C   UNK N   1      33.731  16.359   6.729  0.00  0.00     0.015 C 
HETATM   11  C   UNK N   1      33.024  18.312   8.128  0.00  0.00     0.020 C 
HETATM   12  C   UNK N   1      32.509  15.993   8.790  0.00  0.00     0.020 C 
HETATM   13  C   UNK N   1      33.689  16.943   5.333  0.00  0.00     0.015 C 
HETATM   14  C   UNK N   1      32.474  15.108   4.142  0.00  0.00     0.020 C 
HETATM   15  C   UNK N   1      32.294  17.454   3.400  0.00  0.00     0.020 C 
ENDBRANCH   1   2
BRANCH   1  16
HETATM   16  C   UNK N   1      26.567  17.025   4.506  0.00  0.00     0.255 C 
HETATM   17  N   UNK N   1      25.920  17.995   5.199  0.00  0.00    -0.322 N 
HETATM   18  H   UNK N   1      26.126  18.145   6.150  0.00  0.00     0.169 HD
HETATM   19  O   UNK N   1      26.401  16.922   3.290  0.00  0.00    -0.270 OA
BRANCH  17  20
HETATM   20  C   UNK N   1      24.953  18.784   4.549  0.00  0.00     0.073 A 
HETATM   21  C   UNK N   1      25.322  19.886   3.763  0.00  0.00     0.144 A 
HETATM   22  C   UNK N   1      24.351  20.549   3.004  0.00  0.00     0.062 A 
HETATM   23  F   UNK N   1      26.621  20.272   3.680  0.00  0.00    -0.204 F 
HETATM   24  C   UNK N   1      23.013  20.118   3.039  0.00  0.00     0.040 A 
HETATM   25  C   UNK N   1      22.654  19.041   3.852  0.00  0.00     0.021 A 
HETATM   26  C   UNK N   1      23.618  18.374   4.595  0.00  0.00     0.034 A 
BRANCH  24  27
HETATM   27  C   UNK N   1      21.989  20.749   2.190  0.00  0.00     0.176 C 
HETATM   28  O   UNK N   1      21.897  20.455   1.010  0.00  0.00    -0.646 OA
BRANCH  27  29
HETATM   29  O   UNK N   1      21.119  21.628   2.726  0.00  0.00    -0.773 OA
HETATM   30  H   UNK N   1      20.618  21.398   3.484  0.00  0.00     0.167 HD
ENDBRANCH  27  29
ENDBRANCH  24  27
ENDBRANCH  17  20
ENDBRANCH   1  16
BRANCH   1  31
HETATM   31  O   UNK N   1      27.734  14.961   4.379  0.00  0.00    -0.381 OA
HETATM   32  H   UNK N   1      28.631  14.622   4.233  0.00  0.00     0.211 HD
ENDBRANCH   1  31
TORSDOF 6
ENDMDL
MODEL 3
REMARK VINA RESULT:      -7.9     13.563     17.313
REMARK  6 active torsions:
REMARK  status: ('A' for Active; 'I' for Inactive)
REMARK    1  A    between atoms: C_3  and  C_7 
REMARK    2  A    between atoms: C_6  and  N_24 
REMARK    3  A    between atoms: C_7  and  O_29 
REMARK    4  A    between atoms: C_9  and  C_22 
REMARK    5  A    between atoms: C_22  and  C_23 
REMARK    6  A    between atoms: C_22  and  O_26 
REMARK       I    between atoms: C_23  and  N_24 
ROOT
HETATM    1  C   UNK N   1      26.091  25.271  -4.056  0.00  0.00     0.243 C 
ENDROOT
BRANCH   1   2
HETATM    2  C   UNK N   1      25.680  25.206  -5.502  0.00  0.00    -0.020 A 
HETATM    3  C   UNK N   1      25.812  23.988  -6.165  0.00  0.00     0.018 A 
HETATM    4  C   UNK N   1      25.851  23.919  -7.561  0.00  0.00    -0.043 A 
HETATM    5  C   UNK N   1      25.833  25.123  -8.312  0.00  0.00    -0.043 A 
HETATM    6  C   UNK N   1      25.984  22.560  -8.220  0.00  0.00    -0.020 C 
HETATM    7  C   UNK N   1      25.629  26.343  -7.646  0.00  0.00     0.009 A 
HETATM    8  C   UNK N   1      26.143  25.134  -9.802  0.00  0.00    -0.020 C 
HETATM    9  C   UNK N   1      25.570  26.386  -6.254  0.00  0.00     0.011 A 
HETATM   10  C   UNK N   1      26.668  23.785 -10.296  0.00  0.00     0.015 C 
HETATM   11  C   UNK N   1      24.932  25.563 -10.608  0.00  0.00     0.020 C 
HETATM   12  C   UNK N   1      27.272  26.120 -10.064  0.00  0.00     0.020 C 
HETATM   13  C   UNK N   1      25.846  22.641  -9.740  0.00  0.00     0.015 C 
HETATM   14  C   UNK N   1      27.321  21.943  -7.842  0.00  0.00     0.020 C 
HETATM   15  C   UNK N   1      24.875  21.638  -7.741  0.00  0.00     0.020 C 
ENDBRANCH   1   2
BRANCH   1  16
HETATM   16  C   UNK N   1      27.348  24.531  -3.753  0.00  0.00     0.255 C 
HETATM   17  N   UNK N   1      28.420  24.603  -4.579  0.00  0.00    -0.322 N 
HETATM   18  H   UNK N   1      28.418  25.228  -5.341  0.00  0.00     0.169 HD
HETATM   19  O   UNK N   1      27.402  23.846  -2.731  0.00  0.00    -0.270 OA
BRANCH  17  20
HETATM   20  C   UNK N   1      29.536  23.779  -4.341  0.00  0.00     0.073 A 
HETATM   21  C   UNK N   1      30.596  24.209  -3.528  0.00  0.00     0.144 A 
HETATM   22  C   UNK N   1      31.610  23.307  -3.183  0.00  0.00     0.062 A 
HETATM   23  F   UNK N   1      30.612  25.467  -3.020  0.00  0.00    -0.204 F 
HETATM   24  C   UNK N   1      31.570  21.984  -3.657  0.00  0.00     0.040 A 
HETATM   25  C   UNK N   1      30.526  21.580  -4.492  0.00  0.00     0.021 A 
HETATM   26  C   UNK N   1      29.513  22.469  -4.825  0.00  0.00     0.034 A 
BRANCH  24  27
HETATM   27  C   UNK N   1      32.581  20.997  -3.244  0.00  0.00     0.176 C 
HETATM   28  O   UNK N   1      32.996  20.169  -4.036  0.00  0.00    -0.646 OA
BRANCH  27  29
HETATM   29  O   UNK N   1      33.082  21.032  -1.993  0.00  0.00    -0.773 OA
HETATM   30  H   UNK N   1      32.513  21.141  -1.256  0.00  0.00     0.167 HD
ENDBRANCH  27  29
ENDBRANCH  24  27
ENDBRANCH  17  20
ENDBRANCH   1  16
BRANCH   1  31
HETATM   31  O   UNK N   1      26.168  26.585  -3.587  0.00  0.00    -0.381 OA
HETATM   32  H   UNK N   1      25.932  26.820  -2.676  0.00  0.00     0.211 HD
ENDBRANCH   1  31
TORSDOF 6
ENDMDL
MODEL 4
REMARK VINA RESULT:      -7.7      8.365     10.152
REMARK  6 active torsions:
REMARK  status: ('A' for Active; 'I' for Inactive)
REMARK    1  A    between atoms: C_3  and  C_7 
REMARK    2  A    between atoms: C_6  and  N_24 
REMARK    3  A    between atoms: C_7  and  O_29 
REMARK    4  A    between atoms: C_9  and  C_22 
REMARK    5  A    between atoms: C_22  and  C_23 
REMARK    6  A    between atoms: C_22  and  O_26 
REMARK       I    between atoms: C_23  and  N_24 
ROOT
HETATM    1  C   UNK N   1      22.350  15.515   4.780  0.00  0.00     0.243 C 
ENDROOT
BRANCH   1   2
HETATM    2  C   UNK N   1      23.349  16.521   4.278  0.00  0.00    -0.020 A 
HETATM    3  C   UNK N   1      24.684  16.133   4.196  0.00  0.00     0.018 A 
HETATM    4  C   UNK N   1      25.715  17.076   4.141  0.00  0.00    -0.043 A 
HETATM    5  C   UNK N   1      25.396  18.454   4.250  0.00  0.00    -0.043 A 
HETATM    6  C   UNK N   1      27.146  16.586   4.040  0.00  0.00    -0.020 C 
HETATM    7  C   UNK N   1      24.048  18.847   4.262  0.00  0.00     0.009 A 
HETATM    8  C   UNK N   1      26.475  19.504   4.469  0.00  0.00    -0.020 C 
HETATM    9  C   UNK N   1      23.034  17.889   4.293  0.00  0.00     0.011 A 
HETATM   10  C   UNK N   1      27.841  18.880   4.766  0.00  0.00     0.015 C 
HETATM   11  C   UNK N   1      26.566  20.448   3.285  0.00  0.00     0.020 C 
HETATM   12  C   UNK N   1      26.131  20.316   5.709  0.00  0.00     0.020 C 
HETATM   13  C   UNK N   1      28.134  17.731   3.825  0.00  0.00     0.015 C 
HETATM   14  C   UNK N   1      27.504  15.807   5.296  0.00  0.00     0.020 C 
HETATM   15  C   UNK N   1      27.297  15.663   2.842  0.00  0.00     0.020 C 
ENDBRANCH   1   2
BRANCH   1  16
HETATM   16  C   UNK N   1      22.676  14.961   6.124  0.00  0.00     0.255 C 
HETATM   17  N   UNK N   1      23.194  13.715   6.262  0.00  0.00    -0.322 N 
HETATM   18  H   UNK N   1      23.455  13.196   5.466  0.00  0.00     0.169 HD
HETATM   19  O   UNK N   1      22.469  15.656   7.120  0.00  0.00    -0.270 OA
BRANCH  17  20
HETATM   20  C   UNK N   1      23.353  13.169   7.549  0.00  0.00     0.073 A 
HETATM   21  C   UNK N   1      24.542  13.351   8.274  0.00  0.00     0.144 A 
HETATM   22  C   UNK N   1      24.607  12.933   9.608  0.00  0.00     0.062 A 
HETATM   23  F   UNK N   1      25.602  13.986   7.714  0.00  0.00    -0.204 F 
HETATM   24  C   UNK N   1      23.492  12.327  10.214  0.00  0.00     0.040 A 
HETATM   25  C   UNK N   1      22.327  12.123   9.470  0.00  0.00     0.021 A 
HETATM   26  C   UNK N   1      22.257  12.548   8.151  0.00  0.00     0.034 A 
BRANCH  24  27
HETATM   27  C   UNK N   1      23.510  11.952  11.637  0.00  0.00     0.176 C 
HETATM   28  O   UNK N   1      24.551  11.980  12.271  0.00  0.00    -0.646 OA
BRANCH  27  29
HETATM   29  O   UNK N   1      22.362  11.612  12.257  0.00  0.00    -0.773 OA
HETATM   30  H   UNK N   1      21.756  11.027  11.845  0.00  0.00     0.167 HD
ENDBRANCH  27  29
ENDBRANCH  24  27
ENDBRANCH  17  20
ENDBRANCH   1  16
BRANCH   1  31
HETATM   31  O   UNK N   1      21.043  16.009   4.756  0.00  0.00    -0.381 OA
HETATM   32  H   UNK N   1      20.365  15.640   4.169  0.00  0.00     0.211 HD
ENDBRANCH   1  31
TORSDOF 6
ENDMDL
MODEL 5
REMARK VINA RESULT:      -7.6      7.625     12.285
REMARK  6 active torsions:
REMARK  status: ('A' for Active; 'I' for Inactive)
REMARK    1  A    between atoms: C_3  and  C_7 
REMARK    2  A    between atoms: C_6  and  N_24 
REMARK    3  A    between atoms: C_7  and  O_29 
REMARK    4  A    between atoms: C_9  and  C_22 
REMARK    5  A    between atoms: C_22  and  C_23 
REMARK    6  A    between atoms: C_22  and  O_26 
REMARK       I    between atoms: C_23  and  N_24 
ROOT
HETATM    1  C   UNK N   1      24.178  15.453   6.168  0.00  0.00     0.243 C 
ENDROOT
BRANCH   1   2
HETATM    2  C   UNK N   1      25.671  15.282   6.230  0.00  0.00    -0.020 A 
HETATM    3  C   UNK N   1      26.424  16.302   6.808  0.00  0.00     0.018 A 
HETATM    4  C   UNK N   1      27.793  16.431   6.555  0.00  0.00    -0.043 A 
HETATM    5  C   UNK N   1      28.409  15.550   5.628  0.00  0.00    -0.043 A 
HETATM    6  C   UNK N   1      28.555  17.556   7.227  0.00  0.00    -0.020 C 
HETATM    7  C   UNK N   1      27.666  14.482   5.101  0.00  0.00     0.009 A 
HETATM    8  C   UNK N   1      29.816  15.804   5.107  0.00  0.00    -0.020 C 
HETATM    9  C   UNK N   1      26.306  14.358   5.386  0.00  0.00     0.011 A 
HETATM   10  C   UNK N   1      30.349  17.177   5.520  0.00  0.00     0.015 C 
HETATM   11  C   UNK N   1      30.767  14.708   5.547  0.00  0.00     0.020 C 
HETATM   12  C   UNK N   1      29.782  15.832   3.586  0.00  0.00     0.020 C 
HETATM   13  C   UNK N   1      30.060  17.461   6.979  0.00  0.00     0.015 C 
HETATM   14  C   UNK N   1      28.021  18.893   6.736  0.00  0.00     0.020 C 
HETATM   15  C   UNK N   1      28.367  17.486   8.733  0.00  0.00     0.020 C 
ENDBRANCH   1   2
BRANCH   1  16
HETATM   16  C   UNK N   1      23.728  16.455   5.161  0.00  0.00     0.255 C 
HETATM   17  N   UNK N   1      23.117  17.605   5.541  0.00  0.00    -0.322 N 
HETATM   18  H   UNK N   1      23.053  17.840   6.496  0.00  0.00     0.169 HD
HETATM   19  O   UNK N   1      23.920  16.225   3.967  0.00  0.00    -0.270 OA
BRANCH  17  20
HETATM   20  C   UNK N   1      22.576  18.458   4.562  0.00  0.00     0.073 A 
HETATM   21  C   UNK N   1      23.383  19.373   3.868  0.00  0.00     0.144 A 
HETATM   22  C   UNK N   1      22.845  20.090   2.793  0.00  0.00     0.062 A 
HETATM   23  F   UNK N   1      24.694  19.517   4.186  0.00  0.00    -0.204 F 
HETATM   24  C   UNK N   1      21.502  19.902   2.419  0.00  0.00     0.040 A 
HETATM   25  C   UNK N   1      20.702  19.013   3.141  0.00  0.00     0.021 A 
HETATM   26  C   UNK N   1      21.237  18.291   4.199  0.00  0.00     0.034 A 
BRANCH  24  27
HETATM   27  C   UNK N   1      20.937  20.585   1.244  0.00  0.00     0.176 C 
HETATM   28  O   UNK N   1      20.736  21.787   1.266  0.00  0.00    -0.646 OA
BRANCH  27  29
HETATM   29  O   UNK N   1      20.675  19.886   0.122  0.00  0.00    -0.773 OA
HETATM   30  H   UNK N   1      21.105  19.068  -0.039  0.00  0.00     0.167 HD
ENDBRANCH  27  29
ENDBRANCH  24  27
ENDBRANCH  17  20
ENDBRANCH   1  16
BRANCH   1  31
HETATM   31  O   UNK N   1      23.514  14.239   5.985  0.00  0.00    -0.381 OA
HETATM   32  H   UNK N   1      23.599  13.724   5.167  0.00  0.00     0.211 HD
ENDBRANCH   1  31
TORSDOF 6
ENDMDL
MODEL 6
REMARK VINA RESULT:      -7.5     13.829     17.648
REMARK  6 active torsions:
REMARK  status: ('A' for Active; 'I' for Inactive)
REMARK    1  A    between atoms: C_3  and  C_7 
REMARK    2  A    between atoms: C_6  and  N_24 
REMARK    3  A    between atoms: C_7  and  O_29 
REMARK    4  A    between atoms: C_9  and  C_22 
REMARK    5  A    between atoms: C_22  and  C_23 
REMARK    6  A    between atoms: C_22  and  O_26 
REMARK       I    between atoms: C_23  and  N_24 
ROOT
HETATM    1  C   UNK N   1      26.375  24.891  -6.564  0.00  0.00     0.243 C 
ENDROOT
BRANCH   1   2
HETATM    2  C   UNK N   1      26.377  26.348  -6.191  0.00  0.00    -0.020 A 
HETATM    3  C   UNK N   1      27.487  27.113  -6.544  0.00  0.00     0.018 A 
HETATM    4  C   UNK N   1      27.767  28.327  -5.909  0.00  0.00    -0.043 A 
HETATM    5  C   UNK N   1      26.946  28.747  -4.831  0.00  0.00    -0.043 A 
HETATM    6  C   UNK N   1      28.984  29.116  -6.350  0.00  0.00    -0.020 C 
HETATM    7  C   UNK N   1      25.789  28.012  -4.523  0.00  0.00     0.009 A 
HETATM    8  C   UNK N   1      27.349  29.906  -3.931  0.00  0.00    -0.020 C 
HETATM    9  C   UNK N   1      25.517  26.815  -5.186  0.00  0.00     0.011 A 
HETATM   10  C   UNK N   1      28.782  30.374  -4.194  0.00  0.00     0.015 C 
HETATM   11  C   UNK N   1      26.377  31.062  -4.062  0.00  0.00     0.020 C 
HETATM   12  C   UNK N   1      27.345  29.433  -2.484  0.00  0.00     0.020 C 
HETATM   13  C   UNK N   1      29.057  30.486  -5.678  0.00  0.00     0.015 C 
HETATM   14  C   UNK N   1      30.242  28.313  -6.054  0.00  0.00     0.020 C 
HETATM   15  C   UNK N   1      28.921  29.378  -7.846  0.00  0.00     0.020 C 
ENDBRANCH   1   2
BRANCH   1  16
HETATM   16  C   UNK N   1      27.641  24.181  -6.227  0.00  0.00     0.255 C 
HETATM   17  N   UNK N   1      27.898  23.770  -4.961  0.00  0.00    -0.322 N 
HETATM   18  H   UNK N   1      27.206  23.847  -4.265  0.00  0.00     0.169 HD
HETATM   19  O   UNK N   1      28.460  23.968  -7.122  0.00  0.00    -0.270 OA
BRANCH  17  20
HETATM   20  C   UNK N   1      29.162  23.235  -4.650  0.00  0.00     0.073 A 
HETATM   21  C   UNK N   1      30.047  23.908  -3.793  0.00  0.00     0.144 A 
HETATM   22  C   UNK N   1      31.224  23.275  -3.380  0.00  0.00     0.062 A 
HETATM   23  F   UNK N   1      29.739  25.139  -3.311  0.00  0.00    -0.204 F 
HETATM   24  C   UNK N   1      31.522  21.976  -3.828  0.00  0.00     0.040 A 
HETATM   25  C   UNK N   1      30.649  21.330  -4.707  0.00  0.00     0.021 A 
HETATM   26  C   UNK N   1      29.474  21.952  -5.108  0.00  0.00     0.034 A 
BRANCH  24  27
HETATM   27  C   UNK N   1      32.713  21.259  -3.345  0.00  0.00     0.176 C 
HETATM   28  O   UNK N   1      33.519  20.796  -4.134  0.00  0.00    -0.646 OA
BRANCH  27  29
HETATM   29  O   UNK N   1      32.937  21.144  -2.020  0.00  0.00    -0.773 OA
HETATM   30  H   UNK N   1      32.648  20.384  -1.555  0.00  0.00     0.167 HD
ENDBRANCH  27  29
ENDBRANCH  24  27
ENDBRANCH  17  20
ENDBRANCH   1  16
BRANCH   1  31
HETATM   31  O   UNK N   1      25.275  24.211  -6.037  0.00  0.00    -0.381 OA
HETATM   32  H   UNK N   1      25.376  23.481  -5.406  0.00  0.00     0.211 HD
ENDBRANCH   1  31
TORSDOF 6
ENDMDL
MODEL 7
REMARK VINA RESULT:      -7.5      2.992      8.974
REMARK  6 active torsions:
REMARK  status: ('A' for Active; 'I' for Inactive)
REMARK    1  A    between atoms: C_3  and  C_7 
REMARK    2  A    between atoms: C_6  and  N_24 
REMARK    3  A    between atoms: C_7  and  O_29 
REMARK    4  A    between atoms: C_9  and  C_22 
REMARK    5  A    between atoms: C_22  and  C_23 
REMARK    6  A    between atoms: C_22  and  O_26 
REMARK       I    between atoms: C_23  and  N_24 
ROOT
HETATM    1  C   UNK N   1      36.424  14.604  10.614  0.00  0.00     0.243 C 
ENDROOT
BRANCH   1   2
HETATM    2  C   UNK N   1      36.467  13.777  11.870  0.00  0.00    -0.020 A 
HETATM    3  C   UNK N   1      35.971  12.477  11.815  0.00  0.00     0.018 A 
HETATM    4  C   UNK N   1      35.596  11.791  12.974  0.00  0.00    -0.043 A 
HETATM    5  C   UNK N   1      35.650  12.464  14.222  0.00  0.00    -0.043 A 
HETATM    6  C   UNK N   1      35.075  10.373  12.845  0.00  0.00    -0.020 C 
HETATM    7  C   UNK N   1      36.216  13.747  14.284  0.00  0.00     0.009 A 
HETATM    8  C   UNK N   1      35.008  11.875  15.470  0.00  0.00    -0.020 C 
HETATM    9  C   UNK N   1      36.605  14.404  13.118  0.00  0.00     0.011 A 
HETATM   10  C   UNK N   1      34.152  10.645  15.158  0.00  0.00     0.015 C 
HETATM   11  C   UNK N   1      36.053  11.545  16.518  0.00  0.00     0.020 C 
HETATM   12  C   UNK N   1      34.040  12.894  16.055  0.00  0.00     0.020 C 
HETATM   13  C   UNK N   1      34.865   9.710  14.205  0.00  0.00     0.015 C 
HETATM   14  C   UNK N   1      33.775  10.381  12.055  0.00  0.00     0.020 C 
HETATM   15  C   UNK N   1      36.084   9.512  12.103  0.00  0.00     0.020 C 
ENDBRANCH   1   2
BRANCH   1  16
HETATM   16  C   UNK N   1      35.068  15.127  10.284  0.00  0.00     0.255 C 
HETATM   17  N   UNK N   1      34.732  15.449   9.010  0.00  0.00    -0.322 N 
HETATM   18  H   UNK N   1      35.349  15.248   8.269  0.00  0.00     0.169 HD
HETATM   19  O   UNK N   1      34.246  15.262  11.191  0.00  0.00    -0.270 OA
BRANCH  17  20
HETATM   20  C   UNK N   1      33.498  16.075   8.756  0.00  0.00     0.073 A 
HETATM   21  C   UNK N   1      32.295  15.353   8.792  0.00  0.00     0.144 A 
HETATM   22  C   UNK N   1      31.077  16.035   8.693  0.00  0.00     0.062 A 
HETATM   23  F   UNK N   1      32.302  14.009   8.988  0.00  0.00    -0.204 F 
HETATM   24  C   UNK N   1      31.060  17.433   8.550  0.00  0.00     0.040 A 
HETATM   25  C   UNK N   1      32.266  18.136   8.482  0.00  0.00     0.021 A 
HETATM   26  C   UNK N   1      33.474  17.462   8.593  0.00  0.00     0.034 A 
BRANCH  24  27
HETATM   27  C   UNK N   1      29.792  18.180   8.524  0.00  0.00     0.176 C 
HETATM   28  O   UNK N   1      29.120  18.223   7.508  0.00  0.00    -0.646 OA
BRANCH  27  29
HETATM   29  O   UNK N   1      29.348  18.790   9.642  0.00  0.00    -0.773 OA
HETATM   30  H   UNK N   1      28.485  18.618   9.965  0.00  0.00     0.167 HD
ENDBRANCH  27  29
ENDBRANCH  24  27
ENDBRANCH  17  20
ENDBRANCH   1  16
BRANCH   1  31
HETATM   31  O   UNK N   1      37.360  15.640  10.630  0.00  0.00    -0.381 OA
HETATM   32  H   UNK N   1      38.256  15.518  10.981  0.00  0.00     0.211 HD
ENDBRANCH   1  31
TORSDOF 6
ENDMDL
MODEL 8
REMARK VINA RESULT:      -7.4      3.936      6.989
REMARK  6 active torsions:
REMARK  status: ('A' for Active; 'I' for Inactive)
REMARK    1  A    between atoms: C_3  and  C_7 
REMARK    2  A    between atoms: C_6  and  N_24 
REMARK    3  A    between atoms: C_7  and  O_29 
REMARK    4  A    between atoms: C_9  and  C_22 
REMARK    5  A    between atoms: C_22  and  C_23 
REMARK    6  A    between atoms: C_22  and  O_26 
REMARK       I    between atoms: C_23  and  N_24 
ROOT
HETATM    1  C   UNK N   1      28.276  16.606   3.933  0.00  0.00     0.243 C 
ENDROOT
BRANCH   1   2
HETATM    2  C   UNK N   1      26.944  16.808   4.602  0.00  0.00    -0.020 A 
HETATM    3  C   UNK N   1      26.407  15.745   5.324  0.00  0.00     0.018 A 
HETATM    4  C   UNK N   1      25.042  15.685   5.626  0.00  0.00    -0.043 A 
HETATM    5  C   UNK N   1      24.179  16.690   5.118  0.00  0.00    -0.043 A 
HETATM    6  C   UNK N   1      24.524  14.506   6.426  0.00  0.00    -0.020 C 
HETATM    7  C   UNK N   1      24.731  17.796   4.452  0.00  0.00     0.009 A 
HETATM    8  C   UNK N   1      22.666  16.540   5.178  0.00  0.00    -0.020 C 
HETATM    9  C   UNK N   1      26.099  17.847   4.182  0.00  0.00     0.011 A 
HETATM   10  C   UNK N   1      22.238  15.141   5.625  0.00  0.00     0.015 C 
HETATM   11  C   UNK N   1      22.048  17.598   6.072  0.00  0.00     0.020 C 
HETATM   12  C   UNK N   1      22.097  16.701   3.775  0.00  0.00     0.020 C 
HETATM   13  C   UNK N   1      23.055  14.671   6.810  0.00  0.00     0.015 C 
HETATM   14  C   UNK N   1      24.722  13.227   5.627  0.00  0.00     0.020 C 
HETATM   15  C   UNK N   1      25.294  14.383   7.730  0.00  0.00     0.020 C 
ENDBRANCH   1   2
BRANCH   1  16
HETATM   16  C   UNK N   1      29.423  17.186   4.687  0.00  0.00     0.255 C 
HETATM   17  N   UNK N   1      30.374  16.391   5.237  0.00  0.00    -0.322 N 
HETATM   18  H   UNK N   1      30.373  15.422   5.061  0.00  0.00     0.169 HD
HETATM   19  O   UNK N   1      29.499  18.410   4.804  0.00  0.00    -0.270 OA
BRANCH  17  20
HETATM   20  C   UNK N   1      31.360  16.961   6.064  0.00  0.00     0.073 A 
HETATM   21  C   UNK N   1      31.130  17.171   7.432  0.00  0.00     0.144 A 
HETATM   22  C   UNK N   1      32.184  17.589   8.253  0.00  0.00     0.062 A 
HETATM   23  F   UNK N   1      29.915  16.907   7.977  0.00  0.00    -0.204 F 
HETATM   24  C   UNK N   1      33.461  17.807   7.706  0.00  0.00     0.040 A 
HETATM   25  C   UNK N   1      33.667  17.627   6.336  0.00  0.00     0.021 A 
HETATM   26  C   UNK N   1      32.626  17.200   5.524  0.00  0.00     0.034 A 
BRANCH  24  27
HETATM   27  C   UNK N   1      34.603  18.170   8.561  0.00  0.00     0.176 C 
HETATM   28  O   UNK N   1      35.248  19.180   8.336  0.00  0.00    -0.646 OA
BRANCH  27  29
HETATM   29  O   UNK N   1      34.916  17.403   9.625  0.00  0.00    -0.773 OA
HETATM   30  H   UNK N   1      34.297  17.277  10.318  0.00  0.00     0.167 HD
ENDBRANCH  27  29
ENDBRANCH  24  27
ENDBRANCH  17  20
ENDBRANCH   1  16
BRANCH   1  31
HETATM   31  O   UNK N   1      28.517  15.265   3.627  0.00  0.00    -0.381 OA
HETATM   32  H   UNK N   1      28.285  14.885   2.765  0.00  0.00     0.211 HD
ENDBRANCH   1  31
TORSDOF 6
ENDMDL
MODEL 9
REMARK VINA RESULT:      -7.4      2.914      4.661
REMARK  6 active torsions:
REMARK  status: ('A' for Active; 'I' for Inactive)
REMARK    1  A    between atoms: C_3  and  C_7 
REMARK    2  A    between atoms: C_6  and  N_24 
REMARK    3  A    between atoms: C_7  and  O_29 
REMARK    4  A    between atoms: C_9  and  C_22 
REMARK    5  A    between atoms: C_22  and  C_23 
REMARK    6  A    between atoms: C_22  and  O_26 
REMARK       I    between atoms: C_23  and  N_24 
ROOT
HETATM    1  C   UNK N   1      35.907  15.682  10.969  0.00  0.00     0.243 C 
ENDROOT
BRANCH   1   2
HETATM    2  C   UNK N   1      35.016  15.448   9.779  0.00  0.00    -0.020 A 
HETATM    3  C   UNK N   1      35.515  14.680   8.730  0.00  0.00     0.018 A 
HETATM    4  C   UNK N   1      34.954  14.742   7.450  0.00  0.00    -0.043 A 
HETATM    5  C   UNK N   1      33.905  15.664   7.202  0.00  0.00    -0.043 A 
HETATM    6  C   UNK N   1      35.537  13.870   6.356  0.00  0.00    -0.020 C 
HETATM    7  C   UNK N   1      33.358  16.385   8.275  0.00  0.00     0.009 A 
HETATM    8  C   UNK N   1      33.439  15.973   5.786  0.00  0.00    -0.020 C 
HETATM    9  C   UNK N   1      33.918  16.291   9.548  0.00  0.00     0.011 A 
HETATM   10  C   UNK N   1      34.357  15.362   4.726  0.00  0.00     0.015 C 
HETATM   11  C   UNK N   1      32.006  15.526   5.573  0.00  0.00     0.020 C 
HETATM   12  C   UNK N   1      33.515  17.476   5.558  0.00  0.00     0.020 C 
HETATM   13  C   UNK N   1      34.714  13.931   5.070  0.00  0.00     0.015 C 
HETATM   14  C   UNK N   1      36.974  14.290   6.085  0.00  0.00     0.020 C 
HETATM   15  C   UNK N   1      35.536  12.414   6.793  0.00  0.00     0.020 C 
ENDBRANCH   1   2
BRANCH   1  16
HETATM   16  C   UNK N   1      35.718  14.694  12.067  0.00  0.00     0.255 C 
HETATM   17  N   UNK N   1      36.732  14.383  12.912  0.00  0.00    -0.322 N 
HETATM   18  H   UNK N   1      37.580  14.883  12.874  0.00  0.00     0.169 HD
HETATM   19  O   UNK N   1      34.618  14.156  12.201  0.00  0.00    -0.270 OA
BRANCH  17  20
HETATM   20  C   UNK N   1      36.564  13.342  13.844  0.00  0.00     0.073 A 
HETATM   21  C   UNK N   1      37.098  12.065  13.611  0.00  0.00     0.144 A 
HETATM   22  C   UNK N   1      37.049  11.101  14.626  0.00  0.00     0.062 A 
HETATM   23  F   UNK N   1      37.718  11.778  12.439  0.00  0.00    -0.204 F 
HETATM   24  C   UNK N   1      36.461  11.410  15.865  0.00  0.00     0.040 A 
HETATM   25  C   UNK N   1      35.903  12.674  16.070  0.00  0.00     0.021 A 
HETATM   26  C   UNK N   1      35.962  13.635  15.070  0.00  0.00     0.034 A 
BRANCH  24  27
HETATM   27  C   UNK N   1      36.469  10.441  16.973  0.00  0.00     0.176 C 
HETATM   28  O   UNK N   1      36.011  10.743  18.062  0.00  0.00    -0.646 OA
BRANCH  27  29
HETATM   29  O   UNK N   1      36.950   9.198  16.775  0.00  0.00    -0.773 OA
HETATM   30  H   UNK N   1      36.986   8.835  15.911  0.00  0.00     0.167 HD
ENDBRANCH  27  29
ENDBRANCH  24  27
ENDBRANCH  17  20
ENDBRANCH   1  16
BRANCH   1  31
HETATM   31  O   UNK N   1      37.255  15.770  10.611  0.00  0.00    -0.381 OA
HETATM   32  H   UNK N   1      37.899  16.254  11.151  0.00  0.00     0.211 HD
ENDBRANCH   1  31
TORSDOF 6
ENDMDL
