REMARK  6 active torsions:
REMARK  status: ('A' for Active; 'I' for Inactive)
REMARK    1  A    between atoms: C_3  and  C_7 
REMARK    2  A    between atoms: C_6  and  N_24 
REMARK    3  A    between atoms: C_7  and  O_29 
REMARK    4  A    between atoms: C_9  and  C_22 
REMARK    5  A    between atoms: C_22  and  C_23 
REMARK    6  A    between atoms: C_22  and  O_26 
REMARK       I    between atoms: C_23  and  N_24 
ROOT
HETATM    1  C   UNK N   1      -0.562  -1.631   1.019  0.00  0.00     0.243 C 
ENDROOT
BRANCH   1   2
HETATM    2  C   UNK N   1       0.457  -0.845   0.240  0.00  0.00    -0.020 A 
HETATM    3  C   UNK N   1       1.731  -1.389   0.094  0.00  0.00     0.018 A 
HETATM    4  C   UNK N   1       2.830  -0.591  -0.240  0.00  0.00    -0.043 A 
HETATM    5  C   UNK N   1       2.654   0.812  -0.355  0.00  0.00    -0.043 A 
HETATM    6  C   UNK N   1       4.187  -1.249  -0.396  0.00  0.00    -0.020 C 
HETATM    7  C   UNK N   1       1.359   1.349  -0.277  0.00  0.00     0.009 A 
HETATM    8  C   UNK N   1       3.844   1.756  -0.446  0.00  0.00    -0.020 C 
HETATM    9  C   UNK N   1       0.273   0.531   0.034  0.00  0.00     0.011 A 
HETATM   10  C   UNK N   1       5.172   1.044  -0.181  0.00  0.00     0.015 C 
HETATM   11  C   UNK N   1       3.877   2.465  -1.786  0.00  0.00     0.020 C 
HETATM   12  C   UNK N   1       3.729   2.804   0.652  0.00  0.00     0.020 C 
HETATM   13  C   UNK N   1       5.242  -0.276  -0.919  0.00  0.00     0.015 C 
HETATM   14  C   UNK N   1       4.622  -1.834   0.939  0.00  0.00     0.020 C 
HETATM   15  C   UNK N   1       4.106  -2.376  -1.412  0.00  0.00     0.020 C 
ENDBRANCH   1   2
BRANCH   1  16
HETATM   16  C   UNK N   1      -1.942  -1.075   0.938  0.00  0.00     0.255 C 
HETATM   17  N   UNK N   1      -2.704  -1.250  -0.170  0.00  0.00    -0.322 N 
HETATM   18  H   UNK N   1      -2.392  -1.834  -0.899  0.00  0.00     0.169 HD
HETATM   19  O   UNK N   1      -2.388  -0.449   1.900  0.00  0.00    -0.270 OA
BRANCH  17  20
HETATM   20  C   UNK N   1      -3.943  -0.590  -0.270  0.00  0.00     0.073 A 
HETATM   21  C   UNK N   1      -5.150  -1.272  -0.052  0.00  0.00     0.144 A 
HETATM   22  C   UNK N   1      -6.350  -0.553  -0.002  0.00  0.00     0.062 A 
HETATM   23  F   UNK N   1      -5.156  -2.610   0.177  0.00  0.00    -0.204 F 
HETATM   24  C   UNK N   1      -6.345   0.842  -0.179  0.00  0.00     0.040 A 
HETATM   25  C   UNK N   1      -5.140   1.503  -0.429  0.00  0.00     0.021 A 
HETATM   26  C   UNK N   1      -3.948   0.793  -0.466  0.00  0.00     0.034 A 
BRANCH  24  27
HETATM   27  C   UNK N   1      -7.582   1.629  -0.052  0.00  0.00     0.176 C 
HETATM   28  O   UNK N   1      -8.638   1.082   0.217  0.00  0.00    -0.646 OA
BRANCH  27  29
HETATM   29  O   UNK N   1      -7.544   2.969  -0.195  0.00  0.00    -0.773 OA
HETATM   30  H   UNK N   1      -6.724   3.412  -0.295  0.00  0.00     0.167 HD
ENDBRANCH  27  29
ENDBRANCH  24  27
ENDBRANCH  17  20
ENDBRANCH   1  16
BRANCH   1  31
HETATM   31  O   UNK N   1      -0.557  -2.986   0.680  0.00  0.00    -0.381 OA
HETATM   32  H   UNK N   1      -1.370  -3.460   0.444  0.00  0.00     0.211 HD
ENDBRANCH   1  31
TORSDOF 6
