MODEL 1
REMARK VINA RESULT:      -8.7      0.000      0.000
REMARK  5 active torsions:
REMARK  status: ('A' for Active; 'I' for Inactive)
REMARK    1  A    between atoms: N_5  and  C_11 
REMARK       I    between atoms: N_5  and  C_14 
REMARK    2  A    between atoms: N_6  and  C_17 
REMARK    3  A    between atoms: N_6  and  C_21 
REMARK    4  A    between atoms: N_8  and  C_27 
REMARK    5  A    between atoms: C_14  and  C_15 
ROOT
HETATM    1  O   UNK N   1      19.534  16.922   8.170  0.00  0.00    -0.268 OA
HETATM    2  N   UNK N   1      21.261  15.489   7.888  0.00  0.00    -0.302 N 
HETATM    3  N   UNK N   1      23.144  14.036   7.199  0.00  0.00    -0.236 N 
HETATM    4  N   UNK N   1      23.753  13.818   6.036  0.00  0.00    -0.302 N 
ATOM      5  HN  UNK N   1      24.496  13.137   5.879  1.00  0.00     0.186 HD
HETATM    6  C   UNK N   1      22.195  14.987   7.006  0.00  0.00     0.146 A 
HETATM    7  C   UNK N   1      22.235  15.384   5.691  0.00  0.00     0.054 A 
HETATM    8  C   UNK N   1      21.362  16.348   5.194  0.00  0.00     0.053 A 
HETATM    9  C   UNK N   1      20.441  16.883   6.110  0.00  0.00     0.105 A 
HETATM   10  C   UNK N   1      20.381  16.450   7.431  0.00  0.00     0.251 A 
HETATM   11  C   UNK N   1      23.232  14.643   5.092  0.00  0.00     0.125 A 
HETATM   12  C   UNK N   1      21.102  15.033   9.259  0.00  0.00     0.161 C 
ENDROOT
BRANCH   8  13
HETATM   13  N   UNK N   1      21.416  16.810   3.834  0.00  0.00    -0.355 N 
HETATM   14  H   UNK N   1      21.304  16.157   3.105  0.00  0.00     0.166 HD
BRANCH  13  15
HETATM   15  C   UNK N   1      21.626  18.189   3.501  0.00  0.00     0.039 A 
HETATM   16  C   UNK N   1      22.894  18.747   3.639  0.00  0.00     0.047 A 
HETATM   17  C   UNK N   1      23.225  19.994   3.147  0.00  0.00     0.034 A 
HETATM   18  C   UNK N   1      22.234  20.754   2.512  0.00  0.00     0.017 A 
HETATM   19  C   UNK N   1      20.921  20.254   2.431  0.00  0.00     0.010 A 
HETATM   20  C   UNK N   1      20.614  18.968   2.916  0.00  0.00    -0.035 A 
HETATM   21  C   UNK N   1      19.239  18.425   2.729  0.00  0.00     0.050 C 
BRANCH  17  22
HETATM   22  C   UNK N   1      24.655  20.364   3.179  0.00  0.00     0.252 C 
HETATM   23  O   UNK N   1      25.139  20.958   2.222  0.00  0.00    -0.268 OA
HETATM   24  N   UNK N   1      25.391  20.176   4.302  0.00  0.00    -0.352 N 
HETATM   25  H   UNK N   1      24.998  19.674   5.052  0.00  0.00     0.163 HD
BRANCH  24  26
HETATM   26  C   UNK N   1      26.741  20.693   4.432  0.00  0.00     0.084 A 
HETATM   27  C   UNK N   1      27.079  20.974   5.894  0.00  0.00     0.027 A 
HETATM   28  C   UNK N   1      27.567  19.707   5.240  0.00  0.00     0.027 A 
ENDBRANCH  24  26
ENDBRANCH  17  22
ENDBRANCH  13  15
ENDBRANCH   8  13
BRANCH   3  29
HETATM   29  C   UNK N   1      23.495  13.313   8.399  0.00  0.00     0.097 A 
HETATM   30  C   UNK N   1      22.661  12.286   8.873  0.00  0.00     0.148 A 
HETATM   31  F   UNK N   1      21.521  11.964   8.212  0.00  0.00    -0.203 F 
HETATM   32  C   UNK N   1      22.958  11.640  10.078  0.00  0.00     0.087 A 
HETATM   33  C   UNK N   1      24.103  11.990  10.799  0.00  0.00     0.119 A 
HETATM   34  F   UNK N   1      24.369  11.390  11.984  0.00  0.00    -0.206 F 
HETATM   35  C   UNK N   1      24.967  12.964  10.307  0.00  0.00     0.045 A 
HETATM   36  C   UNK N   1      24.664  13.617   9.111  0.00  0.00     0.038 A 
ENDBRANCH   3  29
TORSDOF 5
ENDMDL
MODEL 2
REMARK VINA RESULT:      -8.5      7.966     11.883
REMARK  5 active torsions:
REMARK  status: ('A' for Active; 'I' for Inactive)
REMARK    1  A    between atoms: N_5  and  C_11 
REMARK       I    between atoms: N_5  and  C_14 
REMARK    2  A    between atoms: N_6  and  C_17 
REMARK    3  A    between atoms: N_6  and  C_21 
REMARK    4  A    between atoms: N_8  and  C_27 
REMARK    5  A    between atoms: C_14  and  C_15 
ROOT
HETATM    1  O   UNK N   1      28.968  18.274  10.003  0.00  0.00    -0.268 OA
HETATM    2  N   UNK N   1      28.925  18.095   7.749  0.00  0.00    -0.302 N 
HETATM    3  N   UNK N   1      29.220  17.702   5.322  0.00  0.00    -0.236 N 
HETATM    4  N   UNK N   1      30.162  17.098   4.601  0.00  0.00    -0.302 N 
ATOM      5  HN  UNK N   1      30.187  17.056   3.582  1.00  0.00     0.186 HD
HETATM    6  C   UNK N   1      29.546  17.575   6.633  0.00  0.00     0.146 A 
HETATM    7  C   UNK N   1      30.711  16.851   6.725  0.00  0.00     0.054 A 
HETATM    8  C   UNK N   1      31.298  16.569   7.956  0.00  0.00     0.053 A 
HETATM    9  C   UNK N   1      30.636  17.069   9.089  0.00  0.00     0.105 A 
HETATM   10  C   UNK N   1      29.477  17.833   8.987  0.00  0.00     0.251 A 
HETATM   11  C   UNK N   1      31.084  16.549   5.433  0.00  0.00     0.125 A 
HETATM   12  C   UNK N   1      27.752  18.953   7.707  0.00  0.00     0.161 C 
ENDROOT
BRANCH   8  13
HETATM   13  N   UNK N   1      32.492  15.778   8.078  0.00  0.00    -0.355 N 
HETATM   14  H   UNK N   1      32.656  15.059   7.425  0.00  0.00     0.166 HD
BRANCH  13  15
HETATM   15  C   UNK N   1      33.455  16.000   9.117  0.00  0.00     0.039 A 
HETATM   16  C   UNK N   1      33.659  15.025  10.089  0.00  0.00     0.047 A 
HETATM   17  C   UNK N   1      34.703  15.069  10.992  0.00  0.00     0.034 A 
HETATM   18  C   UNK N   1      35.580  16.161  10.958  0.00  0.00     0.017 A 
HETATM   19  C   UNK N   1      35.351  17.206  10.044  0.00  0.00     0.010 A 
HETATM   20  C   UNK N   1      34.296  17.126   9.115  0.00  0.00    -0.035 A 
HETATM   21  C   UNK N   1      34.136  18.200   8.094  0.00  0.00     0.050 C 
BRANCH  17  22
HETATM   22  C   UNK N   1      34.918  13.865  11.821  0.00  0.00     0.252 C 
HETATM   23  O   UNK N   1      34.832  12.759  11.299  0.00  0.00    -0.268 OA
HETATM   24  N   UNK N   1      35.339  13.977  13.105  0.00  0.00    -0.352 N 
HETATM   25  H   UNK N   1      35.377  14.869  13.519  0.00  0.00     0.163 HD
BRANCH  24  26
HETATM   26  C   UNK N   1      35.735  12.821  13.888  0.00  0.00     0.084 A 
HETATM   27  C   UNK N   1      36.719  13.218  14.986  0.00  0.00     0.027 A 
HETATM   28  C   UNK N   1      35.264  13.014  15.319  0.00  0.00     0.027 A 
ENDBRANCH  24  26
ENDBRANCH  17  22
ENDBRANCH  13  15
ENDBRANCH   8  13
BRANCH   3  29
HETATM   29  C   UNK N   1      28.094  18.369   4.712  0.00  0.00     0.097 A 
HETATM   30  C   UNK N   1      26.957  17.633   4.336  0.00  0.00     0.148 A 
HETATM   31  F   UNK N   1      26.906  16.293   4.541  0.00  0.00    -0.203 F 
HETATM   32  C   UNK N   1      25.900  18.264   3.672  0.00  0.00     0.087 A 
HETATM   33  C   UNK N   1      25.954  19.636   3.409  0.00  0.00     0.119 A 
HETATM   34  F   UNK N   1      24.946  20.238   2.733  0.00  0.00    -0.206 F 
HETATM   35  C   UNK N   1      27.049  20.384   3.831  0.00  0.00     0.045 A 
HETATM   36  C   UNK N   1      28.109  19.753   4.482  0.00  0.00     0.038 A 
ENDBRANCH   3  29
TORSDOF 5
ENDMDL
MODEL 3
REMARK VINA RESULT:      -8.3      5.750      8.557
REMARK  5 active torsions:
REMARK  status: ('A' for Active; 'I' for Inactive)
REMARK    1  A    between atoms: N_5  and  C_11 
REMARK       I    between atoms: N_5  and  C_14 
REMARK    2  A    between atoms: N_6  and  C_17 
REMARK    3  A    between atoms: N_6  and  C_21 
REMARK    4  A    between atoms: N_8  and  C_27 
REMARK    5  A    between atoms: C_14  and  C_15 
ROOT
HETATM    1  O   UNK N   1      30.356  16.322   3.757  0.00  0.00    -0.268 OA
HETATM    2  N   UNK N   1      30.856  16.568   5.949  0.00  0.00    -0.302 N 
HETATM    3  N   UNK N   1      31.044  17.001   8.380  0.00  0.00    -0.236 N 
HETATM    4  N   UNK N   1      30.234  17.563   9.274  0.00  0.00    -0.302 N 
ATOM      5  HN  UNK N   1      30.463  17.731  10.253  1.00  0.00     0.186 HD
HETATM    6  C   UNK N   1      30.401  16.978   7.185  0.00  0.00     0.146 A 
HETATM    7  C   UNK N   1      29.149  17.520   7.351  0.00  0.00     0.054 A 
HETATM    8  C   UNK N   1      28.260  17.639   6.286  0.00  0.00     0.053 A 
HETATM    9  C   UNK N   1      28.718  17.180   5.040  0.00  0.00     0.105 A 
HETATM   10  C   UNK N   1      30.000  16.668   4.871  0.00  0.00     0.251 A 
HETATM   11  C   UNK N   1      29.053  17.877   8.679  0.00  0.00     0.125 A 
HETATM   12  C   UNK N   1      32.203  16.085   5.693  0.00  0.00     0.161 C 
ENDROOT
BRANCH   8  13
HETATM   13  N   UNK N   1      26.930  18.163   6.447  0.00  0.00    -0.355 N 
HETATM   14  H   UNK N   1      26.522  18.159   7.343  0.00  0.00     0.166 HD
BRANCH  13  15
HETATM   15  C   UNK N   1      26.178  18.691   5.347  0.00  0.00     0.039 A 
HETATM   16  C   UNK N   1      25.075  17.992   4.865  0.00  0.00     0.047 A 
HETATM   17  C   UNK N   1      24.182  18.527   3.957  0.00  0.00     0.034 A 
HETATM   18  C   UNK N   1      24.411  19.819   3.467  0.00  0.00     0.017 A 
HETATM   19  C   UNK N   1      25.563  20.520   3.869  0.00  0.00     0.010 A 
HETATM   20  C   UNK N   1      26.444  19.965   4.816  0.00  0.00    -0.035 A 
HETATM   21  C   UNK N   1      27.603  20.769   5.298  0.00  0.00     0.050 C 
BRANCH  17  22
HETATM   22  C   UNK N   1      22.950  17.753   3.701  0.00  0.00     0.252 C 
HETATM   23  O   UNK N   1      22.956  16.543   3.891  0.00  0.00    -0.268 OA
HETATM   24  N   UNK N   1      21.790  18.385   3.393  0.00  0.00    -0.352 N 
HETATM   25  H   UNK N   1      21.806  19.353   3.217  0.00  0.00     0.163 HD
BRANCH  24  26
HETATM   26  C   UNK N   1      20.526  17.677   3.317  0.00  0.00     0.084 A 
HETATM   27  C   UNK N   1      19.443  18.559   2.701  0.00  0.00     0.027 A 
HETATM   28  C   UNK N   1      20.138  17.524   1.856  0.00  0.00     0.027 A 
ENDBRANCH  24  26
ENDBRANCH  17  22
ENDBRANCH  13  15
ENDBRANCH   8  13
BRANCH   3  29
HETATM   29  C   UNK N   1      32.371  16.548   8.723  0.00  0.00     0.097 A 
HETATM   30  C   UNK N   1      33.466  17.422   8.612  0.00  0.00     0.148 A 
HETATM   31  F   UNK N   1      33.289  18.696   8.182  0.00  0.00    -0.203 F 
HETATM   32  C   UNK N   1      34.762  16.960   8.866  0.00  0.00     0.087 A 
HETATM   33  C   UNK N   1      34.971  15.637   9.264  0.00  0.00     0.119 A 
HETATM   34  F   UNK N   1      36.229  15.181   9.474  0.00  0.00    -0.206 F 
HETATM   35  C   UNK N   1      33.887  14.780   9.435  0.00  0.00     0.045 A 
HETATM   36  C   UNK N   1      32.595  15.237   9.169  0.00  0.00     0.038 A 
ENDBRANCH   3  29
TORSDOF 5
ENDMDL
MODEL 4
REMARK VINA RESULT:      -8.3      8.516     11.090
REMARK  5 active torsions:
REMARK  status: ('A' for Active; 'I' for Inactive)
REMARK    1  A    between atoms: N_5  and  C_11 
REMARK       I    between atoms: N_5  and  C_14 
REMARK    2  A    between atoms: N_6  and  C_17 
REMARK    3  A    between atoms: N_6  and  C_21 
REMARK    4  A    between atoms: N_8  and  C_27 
REMARK    5  A    between atoms: C_14  and  C_15 
ROOT
HETATM    1  O   UNK N   1      35.054  18.740   8.784  0.00  0.00    -0.268 OA
HETATM    2  N   UNK N   1      34.894  16.553   9.334  0.00  0.00    -0.302 N 
HETATM    3  N   UNK N   1      34.464  14.133   9.634  0.00  0.00    -0.236 N 
HETATM    4  N   UNK N   1      33.686  13.256   9.003  0.00  0.00    -0.302 N 
ATOM      5  HN  UNK N   1      33.559  12.281   9.270  1.00  0.00     0.186 HD
HETATM    6  C   UNK N   1      34.347  15.330   9.006  0.00  0.00     0.146 A 
HETATM    7  C   UNK N   1      33.488  15.184   7.943  0.00  0.00     0.054 A 
HETATM    8  C   UNK N   1      33.165  16.256   7.115  0.00  0.00     0.053 A 
HETATM    9  C   UNK N   1      33.760  17.488   7.433  0.00  0.00     0.105 A 
HETATM   10  C   UNK N   1      34.598  17.638   8.534  0.00  0.00     0.251 A 
HETATM   11  C   UNK N   1      33.085  13.865   7.947  0.00  0.00     0.125 A 
HETATM   12  C   UNK N   1      35.722  16.790  10.505  0.00  0.00     0.161 C 
ENDROOT
BRANCH   8  13
HETATM   13  N   UNK N   1      32.304  16.115   5.972  0.00  0.00    -0.355 N 
HETATM   14  H   UNK N   1      32.708  16.070   5.075  0.00  0.00     0.166 HD
BRANCH  13  15
HETATM   15  C   UNK N   1      30.878  16.038   6.093  0.00  0.00     0.039 A 
HETATM   16  C   UNK N   1      30.183  17.055   6.741  0.00  0.00     0.047 A 
HETATM   17  C   UNK N   1      28.806  17.161   6.717  0.00  0.00     0.034 A 
HETATM   18  C   UNK N   1      28.066  16.182   6.042  0.00  0.00     0.017 A 
HETATM   19  C   UNK N   1      28.732  15.093   5.450  0.00  0.00     0.010 A 
HETATM   20  C   UNK N   1      30.138  15.021   5.464  0.00  0.00    -0.035 A 
HETATM   21  C   UNK N   1      30.822  13.910   4.744  0.00  0.00     0.050 C 
BRANCH  17  22
HETATM   22  C   UNK N   1      28.225  18.403   7.265  0.00  0.00     0.252 C 
HETATM   23  O   UNK N   1      28.635  18.831   8.338  0.00  0.00    -0.268 OA
HETATM   24  N   UNK N   1      27.351  19.138   6.533  0.00  0.00    -0.352 N 
HETATM   25  H   UNK N   1      27.010  18.769   5.686  0.00  0.00     0.163 HD
BRANCH  24  26
HETATM   26  C   UNK N   1      26.903  20.450   6.960  0.00  0.00     0.084 A 
HETATM   27  C   UNK N   1      27.643  21.551   6.203  0.00  0.00     0.027 A 
HETATM   28  C   UNK N   1      26.252  21.152   5.780  0.00  0.00     0.027 A 
ENDBRANCH  24  26
ENDBRANCH  17  22
ENDBRANCH  13  15
ENDBRANCH   8  13
BRANCH   3  29
HETATM   29  C   UNK N   1      35.244  13.771  10.794  0.00  0.00     0.097 A 
HETATM   30  C   UNK N   1      36.554  13.287  10.640  0.00  0.00     0.148 A 
HETATM   31  F   UNK N   1      37.098  13.154   9.405  0.00  0.00    -0.203 F 
HETATM   32  C   UNK N   1      37.281  12.861  11.757  0.00  0.00     0.087 A 
HETATM   33  C   UNK N   1      36.721  12.946  13.034  0.00  0.00     0.119 A 
HETATM   34  F   UNK N   1      37.412  12.498  14.110  0.00  0.00    -0.206 F 
HETATM   35  C   UNK N   1      35.446  13.480  13.203  0.00  0.00     0.045 A 
HETATM   36  C   UNK N   1      34.716  13.893  12.088  0.00  0.00     0.038 A 
ENDBRANCH   3  29
TORSDOF 5
ENDMDL
MODEL 5
REMARK VINA RESULT:      -8.3     10.504     14.718
REMARK  5 active torsions:
REMARK  status: ('A' for Active; 'I' for Inactive)
REMARK    1  A    between atoms: N_5  and  C_11 
REMARK       I    between atoms: N_5  and  C_14 
REMARK    2  A    between atoms: N_6  and  C_17 
REMARK    3  A    between atoms: N_6  and  C_21 
REMARK    4  A    between atoms: N_8  and  C_27 
REMARK    5  A    between atoms: C_14  and  C_15 
ROOT
HETATM    1  O   UNK N   1      33.865  12.185   7.395  0.00  0.00    -0.268 OA
HETATM    2  N   UNK N   1      33.333  14.382   7.339  0.00  0.00    -0.302 N 
HETATM    3  N   UNK N   1      33.034  16.831   7.552  0.00  0.00    -0.236 N 
HETATM    4  N   UNK N   1      33.619  17.762   8.302  0.00  0.00    -0.302 N 
ATOM      5  HN  UNK N   1      33.356  18.747   8.331  1.00  0.00     0.186 HD
HETATM    6  C   UNK N   1      33.636  15.642   7.810  0.00  0.00     0.146 A 
HETATM    7  C   UNK N   1      34.637  15.850   8.730  0.00  0.00     0.054 A 
HETATM    8  C   UNK N   1      35.425  14.801   9.197  0.00  0.00     0.053 A 
HETATM    9  C   UNK N   1      35.135  13.527   8.680  0.00  0.00     0.105 A 
HETATM   10  C   UNK N   1      34.096  13.319   7.779  0.00  0.00     0.251 A 
HETATM   11  C   UNK N   1      34.621  17.196   9.025  0.00  0.00     0.125 A 
HETATM   12  C   UNK N   1      32.223  14.087   6.449  0.00  0.00     0.161 C 
ENDROOT
BRANCH   8  13
HETATM   13  N   UNK N   1      36.505  15.002  10.125  0.00  0.00    -0.355 N 
HETATM   14  H   UNK N   1      37.030  15.834  10.072  0.00  0.00     0.166 HD
BRANCH  13  15
HETATM   15  C   UNK N   1      36.844  14.033  11.125  0.00  0.00     0.039 A 
HETATM   16  C   UNK N   1      36.094  13.956  12.295  0.00  0.00     0.047 A 
HETATM   17  C   UNK N   1      36.221  12.924  13.205  0.00  0.00     0.034 A 
HETATM   18  C   UNK N   1      37.173  11.925  12.964  0.00  0.00     0.017 A 
HETATM   19  C   UNK N   1      38.007  12.019  11.835  0.00  0.00     0.010 A 
HETATM   20  C   UNK N   1      37.841  13.065  10.907  0.00  0.00    -0.035 A 
HETATM   21  C   UNK N   1      38.671  13.086   9.669  0.00  0.00     0.050 C 
BRANCH  17  22
HETATM   22  C   UNK N   1      35.215  12.862  14.285  0.00  0.00     0.252 C 
HETATM   23  O   UNK N   1      34.162  12.266  14.087  0.00  0.00    -0.268 OA
HETATM   24  N   UNK N   1      35.503  13.334  15.523  0.00  0.00    -0.352 N 
HETATM   25  H   UNK N   1      36.340  13.833  15.661  0.00  0.00     0.163 HD
BRANCH  24  26
HETATM   26  C   UNK N   1      34.614  13.125  16.652  0.00  0.00     0.084 A 
HETATM   27  C   UNK N   1      35.294  12.288  17.732  0.00  0.00     0.027 A 
HETATM   28  C   UNK N   1      35.219  13.785  17.879  0.00  0.00     0.027 A 
ENDBRANCH  24  26
ENDBRANCH  17  22
ENDBRANCH  13  15
ENDBRANCH   8  13
BRANCH   3  29
HETATM   29  C   UNK N   1      31.939  17.136   6.663  0.00  0.00     0.097 A 
HETATM   30  C   UNK N   1      30.629  17.231   7.165  0.00  0.00     0.148 A 
HETATM   31  F   UNK N   1      30.381  17.037   8.484  0.00  0.00    -0.203 F 
HETATM   32  C   UNK N   1      29.557  17.447   6.292  0.00  0.00     0.087 A 
HETATM   33  C   UNK N   1      29.786  17.603   4.922  0.00  0.00     0.119 A 
HETATM   34  F   UNK N   1      28.744  17.774   4.074  0.00  0.00    -0.206 F 
HETATM   35  C   UNK N   1      31.086  17.570   4.424  0.00  0.00     0.045 A 
HETATM   36  C   UNK N   1      32.154  17.342   5.293  0.00  0.00     0.038 A 
ENDBRANCH   3  29
TORSDOF 5
ENDMDL
MODEL 6
REMARK VINA RESULT:      -8.1      5.315      8.219
REMARK  5 active torsions:
REMARK  status: ('A' for Active; 'I' for Inactive)
REMARK    1  A    between atoms: N_5  and  C_11 
REMARK       I    between atoms: N_5  and  C_14 
REMARK    2  A    between atoms: N_6  and  C_17 
REMARK    3  A    between atoms: N_6  and  C_21 
REMARK    4  A    between atoms: N_8  and  C_27 
REMARK    5  A    between atoms: C_14  and  C_15 
ROOT
HETATM    1  O   UNK N   1      27.816  18.870   8.729  0.00  0.00    -0.268 OA
HETATM    2  N   UNK N   1      29.709  18.046   7.806  0.00  0.00    -0.302 N 
HETATM    3  N   UNK N   1      31.567  17.110   6.463  0.00  0.00    -0.236 N 
HETATM    4  N   UNK N   1      31.668  16.702   5.200  0.00  0.00    -0.302 N 
ATOM      5  HN  UNK N   1      32.496  16.278   4.783  1.00  0.00     0.186 HD
HETATM    6  C   UNK N   1      30.311  17.587   6.653  0.00  0.00     0.146 A 
HETATM    7  C   UNK N   1      29.623  17.490   5.467  0.00  0.00     0.054 A 
HETATM    8  C   UNK N   1      28.295  17.896   5.360  0.00  0.00     0.053 A 
HETATM    9  C   UNK N   1      27.704  18.401   6.530  0.00  0.00     0.105 A 
HETATM   10  C   UNK N   1      28.394  18.460   7.737  0.00  0.00     0.251 A 
HETATM   11  C   UNK N   1      30.496  16.938   4.555  0.00  0.00     0.125 A 
HETATM   12  C   UNK N   1      30.352  18.072   9.109  0.00  0.00     0.161 C 
ENDROOT
BRANCH   8  13
HETATM   13  N   UNK N   1      27.570  17.846   4.119  0.00  0.00    -0.355 N 
HETATM   14  H   UNK N   1      28.058  17.629   3.292  0.00  0.00     0.166 HD
BRANCH  13  15
HETATM   15  C   UNK N   1      26.161  18.099   4.046  0.00  0.00     0.039 A 
HETATM   16  C   UNK N   1      25.261  17.130   4.478  0.00  0.00     0.047 A 
HETATM   17  C   UNK N   1      23.911  17.373   4.636  0.00  0.00     0.034 A 
HETATM   18  C   UNK N   1      23.410  18.640   4.312  0.00  0.00     0.017 A 
HETATM   19  C   UNK N   1      24.279  19.617   3.791  0.00  0.00     0.010 A 
HETATM   20  C   UNK N   1      25.657  19.355   3.665  0.00  0.00    -0.035 A 
HETATM   21  C   UNK N   1      26.569  20.439   3.203  0.00  0.00     0.050 C 
BRANCH  17  22
HETATM   22  C   UNK N   1      23.118  16.319   5.302  0.00  0.00     0.252 C 
HETATM   23  O   UNK N   1      23.193  15.166   4.890  0.00  0.00    -0.268 OA
HETATM   24  N   UNK N   1      22.426  16.588   6.436  0.00  0.00    -0.352 N 
HETATM   25  H   UNK N   1      22.353  17.522   6.740  0.00  0.00     0.163 HD
BRANCH  24  26
HETATM   26  C   UNK N   1      21.791  15.543   7.217  0.00  0.00     0.084 A 
HETATM   27  C   UNK N   1      20.829  16.137   8.243  0.00  0.00     0.027 A 
HETATM   28  C   UNK N   1      20.295  15.575   6.951  0.00  0.00     0.027 A 
ENDBRANCH  24  26
ENDBRANCH  17  22
ENDBRANCH  13  15
ENDBRANCH   8  13
BRANCH   3  29
HETATM   29  C   UNK N   1      32.663  17.000   7.396  0.00  0.00     0.097 A 
HETATM   30  C   UNK N   1      32.812  15.840   8.176  0.00  0.00     0.148 A 
HETATM   31  F   UNK N   1      31.931  14.816   8.061  0.00  0.00    -0.203 F 
HETATM   32  C   UNK N   1      33.825  15.766   9.138  0.00  0.00     0.087 A 
HETATM   33  C   UNK N   1      34.715  16.831   9.305  0.00  0.00     0.119 A 
HETATM   34  F   UNK N   1      35.673  16.772  10.262  0.00  0.00    -0.206 F 
HETATM   35  C   UNK N   1      34.613  17.959   8.496  0.00  0.00     0.045 A 
HETATM   36  C   UNK N   1      33.594  18.039   7.546  0.00  0.00     0.038 A 
ENDBRANCH   3  29
TORSDOF 5
ENDMDL
MODEL 7
REMARK VINA RESULT:      -8.0     11.978     16.551
REMARK  5 active torsions:
REMARK  status: ('A' for Active; 'I' for Inactive)
REMARK    1  A    between atoms: N_5  and  C_11 
REMARK       I    between atoms: N_5  and  C_14 
REMARK    2  A    between atoms: N_6  and  C_17 
REMARK    3  A    between atoms: N_6  and  C_21 
REMARK    4  A    between atoms: N_8  and  C_27 
REMARK    5  A    between atoms: C_14  and  C_15 
ROOT
HETATM    1  O   UNK N   1      35.985  11.058   9.602  0.00  0.00    -0.268 OA
HETATM    2  N   UNK N   1      35.320  13.217   9.717  0.00  0.00    -0.302 N 
HETATM    3  N   UNK N   1      34.757  15.578  10.204  0.00  0.00    -0.236 N 
HETATM    4  N   UNK N   1      34.959  16.369  11.256  0.00  0.00    -0.302 N 
ATOM      5  HN  UNK N   1      34.619  17.325  11.348  1.00  0.00     0.186 HD
HETATM    6  C   UNK N   1      35.330  14.375  10.464  0.00  0.00     0.146 A 
HETATM    7  C   UNK N   1      35.921  14.432  11.704  0.00  0.00     0.054 A 
HETATM    8  C   UNK N   1      36.582  13.333  12.247  0.00  0.00     0.053 A 
HETATM    9  C   UNK N   1      36.602  12.170  11.459  0.00  0.00     0.105 A 
HETATM   10  C   UNK N   1      35.968  12.107  10.223  0.00  0.00     0.251 A 
HETATM   11  C   UNK N   1      35.687  15.701  12.189  0.00  0.00     0.125 A 
HETATM   12  C   UNK N   1      34.624  13.066   8.450  0.00  0.00     0.161 C 
ENDROOT
BRANCH   8  13
HETATM   13  N   UNK N   1      37.245  13.384  13.521  0.00  0.00    -0.355 N 
HETATM   14  H   UNK N   1      38.226  13.462  13.545  0.00  0.00     0.166 HD
BRANCH  13  15
HETATM   15  C   UNK N   1      36.526  13.326  14.760  0.00  0.00     0.039 A 
HETATM   16  C   UNK N   1      35.849  12.162  15.112  0.00  0.00     0.047 A 
HETATM   17  C   UNK N   1      35.314  11.952  16.368  0.00  0.00     0.034 A 
HETATM   18  C   UNK N   1      35.422  12.968  17.326  0.00  0.00     0.017 A 
HETATM   19  C   UNK N   1      36.025  14.190  16.976  0.00  0.00     0.010 A 
HETATM   20  C   UNK N   1      36.587  14.371  15.698  0.00  0.00    -0.035 A 
HETATM   21  C   UNK N   1      37.307  15.639  15.387  0.00  0.00     0.050 C 
BRANCH  17  22
HETATM   22  C   UNK N   1      34.814  10.593  16.660  0.00  0.00     0.252 C 
HETATM   23  O   UNK N   1      34.465   9.873  15.731  0.00  0.00    -0.268 OA
HETATM   24  N   UNK N   1      34.869  10.093  17.920  0.00  0.00    -0.352 N 
HETATM   25  H   UNK N   1      35.126  10.690  18.659  0.00  0.00     0.163 HD
BRANCH  24  26
HETATM   26  C   UNK N   1      34.562   8.705  18.210  0.00  0.00     0.084 A 
HETATM   27  C   UNK N   1      34.783   8.396  19.689  0.00  0.00     0.027 A 
HETATM   28  C   UNK N   1      33.390   8.656  19.176  0.00  0.00     0.027 A 
ENDBRANCH  24  26
ENDBRANCH  17  22
ENDBRANCH  13  15
ENDBRANCH   8  13
BRANCH   3  29
HETATM   29  C   UNK N   1      34.022  16.018   9.042  0.00  0.00     0.097 A 
HETATM   30  C   UNK N   1      32.651  15.730   8.925  0.00  0.00     0.148 A 
HETATM   31  F   UNK N   1      32.007  15.040   9.897  0.00  0.00    -0.203 F 
HETATM   32  C   UNK N   1      31.957  16.085   7.763  0.00  0.00     0.087 A 
HETATM   33  C   UNK N   1      32.614  16.756   6.728  0.00  0.00     0.119 A 
HETATM   34  F   UNK N   1      31.950  17.066   5.589  0.00  0.00    -0.206 F 
HETATM   35  C   UNK N   1      33.957  17.098   6.861  0.00  0.00     0.045 A 
HETATM   36  C   UNK N   1      34.653  16.733   8.014  0.00  0.00     0.038 A 
ENDBRANCH   3  29
TORSDOF 5
ENDMDL
MODEL 8
REMARK VINA RESULT:      -8.0      9.263     11.829
REMARK  5 active torsions:
REMARK  status: ('A' for Active; 'I' for Inactive)
REMARK    1  A    between atoms: N_5  and  C_11 
REMARK       I    between atoms: N_5  and  C_14 
REMARK    2  A    between atoms: N_6  and  C_17 
REMARK    3  A    between atoms: N_6  and  C_21 
REMARK    4  A    between atoms: N_8  and  C_27 
REMARK    5  A    between atoms: C_14  and  C_15 
ROOT
HETATM    1  O   UNK N   1      32.696  12.128   8.603  0.00  0.00    -0.268 OA
HETATM    2  N   UNK N   1      34.096  13.132  10.068  0.00  0.00    -0.302 N 
HETATM    3  N   UNK N   1      35.539  14.566  11.480  0.00  0.00    -0.236 N 
HETATM    4  N   UNK N   1      35.817  15.867  11.478  0.00  0.00    -0.302 N 
ATOM      5  HN  UNK N   1      36.486  16.328  12.094  1.00  0.00     0.186 HD
HETATM    6  C   UNK N   1      34.629  14.327  10.501  0.00  0.00     0.146 A 
HETATM    7  C   UNK N   1      34.321  15.520   9.891  0.00  0.00     0.054 A 
HETATM    8  C   UNK N   1      33.417  15.585   8.834  0.00  0.00     0.053 A 
HETATM    9  C   UNK N   1      32.847  14.367   8.428  0.00  0.00     0.105 A 
HETATM   10  C   UNK N   1      33.193  13.159   9.024  0.00  0.00     0.251 A 
HETATM   11  C   UNK N   1      35.072  16.487  10.525  0.00  0.00     0.125 A 
HETATM   12  C   UNK N   1      34.462  11.831  10.603  0.00  0.00     0.161 C 
ENDROOT
BRANCH   8  13
HETATM   13  N   UNK N   1      33.046  16.827   8.212  0.00  0.00    -0.355 N 
HETATM   14  H   UNK N   1      33.370  17.671   8.603  0.00  0.00     0.166 HD
BRANCH  13  15
HETATM   15  C   UNK N   1      32.223  16.879   7.039  0.00  0.00     0.039 A 
HETATM   16  C   UNK N   1      30.875  17.207   7.155  0.00  0.00     0.047 A 
HETATM   17  C   UNK N   1      30.071  17.482   6.067  0.00  0.00     0.034 A 
HETATM   18  C   UNK N   1      30.620  17.393   4.781  0.00  0.00     0.017 A 
HETATM   19  C   UNK N   1      31.957  16.981   4.625  0.00  0.00     0.010 A 
HETATM   20  C   UNK N   1      32.765  16.732   5.750  0.00  0.00    -0.035 A 
HETATM   21  C   UNK N   1      34.204  16.394   5.558  0.00  0.00     0.050 C 
BRANCH  17  22
HETATM   22  C   UNK N   1      28.725  18.019   6.353  0.00  0.00     0.252 C 
HETATM   23  O   UNK N   1      28.091  17.567   7.300  0.00  0.00    -0.268 OA
HETATM   24  N   UNK N   1      28.250  19.090   5.670  0.00  0.00    -0.352 N 
HETATM   25  H   UNK N   1      28.757  19.426   4.896  0.00  0.00     0.163 HD
BRANCH  24  26
HETATM   26  C   UNK N   1      27.018  19.758   6.047  0.00  0.00     0.084 A 
HETATM   27  C   UNK N   1      27.174  21.275   5.972  0.00  0.00     0.027 A 
HETATM   28  C   UNK N   1      26.495  20.533   4.849  0.00  0.00     0.027 A 
ENDBRANCH  24  26
ENDBRANCH  17  22
ENDBRANCH  13  15
ENDBRANCH   8  13
BRANCH   3  29
HETATM   29  C   UNK N   1      36.169  13.646  12.397  0.00  0.00     0.097 A 
HETATM   30  C   UNK N   1      37.222  12.824  11.959  0.00  0.00     0.148 A 
HETATM   31  F   UNK N   1      37.655  12.886  10.676  0.00  0.00    -0.203 F 
HETATM   32  C   UNK N   1      37.779  11.876  12.825  0.00  0.00     0.087 A 
HETATM   33  C   UNK N   1      37.315  11.765  14.138  0.00  0.00     0.119 A 
HETATM   34  F   UNK N   1      37.829  10.822  14.963  0.00  0.00    -0.206 F 
HETATM   35  C   UNK N   1      36.313  12.615  14.598  0.00  0.00     0.045 A 
HETATM   36  C   UNK N   1      35.748  13.552  13.732  0.00  0.00     0.038 A 
ENDBRANCH   3  29
TORSDOF 5
ENDMDL
MODEL 9
REMARK VINA RESULT:      -8.0     10.443     13.208
REMARK  5 active torsions:
REMARK  status: ('A' for Active; 'I' for Inactive)
REMARK    1  A    between atoms: N_5  and  C_11 
REMARK       I    between atoms: N_5  and  C_14 
REMARK    2  A    between atoms: N_6  and  C_17 
REMARK    3  A    between atoms: N_6  and  C_21 
REMARK    4  A    between atoms: N_8  and  C_27 
REMARK    5  A    between atoms: C_14  and  C_15 
ROOT
HETATM    1  O   UNK N   1      33.996  10.855   9.746  0.00  0.00    -0.268 OA
HETATM    2  N   UNK N   1      34.871  12.037  11.464  0.00  0.00    -0.302 N 
HETATM    3  N   UNK N   1      35.883  13.618  13.079  0.00  0.00    -0.236 N 
HETATM    4  N   UNK N   1      36.372  14.852  12.967  0.00  0.00    -0.302 N 
ATOM      5  HN  UNK N   1      36.819  15.378  13.718  1.00  0.00     0.186 HD
HETATM    6  C   UNK N   1      35.401  13.245  11.866  0.00  0.00     0.146 A 
HETATM    7  C   UNK N   1      35.577  14.286  10.987  0.00  0.00     0.054 A 
HETATM    8  C   UNK N   1      35.184  14.188   9.654  0.00  0.00     0.053 A 
HETATM    9  C   UNK N   1      34.608  12.967   9.265  0.00  0.00     0.105 A 
HETATM   10  C   UNK N   1      34.468  11.904  10.151  0.00  0.00     0.251 A 
HETATM   11  C   UNK N   1      36.183  15.299  11.699  0.00  0.00     0.125 A 
HETATM   12  C   UNK N   1      34.757  10.868  12.321  0.00  0.00     0.161 C 
ENDROOT
BRANCH   8  13
HETATM   13  N   UNK N   1      35.319  15.279   8.728  0.00  0.00    -0.355 N 
HETATM   14  H   UNK N   1      36.013  15.959   8.890  0.00  0.00     0.166 HD
BRANCH  13  15
HETATM   15  C   UNK N   1      34.476  15.413   7.575  0.00  0.00     0.039 A 
HETATM   16  C   UNK N   1      33.196  15.942   7.713  0.00  0.00     0.047 A 
HETATM   17  C   UNK N   1      32.408  16.295   6.635  0.00  0.00     0.034 A 
HETATM   18  C   UNK N   1      32.898  16.080   5.340  0.00  0.00     0.017 A 
HETATM   19  C   UNK N   1      34.153  15.468   5.167  0.00  0.00     0.010 A 
HETATM   20  C   UNK N   1      34.951  15.141   6.280  0.00  0.00    -0.035 A 
HETATM   21  C   UNK N   1      36.316  14.585   6.065  0.00  0.00     0.050 C 
BRANCH  17  22
HETATM   22  C   UNK N   1      31.166  17.038   6.934  0.00  0.00     0.252 C 
HETATM   23  O   UNK N   1      30.466  17.427   6.006  0.00  0.00    -0.268 OA
HETATM   24  N   UNK N   1      30.732  17.170   8.211  0.00  0.00    -0.352 N 
HETATM   25  H   UNK N   1      31.317  16.877   8.947  0.00  0.00     0.163 HD
BRANCH  24  26
HETATM   26  C   UNK N   1      29.430  17.728   8.527  0.00  0.00     0.084 A 
HETATM   27  C   UNK N   1      28.972  17.291   9.916  0.00  0.00     0.027 A 
HETATM   28  C   UNK N   1      29.573  18.658   9.719  0.00  0.00     0.027 A 
ENDBRANCH  24  26
ENDBRANCH  17  22
ENDBRANCH  13  15
ENDBRANCH   8  13
BRANCH   3  29
HETATM   29  C   UNK N   1      35.928  12.883  14.320  0.00  0.00     0.097 A 
HETATM   30  C   UNK N   1      36.940  11.933  14.541  0.00  0.00     0.148 A 
HETATM   31  F   UNK N   1      37.882  11.698  13.595  0.00  0.00    -0.203 F 
HETATM   32  C   UNK N   1      36.937  11.163  15.709  0.00  0.00     0.087 A 
HETATM   33  C   UNK N   1      35.947  11.357  16.677  0.00  0.00     0.119 A 
HETATM   34  F   UNK N   1      35.924  10.585  17.790  0.00  0.00    -0.206 F 
HETATM   35  C   UNK N   1      34.975  12.337  16.494  0.00  0.00     0.045 A 
HETATM   36  C   UNK N   1      34.971  13.096  15.323  0.00  0.00     0.038 A 
ENDBRANCH   3  29
TORSDOF 5
ENDMDL
