MODEL 1
REMARK VINA RESULT:      -6.9      0.000      0.000
REMARK  1 active torsions:
REMARK  status: ('A' for Active; 'I' for Inactive)
REMARK    1  A    between atoms: C_4  and  C_8 
ROOT
HETATM    1  S   UNK N   1      27.654  16.117   5.565  0.00  0.00    -0.126 SA
HETATM    2  O   UNK N   1      30.373  16.811   9.106  0.00  0.00    -0.267 OA
HETATM    3  N   UNK N   1      28.762  17.260   7.571  0.00  0.00    -0.320 N 
HETATM    4  C   UNK N   1      28.649  17.508   6.156  0.00  0.00     0.140 A 
HETATM    5  C   UNK N   1      30.114  17.481   5.750  0.00  0.00     0.001 A 
HETATM    6  C   UNK N   1      27.611  16.797   8.274  0.00  0.00     0.138 C 
HETATM    7  C   UNK N   1      26.849  15.965   7.234  0.00  0.00     0.097 C 
HETATM    8  C   UNK N   1      30.916  17.290   6.853  0.00  0.00     0.042 A 
HETATM    9  C   UNK N   1      30.040  17.132   7.976  0.00  0.00     0.256 A 
HETATM   10  C   UNK N   1      30.670  17.607   4.475  0.00  0.00     0.012 A 
HETATM   11  C   UNK N   1      32.303  17.204   6.755  0.00  0.00     0.018 A 
HETATM   12  C   UNK N   1      32.068  17.537   4.345  0.00  0.00     0.001 A 
HETATM   13  C   UNK N   1      32.881  17.338   5.481  0.00  0.00     0.001 A 
ENDROOT
BRANCH   4  14
HETATM   14  C   UNK N   1      27.971  18.827   5.833  0.00  0.00    -0.014 A 
HETATM   15  C   UNK N   1      27.281  18.978   4.619  0.00  0.00     0.017 A 
HETATM   16  C   UNK N   1      26.658  20.189   4.304  0.00  0.00    -0.061 A 
HETATM   17  C   UNK N   1      26.694  21.251   5.211  0.00  0.00     0.007 A 
HETATM   18  C   UNK N   1      25.972  20.352   2.996  0.00  0.00     0.048 C 
HETATM   19  C   UNK N   1      27.364  21.107   6.428  0.00  0.00     0.001 A 
HETATM   20  C   UNK N   1      28.011  19.906   6.732  0.00  0.00     0.011 A 
ENDBRANCH   4  14
TORSDOF 1
ENDMDL
MODEL 2
REMARK VINA RESULT:      -6.7     14.268     16.768
REMARK  1 active torsions:
REMARK  status: ('A' for Active; 'I' for Inactive)
REMARK    1  A    between atoms: C_4  and  C_8 
ROOT
HETATM    1  S   UNK N   1      37.194   8.703  18.612  0.00  0.00    -0.126 SA
HETATM    2  O   UNK N   1      35.671  12.720  20.013  0.00  0.00    -0.267 OA
HETATM    3  N   UNK N   1      35.722  10.466  19.746  0.00  0.00    -0.320 N 
HETATM    4  C   UNK N   1      35.568   9.494  18.694  0.00  0.00     0.140 A 
HETATM    5  C   UNK N   1      35.223  10.400  17.523  0.00  0.00     0.001 A 
HETATM    6  C   UNK N   1      36.445  10.092  20.917  0.00  0.00     0.138 C 
HETATM    7  C   UNK N   1      37.488   9.090  20.406  0.00  0.00     0.097 C 
HETATM    8  C   UNK N   1      35.153  11.712  17.935  0.00  0.00     0.042 A 
HETATM    9  C   UNK N   1      35.493  11.725  19.328  0.00  0.00     0.256 A 
HETATM   10  C   UNK N   1      35.005  10.058  16.187  0.00  0.00     0.012 A 
HETATM   11  C   UNK N   1      34.873  12.752  17.052  0.00  0.00     0.018 A 
HETATM   12  C   UNK N   1      34.708  11.083  15.274  0.00  0.00     0.001 A 
HETATM   13  C   UNK N   1      34.641  12.426  15.704  0.00  0.00     0.001 A 
ENDROOT
BRANCH   4  14
HETATM   14  C   UNK N   1      34.488   8.467  18.984  0.00  0.00    -0.014 A 
HETATM   15  C   UNK N   1      33.236   8.887  19.461  0.00  0.00     0.017 A 
HETATM   16  C   UNK N   1      32.234   7.953  19.740  0.00  0.00    -0.061 A 
HETATM   17  C   UNK N   1      32.465   6.593  19.518  0.00  0.00     0.007 A 
HETATM   18  C   UNK N   1      30.929   8.405  20.288  0.00  0.00     0.048 C 
HETATM   19  C   UNK N   1      33.701   6.165  19.030  0.00  0.00     0.001 A 
HETATM   20  C   UNK N   1      34.713   7.096  18.777  0.00  0.00     0.011 A 
ENDBRANCH   4  14
TORSDOF 1
ENDMDL
MODEL 3
REMARK VINA RESULT:      -6.6      2.541      4.148
REMARK  1 active torsions:
REMARK  status: ('A' for Active; 'I' for Inactive)
REMARK    1  A    between atoms: C_4  and  C_8 
ROOT
HETATM    1  S   UNK N   1      32.276  16.316   4.372  0.00  0.00    -0.126 SA
HETATM    2  O   UNK N   1      32.498  13.389   7.808  0.00  0.00    -0.267 OA
HETATM    3  N   UNK N   1      31.587  14.933   6.415  0.00  0.00    -0.320 N 
HETATM    4  C   UNK N   1      31.734  16.331   6.099  0.00  0.00     0.140 A 
HETATM    5  C   UNK N   1      32.793  16.737   7.112  0.00  0.00     0.001 A 
HETATM    6  C   UNK N   1      30.998  14.074   5.442  0.00  0.00     0.138 C 
HETATM    7  C   UNK N   1      31.409  14.694   4.100  0.00  0.00     0.097 C 
HETATM    8  C   UNK N   1      33.127  15.669   7.912  0.00  0.00     0.042 A 
HETATM    9  C   UNK N   1      32.373  14.546   7.438  0.00  0.00     0.256 A 
HETATM   10  C   UNK N   1      33.412  17.978   7.280  0.00  0.00     0.012 A 
HETATM   11  C   UNK N   1      34.093  15.765   8.912  0.00  0.00     0.018 A 
HETATM   12  C   UNK N   1      34.381  18.111   8.288  0.00  0.00     0.001 A 
HETATM   13  C   UNK N   1      34.720  17.009   9.103  0.00  0.00     0.001 A 
ENDROOT
BRANCH   4  14
HETATM   14  C   UNK N   1      30.443  17.116   6.247  0.00  0.00    -0.014 A 
HETATM   15  C   UNK N   1      29.872  17.287   7.519  0.00  0.00     0.017 A 
HETATM   16  C   UNK N   1      28.681  18.000   7.672  0.00  0.00    -0.061 A 
HETATM   17  C   UNK N   1      28.062  18.574   6.557  0.00  0.00     0.007 A 
HETATM   18  C   UNK N   1      28.062  18.135   9.016  0.00  0.00     0.048 C 
HETATM   19  C   UNK N   1      28.628  18.423   5.290  0.00  0.00     0.001 A 
HETATM   20  C   UNK N   1      29.806  17.686   5.133  0.00  0.00     0.011 A 
ENDBRANCH   4  14
TORSDOF 1
ENDMDL
MODEL 4
REMARK VINA RESULT:      -6.6      2.272      5.416
REMARK  1 active torsions:
REMARK  status: ('A' for Active; 'I' for Inactive)
REMARK    1  A    between atoms: C_4  and  C_8 
ROOT
HETATM    1  S   UNK N   1      28.231  18.700   6.829  0.00  0.00    -0.126 SA
HETATM    2  O   UNK N   1      24.533  16.534   5.397  0.00  0.00    -0.267 OA
HETATM    3  N   UNK N   1      26.745  16.987   5.638  0.00  0.00    -0.320 N 
HETATM    4  C   UNK N   1      27.695  17.998   5.249  0.00  0.00     0.140 A 
HETATM    5  C   UNK N   1      26.811  18.900   4.401  0.00  0.00     0.001 A 
HETATM    6  C   UNK N   1      27.045  16.172   6.769  0.00  0.00     0.138 C 
HETATM    7  C   UNK N   1      27.864  17.090   7.684  0.00  0.00     0.097 C 
HETATM    8  C   UNK N   1      25.539  18.383   4.314  0.00  0.00     0.042 A 
HETATM    9  C   UNK N   1      25.520  17.196   5.118  0.00  0.00     0.256 A 
HETATM   10  C   UNK N   1      27.139  20.103   3.772  0.00  0.00     0.012 A 
HETATM   11  C   UNK N   1      24.524  19.027   3.611  0.00  0.00     0.018 A 
HETATM   12  C   UNK N   1      26.140  20.771   3.045  0.00  0.00     0.001 A 
HETATM   13  C   UNK N   1      24.837  20.235   2.962  0.00  0.00     0.001 A 
ENDROOT
BRANCH   4  14
HETATM   14  C   UNK N   1      28.879  17.440   4.482  0.00  0.00    -0.014 A 
HETATM   15  C   UNK N   1      30.186  17.714   4.919  0.00  0.00     0.017 A 
HETATM   16  C   UNK N   1      31.287  17.213   4.219  0.00  0.00    -0.061 A 
HETATM   17  C   UNK N   1      31.093  16.412   3.090  0.00  0.00     0.007 A 
HETATM   18  C   UNK N   1      32.664  17.548   4.664  0.00  0.00     0.048 C 
HETATM   19  C   UNK N   1      29.798  16.122   2.655  0.00  0.00     0.001 A 
HETATM   20  C   UNK N   1      28.697  16.644   3.339  0.00  0.00     0.011 A 
ENDBRANCH   4  14
TORSDOF 1
ENDMDL
MODEL 5
REMARK VINA RESULT:      -6.5      2.084      5.085
REMARK  1 active torsions:
REMARK  status: ('A' for Active; 'I' for Inactive)
REMARK    1  A    between atoms: C_4  and  C_8 
ROOT
HETATM    1  S   UNK N   1      27.336  16.406   7.151  0.00  0.00    -0.126 SA
HETATM    2  O   UNK N   1      26.034  17.691   3.019  0.00  0.00    -0.267 OA
HETATM    3  N   UNK N   1      27.431  16.958   4.652  0.00  0.00    -0.320 N 
HETATM    4  C   UNK N   1      28.047  17.453   5.857  0.00  0.00     0.140 A 
HETATM    5  C   UNK N   1      27.564  18.895   5.846  0.00  0.00     0.001 A 
HETATM    6  C   UNK N   1      27.284  15.549   4.493  0.00  0.00     0.138 C 
HETATM    7  C   UNK N   1      27.093  15.031   5.924  0.00  0.00     0.097 C 
HETATM    8  C   UNK N   1      26.814  19.142   4.718  0.00  0.00     0.042 A 
HETATM    9  C   UNK N   1      26.728  17.904   4.001  0.00  0.00     0.256 A 
HETATM   10  C   UNK N   1      27.780  19.896   6.794  0.00  0.00     0.012 A 
HETATM   11  C   UNK N   1      26.232  20.384   4.473  0.00  0.00     0.018 A 
HETATM   12  C   UNK N   1      27.217  21.164   6.570  0.00  0.00     0.001 A 
HETATM   13  C   UNK N   1      26.447  21.408   5.413  0.00  0.00     0.001 A 
ENDROOT
BRANCH   4  14
HETATM   14  C   UNK N   1      29.560  17.337   5.845  0.00  0.00    -0.014 A 
HETATM   15  C   UNK N   1      30.256  17.403   4.627  0.00  0.00     0.017 A 
HETATM   16  C   UNK N   1      31.649  17.291   4.599  0.00  0.00    -0.061 A 
HETATM   17  C   UNK N   1      32.362  17.138   5.791  0.00  0.00     0.007 A 
HETATM   18  C   UNK N   1      32.370  17.316   3.300  0.00  0.00     0.048 C 
HETATM   19  C   UNK N   1      31.682  17.085   7.009  0.00  0.00     0.001 A 
HETATM   20  C   UNK N   1      30.287  17.170   7.036  0.00  0.00     0.011 A 
ENDBRANCH   4  14
TORSDOF 1
ENDMDL
MODEL 6
REMARK VINA RESULT:      -6.4     11.338     13.715
REMARK  1 active torsions:
REMARK  status: ('A' for Active; 'I' for Inactive)
REMARK    1  A    between atoms: C_4  and  C_8 
ROOT
HETATM    1  S   UNK N   1      27.590  25.401  -7.041  0.00  0.00    -0.126 SA
HETATM    2  O   UNK N   1      26.346  23.747  -3.024  0.00  0.00    -0.267 OA
HETATM    3  N   UNK N   1      26.749  25.308  -4.624  0.00  0.00    -0.320 N 
HETATM    4  C   UNK N   1      27.871  25.884  -5.320  0.00  0.00     0.140 A 
HETATM    5  C   UNK N   1      29.025  25.178  -4.624  0.00  0.00     0.001 A 
HETATM    6  C   UNK N   1      25.462  25.380  -5.232  0.00  0.00     0.138 C 
HETATM    7  C   UNK N   1      25.757  25.331  -6.737  0.00  0.00     0.097 C 
HETATM    8  C   UNK N   1      28.553  24.354  -3.628  0.00  0.00     0.042 A 
HETATM    9  C   UNK N   1      27.122  24.437  -3.666  0.00  0.00     0.256 A 
HETATM   10  C   UNK N   1      30.393  25.270  -4.888  0.00  0.00     0.012 A 
HETATM   11  C   UNK N   1      29.403  23.572  -2.848  0.00  0.00     0.018 A 
HETATM   12  C   UNK N   1      31.277  24.504  -4.111  0.00  0.00     0.001 A 
HETATM   13  C   UNK N   1      30.785  23.659  -3.093  0.00  0.00     0.001 A 
ENDROOT
BRANCH   4  14
HETATM   14  C   UNK N   1      27.940  27.395  -5.192  0.00  0.00    -0.014 A 
HETATM   15  C   UNK N   1      27.933  27.989  -3.919  0.00  0.00     0.017 A 
HETATM   16  C   UNK N   1      27.990  29.379  -3.786  0.00  0.00    -0.061 A 
HETATM   17  C   UNK N   1      28.081  30.188  -4.922  0.00  0.00     0.007 A 
HETATM   18  C   UNK N   1      27.935  29.998  -2.436  0.00  0.00     0.048 C 
HETATM   19  C   UNK N   1      28.103  29.607  -6.192  0.00  0.00     0.001 A 
HETATM   20  C   UNK N   1      28.019  28.219  -6.327  0.00  0.00     0.011 A 
ENDBRANCH   4  14
TORSDOF 1
ENDMDL
MODEL 7
REMARK VINA RESULT:      -6.3     11.229     14.149
REMARK  1 active torsions:
REMARK  status: ('A' for Active; 'I' for Inactive)
REMARK    1  A    between atoms: C_4  and  C_8 
ROOT
HETATM    1  S   UNK N   1      29.652  24.268  -4.501  0.00  0.00    -0.126 SA
HETATM    2  O   UNK N   1      26.165  26.526  -2.725  0.00  0.00    -0.267 OA
HETATM    3  N   UNK N   1      27.250  24.894  -3.871  0.00  0.00    -0.320 N 
HETATM    4  C   UNK N   1      28.006  24.740  -5.087  0.00  0.00     0.140 A 
HETATM    5  C   UNK N   1      27.897  26.143  -5.663  0.00  0.00     0.001 A 
HETATM    6  C   UNK N   1      27.440  23.941  -2.827  0.00  0.00     0.138 C 
HETATM    7  C   UNK N   1      28.908  23.517  -2.972  0.00  0.00     0.097 C 
HETATM    8  C   UNK N   1      27.116  26.936  -4.853  0.00  0.00     0.042 A 
HETATM    9  C   UNK N   1      26.744  26.133  -3.725  0.00  0.00     0.256 A 
HETATM   10  C   UNK N   1      28.474  26.659  -6.826  0.00  0.00     0.012 A 
HETATM   11  C   UNK N   1      26.872  28.277  -5.141  0.00  0.00     0.018 A 
HETATM   12  C   UNK N   1      28.237  28.005  -7.151  0.00  0.00     0.001 A 
HETATM   13  C   UNK N   1      27.437  28.811  -6.313  0.00  0.00     0.001 A 
ENDROOT
BRANCH   4  14
HETATM   14  C   UNK N   1      27.442  23.677  -6.011  0.00  0.00    -0.014 A 
HETATM   15  C   UNK N   1      28.301  22.728  -6.591  0.00  0.00     0.017 A 
HETATM   16  C   UNK N   1      27.797  21.747  -7.449  0.00  0.00    -0.061 A 
HETATM   17  C   UNK N   1      26.427  21.687  -7.715  0.00  0.00     0.007 A 
HETATM   18  C   UNK N   1      28.722  20.779  -8.093  0.00  0.00     0.048 C 
HETATM   19  C   UNK N   1      25.561  22.616  -7.133  0.00  0.00     0.001 A 
HETATM   20  C   UNK N   1      26.068  23.614  -6.296  0.00  0.00     0.011 A 
ENDBRANCH   4  14
TORSDOF 1
ENDMDL
MODEL 8
REMARK VINA RESULT:      -6.3      9.347     11.848
REMARK  1 active torsions:
REMARK  status: ('A' for Active; 'I' for Inactive)
REMARK    1  A    between atoms: C_4  and  C_8 
ROOT
HETATM    1  S   UNK N   1      37.365  10.956  13.088  0.00  0.00    -0.126 SA
HETATM    2  O   UNK N   1      33.142  10.813  14.687  0.00  0.00    -0.267 OA
HETATM    3  N   UNK N   1      34.839  11.336  13.274  0.00  0.00    -0.320 N 
HETATM    4  C   UNK N   1      36.022  12.158  13.255  0.00  0.00     0.140 A 
HETATM    5  C   UNK N   1      35.916  12.832  14.614  0.00  0.00     0.001 A 
HETATM    6  C   UNK N   1      34.763  10.233  12.373  0.00  0.00     0.138 C 
HETATM    7  C   UNK N   1      36.220   9.776  12.220  0.00  0.00     0.097 C 
HETATM    8  C   UNK N   1      34.763  12.440  15.256  0.00  0.00     0.042 A 
HETATM    9  C   UNK N   1      34.120  11.485  14.403  0.00  0.00     0.256 A 
HETATM   10  C   UNK N   1      36.806  13.720  15.221  0.00  0.00     0.012 A 
HETATM   11  C   UNK N   1      34.433  12.896  16.531  0.00  0.00     0.018 A 
HETATM   12  C   UNK N   1      36.495  14.207  16.502  0.00  0.00     0.001 A 
HETATM   13  C   UNK N   1      35.312  13.798  17.154  0.00  0.00     0.001 A 
ENDROOT
BRANCH   4  14
HETATM   14  C   UNK N   1      36.044  13.147  12.105  0.00  0.00    -0.014 A 
HETATM   15  C   UNK N   1      37.157  13.199  11.250  0.00  0.00     0.017 A 
HETATM   16  C   UNK N   1      37.195  14.110  10.190  0.00  0.00    -0.061 A 
HETATM   17  C   UNK N   1      36.110  14.959   9.959  0.00  0.00     0.007 A 
HETATM   18  C   UNK N   1      38.398  14.188   9.321  0.00  0.00     0.048 C 
HETATM   19  C   UNK N   1      34.992  14.906  10.794  0.00  0.00     0.001 A 
HETATM   20  C   UNK N   1      34.964  14.014  11.870  0.00  0.00     0.011 A 
ENDBRANCH   4  14
TORSDOF 1
ENDMDL
MODEL 9
REMARK VINA RESULT:      -6.3     10.884     13.650
REMARK  1 active torsions:
REMARK  status: ('A' for Active; 'I' for Inactive)
REMARK    1  A    between atoms: C_4  and  C_8 
ROOT
HETATM    1  S   UNK N   1      29.114  25.565  -6.498  0.00  0.00    -0.126 SA
HETATM    2  O   UNK N   1      24.833  24.727  -5.320  0.00  0.00    -0.267 OA
HETATM    3  N   UNK N   1      27.087  24.871  -5.094  0.00  0.00    -0.320 N 
HETATM    4  C   UNK N   1      28.273  24.233  -5.606  0.00  0.00     0.140 A 
HETATM    5  C   UNK N   1      27.653  23.153  -6.480  0.00  0.00     0.001 A 
HETATM    6  C   UNK N   1      27.201  26.189  -4.560  0.00  0.00     0.138 C 
HETATM    7  C   UNK N   1      28.329  26.827  -5.381  0.00  0.00     0.097 C 
HETATM    8  C   UNK N   1      26.281  23.191  -6.390  0.00  0.00     0.042 A 
HETATM    9  C   UNK N   1      25.953  24.293  -5.533  0.00  0.00     0.256 A 
HETATM   10  C   UNK N   1      28.291  22.221  -7.301  0.00  0.00     0.012 A 
HETATM   11  C   UNK N   1      25.467  22.319  -7.110  0.00  0.00     0.018 A 
HETATM   12  C   UNK N   1      27.498  21.319  -8.031  0.00  0.00     0.001 A 
HETATM   13  C   UNK N   1      26.091  21.367  -7.935  0.00  0.00     0.001 A 
ENDROOT
BRANCH   4  14
HETATM   14  C   UNK N   1      29.167  23.671  -4.517  0.00  0.00    -0.014 A 
HETATM   15  C   UNK N   1      30.492  23.313  -4.817  0.00  0.00     0.017 A 
HETATM   16  C   UNK N   1      31.326  22.788  -3.826  0.00  0.00    -0.061 A 
HETATM   17  C   UNK N   1      30.852  22.640  -2.520  0.00  0.00     0.007 A 
HETATM   18  C   UNK N   1      32.710  22.370  -4.166  0.00  0.00     0.048 C 
HETATM   19  C   UNK N   1      29.541  23.006  -2.207  0.00  0.00     0.001 A 
HETATM   20  C   UNK N   1      28.698  23.506  -3.203  0.00  0.00     0.011 A 
ENDBRANCH   4  14
TORSDOF 1
ENDMDL
