REMARK  3 active torsions:
REMARK  status: ('A' for Active; 'I' for Inactive)
REMARK    1  A    between atoms: O_3  and  C_14 
REMARK    2  A    between atoms: C_6  and  C_12 
REMARK    3  A    between atoms: C_7  and  C_14 
ROOT
HETATM    1  S   UNK N   1       4.143  -0.198   2.147  0.00  0.00    -0.125 SA
HETATM    2  O   UNK N   1       5.070   2.569  -1.345  0.00  0.00    -0.267 OA
HETATM    3  N   UNK N   1       4.570   0.636  -0.225  0.00  0.00    -0.306 N 
HETATM    4  C   UNK N   1       3.445   0.088   0.508  0.00  0.00     0.141 A 
HETATM    5  C   UNK N   1       5.845  -0.035  -0.047  0.00  0.00     0.199 C 
HETATM    6  C   UNK N   1       2.430   1.207   0.379  0.00  0.00     0.001 A 
HETATM    7  C   UNK N   1       5.688  -0.771   1.296  0.00  0.00     0.113 C 
HETATM    8  C   UNK N   1       4.282   1.860  -0.733  0.00  0.00     0.257 A 
HETATM    9  C   UNK N   1       2.941   2.230  -0.384  0.00  0.00     0.042 A 
HETATM   10  C   UNK N   1       1.131   1.271   0.887  0.00  0.00     0.012 A 
HETATM   11  C   UNK N   1       2.206   3.381  -0.663  0.00  0.00     0.018 A 
HETATM   12  C   UNK N   1       0.357   2.409   0.605  0.00  0.00     0.001 A 
HETATM   13  C   UNK N   1       0.895   3.463  -0.163  0.00  0.00     0.001 A 
ENDROOT
BRANCH   4  14
HETATM   14  C   UNK N   1       2.883  -1.216  -0.039  0.00  0.00    -0.015 A 
HETATM   15  C   UNK N   1       3.413  -1.843  -1.178  0.00  0.00     0.011 A 
HETATM   16  C   UNK N   1       2.874  -3.055  -1.629  0.00  0.00     0.001 A 
HETATM   17  C   UNK N   1       1.806  -3.648  -0.948  0.00  0.00     0.000 A 
HETATM   18  C   UNK N   1       1.272  -3.030   0.183  0.00  0.00     0.001 A 
HETATM   19  C   UNK N   1       1.808  -1.824   0.635  0.00  0.00     0.011 A 
ENDBRANCH   4  14
BRANCH   5  20
HETATM   20  C   UNK N   1       7.121   0.801   0.027  0.00  0.00     0.282 C 
HETATM   21  O   UNK N   1       7.075   2.017   0.076  0.00  0.00    -0.263 OA
BRANCH  20  22
HETATM   22  O   UNK N   1       8.339   0.199   0.075  0.00  0.00    -0.325 OA
HETATM   23  C   UNK N   1       8.512  -1.165   0.025  0.00  0.00     0.213 C 
ENDBRANCH  20  22
ENDBRANCH   5  20
TORSDOF 3
