MODEL 1
REMARK VINA RESULT:      -6.8      0.000      0.000
REMARK  3 active torsions:
REMARK  status: ('A' for Active; 'I' for Inactive)
REMARK    1  A    between atoms: O_3  and  C_14 
REMARK    2  A    between atoms: C_6  and  C_12 
REMARK    3  A    between atoms: C_7  and  C_14 
ROOT
HETATM    1  S   UNK N   1      29.080  25.598  -6.595  0.00  0.00    -0.125 SA
HETATM    2  O   UNK N   1      24.637  25.751  -5.623  0.00  0.00    -0.267 OA
HETATM    3  N   UNK N   1      26.809  25.029  -5.584  0.00  0.00    -0.306 N 
HETATM    4  C   UNK N   1      28.085  25.512  -5.093  0.00  0.00     0.141 A 
HETATM    5  C   UNK N   1      26.855  23.929  -6.530  0.00  0.00     0.199 C 
HETATM    6  C   UNK N   1      27.683  26.829  -4.459  0.00  0.00     0.001 A 
HETATM    7  C   UNK N   1      28.277  24.009  -7.116  0.00  0.00     0.113 C 
HETATM    8  C   UNK N   1      25.804  25.887  -5.280  0.00  0.00     0.257 A 
HETATM    9  C   UNK N   1      26.324  27.012  -4.558  0.00  0.00     0.042 A 
HETATM   10  C   UNK N   1      28.487  27.769  -3.811  0.00  0.00     0.012 A 
HETATM   11  C   UNK N   1      25.692  28.145  -4.047  0.00  0.00     0.018 A 
HETATM   12  C   UNK N   1      27.877  28.911  -3.266  0.00  0.00     0.001 A 
HETATM   13  C   UNK N   1      26.485  29.101  -3.389  0.00  0.00     0.001 A 
ENDROOT
BRANCH   4  14
HETATM   14  C   UNK N   1      28.775  24.613  -4.077  0.00  0.00    -0.015 A 
HETATM   15  C   UNK N   1      30.169  24.445  -4.048  0.00  0.00     0.011 A 
HETATM   16  C   UNK N   1      30.759  23.624  -3.079  0.00  0.00     0.001 A 
HETATM   17  C   UNK N   1      29.964  22.966  -2.134  0.00  0.00     0.000 A 
HETATM   18  C   UNK N   1      28.578  23.125  -2.158  0.00  0.00     0.001 A 
HETATM   19  C   UNK N   1      27.989  23.944  -3.121  0.00  0.00     0.011 A 
ENDBRANCH   4  14
BRANCH   5  20
HETATM   20  C   UNK N   1      25.871  23.909  -7.697  0.00  0.00     0.282 C 
HETATM   21  O   UNK N   1      26.002  24.664  -8.644  0.00  0.00    -0.263 OA
BRANCH  20  22
HETATM   22  O   UNK N   1      24.843  23.020  -7.718  0.00  0.00    -0.325 OA
HETATM   23  C   UNK N   1      24.996  21.679  -7.453  0.00  0.00     0.213 C 
ENDBRANCH  20  22
ENDBRANCH   5  20
TORSDOF 3
ENDMDL
MODEL 2
REMARK VINA RESULT:      -6.7      1.977      5.121
REMARK  3 active torsions:
REMARK  status: ('A' for Active; 'I' for Inactive)
REMARK    1  A    between atoms: O_3  and  C_14 
REMARK    2  A    between atoms: C_6  and  C_12 
REMARK    3  A    between atoms: C_7  and  C_14 
ROOT
HETATM    1  S   UNK N   1      28.205  25.205  -7.476  0.00  0.00    -0.125 SA
HETATM    2  O   UNK N   1      26.280  25.513  -3.364  0.00  0.00    -0.267 OA
HETATM    3  N   UNK N   1      26.562  24.895  -5.550  0.00  0.00    -0.306 N 
HETATM    4  C   UNK N   1      27.457  24.046  -6.312  0.00  0.00     0.141 A 
HETATM    5  C   UNK N   1      25.758  25.834  -6.312  0.00  0.00     0.199 C 
HETATM    6  C   UNK N   1      28.353  23.497  -5.218  0.00  0.00     0.001 A 
HETATM    7  C   UNK N   1      26.534  25.994  -7.632  0.00  0.00     0.113 C 
HETATM    8  C   UNK N   1      26.844  24.850  -4.224  0.00  0.00     0.257 A 
HETATM    9  C   UNK N   1      27.950  23.967  -3.990  0.00  0.00     0.042 A 
HETATM   10  C   UNK N   1      29.426  22.612  -5.330  0.00  0.00     0.012 A 
HETATM   11  C   UNK N   1      28.602  23.608  -2.812  0.00  0.00     0.018 A 
HETATM   12  C   UNK N   1      30.091  22.214  -4.158  0.00  0.00     0.001 A 
HETATM   13  C   UNK N   1      29.684  22.715  -2.904  0.00  0.00     0.001 A 
ENDROOT
BRANCH   4  14
HETATM   14  C   UNK N   1      26.788  22.916  -7.080  0.00  0.00    -0.015 A 
HETATM   15  C   UNK N   1      25.537  22.396  -6.712  0.00  0.00     0.011 A 
HETATM   16  C   UNK N   1      24.953  21.369  -7.465  0.00  0.00     0.001 A 
HETATM   17  C   UNK N   1      25.611  20.856  -8.588  0.00  0.00     0.000 A 
HETATM   18  C   UNK N   1      26.856  21.366  -8.958  0.00  0.00     0.001 A 
HETATM   19  C   UNK N   1      27.439  22.389  -8.210  0.00  0.00     0.011 A 
ENDBRANCH   4  14
BRANCH   5  20
HETATM   20  C   UNK N   1      25.510  27.230  -5.745  0.00  0.00     0.282 C 
HETATM   21  O   UNK N   1      24.414  27.552  -5.321  0.00  0.00    -0.263 OA
BRANCH  20  22
HETATM   22  O   UNK N   1      26.522  28.135  -5.671  0.00  0.00    -0.325 OA
HETATM   23  C   UNK N   1      26.650  29.046  -4.647  0.00  0.00     0.213 C 
ENDBRANCH  20  22
ENDBRANCH   5  20
TORSDOF 3
ENDMDL
MODEL 3
REMARK VINA RESULT:      -6.2      1.160      1.792
REMARK  3 active torsions:
REMARK  status: ('A' for Active; 'I' for Inactive)
REMARK    1  A    between atoms: O_3  and  C_14 
REMARK    2  A    between atoms: C_6  and  C_12 
REMARK    3  A    between atoms: C_7  and  C_14 
ROOT
HETATM    1  S   UNK N   1      29.563  25.110  -6.646  0.00  0.00    -0.125 SA
HETATM    2  O   UNK N   1      25.143  24.077  -6.961  0.00  0.00    -0.267 OA
HETATM    3  N   UNK N   1      27.312  23.984  -6.236  0.00  0.00    -0.306 N 
HETATM    4  C   UNK N   1      28.220  24.823  -5.477  0.00  0.00     0.141 A 
HETATM    5  C   UNK N   1      27.913  22.897  -6.987  0.00  0.00     0.199 C 
HETATM    6  C   UNK N   1      27.330  26.006  -5.148  0.00  0.00     0.001 A 
HETATM    7  C   UNK N   1      29.377  23.340  -7.165  0.00  0.00     0.113 C 
HETATM    8  C   UNK N   1      26.081  24.545  -6.329  0.00  0.00     0.257 A 
HETATM    9  C   UNK N   1      26.063  25.802  -5.639  0.00  0.00     0.042 A 
HETATM   10  C   UNK N   1      27.643  27.160  -4.426  0.00  0.00     0.012 A 
HETATM   11  C   UNK N   1      25.045  26.738  -5.467  0.00  0.00     0.018 A 
HETATM   12  C   UNK N   1      26.632  28.113  -4.217  0.00  0.00     0.001 A 
HETATM   13  C   UNK N   1      25.339  27.905  -4.741  0.00  0.00     0.001 A 
ENDROOT
BRANCH   4  14
HETATM   14  C   UNK N   1      28.778  24.197  -4.207  0.00  0.00    -0.015 A 
HETATM   15  C   UNK N   1      27.949  23.705  -3.185  0.00  0.00     0.011 A 
HETATM   16  C   UNK N   1      28.512  23.118  -2.045  0.00  0.00     0.001 A 
HETATM   17  C   UNK N   1      29.901  23.017  -1.916  0.00  0.00     0.000 A 
HETATM   18  C   UNK N   1      30.731  23.506  -2.925  0.00  0.00     0.001 A 
HETATM   19  C   UNK N   1      30.173  24.090  -4.063  0.00  0.00     0.011 A 
ENDBRANCH   4  14
BRANCH   5  20
HETATM   20  C   UNK N   1      27.359  22.553  -8.368  0.00  0.00     0.282 C 
HETATM   21  O   UNK N   1      27.403  23.357  -9.282  0.00  0.00    -0.263 OA
BRANCH  20  22
HETATM   22  O   UNK N   1      26.835  21.323  -8.615  0.00  0.00    -0.325 OA
HETATM   23  C   UNK N   1      25.605  20.918  -8.153  0.00  0.00     0.213 C 
ENDBRANCH  20  22
ENDBRANCH   5  20
TORSDOF 3
ENDMDL
MODEL 4
REMARK VINA RESULT:      -6.0      2.740      5.392
REMARK  3 active torsions:
REMARK  status: ('A' for Active; 'I' for Inactive)
REMARK    1  A    between atoms: O_3  and  C_14 
REMARK    2  A    between atoms: C_6  and  C_12 
REMARK    3  A    between atoms: C_7  and  C_14 
ROOT
HETATM    1  S   UNK N   1      30.060  27.289  -6.464  0.00  0.00    -0.125 SA
HETATM    2  O   UNK N   1      28.064  23.643  -4.613  0.00  0.00    -0.267 OA
HETATM    3  N   UNK N   1      28.691  25.828  -4.885  0.00  0.00    -0.306 N 
HETATM    4  C   UNK N   1      28.421  26.908  -5.814  0.00  0.00     0.141 A 
HETATM    5  C   UNK N   1      29.836  26.001  -4.009  0.00  0.00     0.199 C 
HETATM    6  C   UNK N   1      27.442  26.246  -6.764  0.00  0.00     0.001 A 
HETATM    7  C   UNK N   1      30.708  27.035  -4.745  0.00  0.00     0.113 C 
HETATM    8  C   UNK N   1      27.982  24.715  -5.198  0.00  0.00     0.257 A 
HETATM    9  C   UNK N   1      27.178  24.959  -6.360  0.00  0.00     0.042 A 
HETATM   10  C   UNK N   1      26.813  26.788  -7.888  0.00  0.00     0.012 A 
HETATM   11  C   UNK N   1      26.301  24.131  -7.058  0.00  0.00     0.018 A 
HETATM   12  C   UNK N   1      25.908  25.985  -8.601  0.00  0.00     0.001 A 
HETATM   13  C   UNK N   1      25.657  24.658  -8.190  0.00  0.00     0.001 A 
ENDROOT
BRANCH   4  14
HETATM   14  C   UNK N   1      27.814  28.160  -5.200  0.00  0.00    -0.015 A 
HETATM   15  C   UNK N   1      28.220  29.452  -5.572  0.00  0.00     0.011 A 
HETATM   16  C   UNK N   1      27.614  30.574  -4.992  0.00  0.00     0.001 A 
HETATM   17  C   UNK N   1      26.602  30.416  -4.040  0.00  0.00     0.000 A 
HETATM   18  C   UNK N   1      26.194  29.136  -3.663  0.00  0.00     0.001 A 
HETATM   19  C   UNK N   1      26.795  28.017  -4.240  0.00  0.00     0.011 A 
ENDBRANCH   4  14
BRANCH   5  20
HETATM   20  C   UNK N   1      30.716  24.795  -3.688  0.00  0.00     0.282 C 
HETATM   21  O   UNK N   1      31.598  24.439  -4.449  0.00  0.00    -0.263 OA
BRANCH  20  22
HETATM   22  O   UNK N   1      30.554  24.113  -2.523  0.00  0.00    -0.325 OA
HETATM   23  C   UNK N   1      30.639  22.743  -2.431  0.00  0.00     0.213 C 
ENDBRANCH  20  22
ENDBRANCH   5  20
TORSDOF 3
ENDMDL
MODEL 5
REMARK VINA RESULT:      -6.0     11.654     13.882
REMARK  3 active torsions:
REMARK  status: ('A' for Active; 'I' for Inactive)
REMARK    1  A    between atoms: O_3  and  C_14 
REMARK    2  A    between atoms: C_6  and  C_12 
REMARK    3  A    between atoms: C_7  and  C_14 
ROOT
HETATM    1  S   UNK N   1      21.125  16.091   2.624  0.00  0.00    -0.125 SA
HETATM    2  O   UNK N   1      23.380  19.825   3.921  0.00  0.00    -0.267 OA
HETATM    3  N   UNK N   1      22.045  17.973   4.079  0.00  0.00    -0.306 N 
HETATM    4  C   UNK N   1      22.203  16.533   4.002  0.00  0.00     0.141 A 
HETATM    5  C   UNK N   1      20.687  18.479   3.981  0.00  0.00     0.199 C 
HETATM    6  C   UNK N   1      23.697  16.408   3.774  0.00  0.00     0.001 A 
HETATM    7  C   UNK N   1      19.924  17.347   3.271  0.00  0.00     0.113 C 
HETATM    8  C   UNK N   1      23.234  18.610   3.949  0.00  0.00     0.257 A 
HETATM    9  C   UNK N   1      24.286  17.651   3.775  0.00  0.00     0.042 A 
HETATM   10  C   UNK N   1      24.462  15.252   3.613  0.00  0.00     0.012 A 
HETATM   11  C   UNK N   1      25.658  17.817   3.592  0.00  0.00     0.018 A 
HETATM   12  C   UNK N   1      25.851  15.385   3.448  0.00  0.00     0.001 A 
HETATM   13  C   UNK N   1      26.446  16.665   3.432  0.00  0.00     0.001 A 
ENDROOT
BRANCH   4  14
HETATM   14  C   UNK N   1      21.780  15.763   5.244  0.00  0.00    -0.015 A 
HETATM   15  C   UNK N   1      21.922  16.288   6.538  0.00  0.00     0.011 A 
HETATM   16  C   UNK N   1      21.496  15.548   7.649  0.00  0.00     0.001 A 
HETATM   17  C   UNK N   1      20.929  14.281   7.476  0.00  0.00     0.000 A 
HETATM   18  C   UNK N   1      20.787  13.751   6.193  0.00  0.00     0.001 A 
HETATM   19  C   UNK N   1      21.208  14.487   5.085  0.00  0.00     0.011 A 
ENDBRANCH   4  14
BRANCH   5  20
HETATM   20  C   UNK N   1      20.430  19.771   3.207  0.00  0.00     0.282 C 
HETATM   21  O   UNK N   1      20.282  20.832   3.786  0.00  0.00    -0.263 OA
BRANCH  20  22
HETATM   22  O   UNK N   1      20.396  19.766   1.848  0.00  0.00    -0.325 OA
HETATM   23  C   UNK N   1      20.874  20.799   1.076  0.00  0.00     0.213 C 
ENDBRANCH  20  22
ENDBRANCH   5  20
TORSDOF 3
ENDMDL
MODEL 6
REMARK VINA RESULT:      -5.9     26.827     29.659
REMARK  3 active torsions:
REMARK  status: ('A' for Active; 'I' for Inactive)
REMARK    1  A    between atoms: O_3  and  C_14 
REMARK    2  A    between atoms: C_6  and  C_12 
REMARK    3  A    between atoms: C_7  and  C_14 
ROOT
HETATM    1  S   UNK N   1      37.026   9.631  20.252  0.00  0.00    -0.125 SA
HETATM    2  O   UNK N   1      36.206   9.212  15.795  0.00  0.00    -0.267 OA
HETATM    3  N   UNK N   1      35.890   9.012  18.054  0.00  0.00    -0.306 N 
HETATM    4  C   UNK N   1      35.603   9.888  19.173  0.00  0.00     0.141 A 
HETATM    5  C   UNK N   1      36.365   7.680  18.382  0.00  0.00     0.199 C 
HETATM    6  C   UNK N   1      35.500  11.233  18.480  0.00  0.00     0.001 A 
HETATM    7  C   UNK N   1      36.931   7.833  19.806  0.00  0.00     0.113 C 
HETATM    8  C   UNK N   1      35.929   9.697  16.884  0.00  0.00     0.257 A 
HETATM    9  C   UNK N   1      35.668  11.087  17.124  0.00  0.00     0.042 A 
HETATM   10  C   UNK N   1      35.238  12.486  19.039  0.00  0.00     0.012 A 
HETATM   11  C   UNK N   1      35.613  12.173  16.252  0.00  0.00     0.018 A 
HETATM   12  C   UNK N   1      35.155  13.597  18.184  0.00  0.00     0.001 A 
HETATM   13  C   UNK N   1      35.347  13.441  16.795  0.00  0.00     0.001 A 
ENDROOT
BRANCH   4  14
HETATM   14  C   UNK N   1      34.324   9.575  19.935  0.00  0.00    -0.015 A 
HETATM   15  C   UNK N   1      34.123   9.981  21.264  0.00  0.00     0.011 A 
HETATM   16  C   UNK N   1      32.918   9.687  21.915  0.00  0.00     0.001 A 
HETATM   17  C   UNK N   1      31.908   8.987  21.247  0.00  0.00     0.000 A 
HETATM   18  C   UNK N   1      32.101   8.578  19.927  0.00  0.00     0.001 A 
HETATM   19  C   UNK N   1      33.299   8.871  19.276  0.00  0.00     0.011 A 
ENDBRANCH   4  14
BRANCH   5  20
HETATM   20  C   UNK N   1      37.450   7.043  17.516  0.00  0.00     0.282 C 
HETATM   21  O   UNK N   1      37.197   6.108  16.777  0.00  0.00    -0.263 OA
BRANCH  20  22
HETATM   22  O   UNK N   1      38.718   7.532  17.528  0.00  0.00    -0.325 OA
HETATM   23  C   UNK N   1      39.553   7.498  16.434  0.00  0.00     0.213 C 
ENDBRANCH  20  22
ENDBRANCH   5  20
TORSDOF 3
ENDMDL
MODEL 7
REMARK VINA RESULT:      -5.7      1.218      1.805
REMARK  3 active torsions:
REMARK  status: ('A' for Active; 'I' for Inactive)
REMARK    1  A    between atoms: O_3  and  C_14 
REMARK    2  A    between atoms: C_6  and  C_12 
REMARK    3  A    between atoms: C_7  and  C_14 
ROOT
HETATM    1  S   UNK N   1      29.819  25.238  -6.752  0.00  0.00    -0.125 SA
HETATM    2  O   UNK N   1      25.799  25.972  -4.748  0.00  0.00    -0.267 OA
HETATM    3  N   UNK N   1      27.790  24.952  -5.233  0.00  0.00    -0.306 N 
HETATM    4  C   UNK N   1      29.203  25.230  -5.056  0.00  0.00     0.141 A 
HETATM    5  C   UNK N   1      27.453  23.896  -6.171  0.00  0.00     0.199 C 
HETATM    6  C   UNK N   1      29.157  26.563  -4.335  0.00  0.00     0.001 A 
HETATM    7  C   UNK N   1      28.693  23.801  -7.078  0.00  0.00     0.113 C 
HETATM    8  C   UNK N   1      27.021  25.929  -4.691  0.00  0.00     0.257 A 
HETATM    9  C   UNK N   1      27.855  26.938  -4.106  0.00  0.00     0.042 A 
HETATM   10  C   UNK N   1      30.220  27.352  -3.890  0.00  0.00     0.012 A 
HETATM   11  C   UNK N   1      27.533  28.126  -3.451  0.00  0.00     0.018 A 
HETATM   12  C   UNK N   1      29.928  28.545  -3.207  0.00  0.00     0.001 A 
HETATM   13  C   UNK N   1      28.589  28.933  -2.993  0.00  0.00     0.001 A 
ENDROOT
BRANCH   4  14
HETATM   14  C   UNK N   1      29.973  24.201  -4.241  0.00  0.00    -0.015 A 
HETATM   15  C   UNK N   1      31.238  23.731  -4.628  0.00  0.00     0.011 A 
HETATM   16  C   UNK N   1      31.917  22.800  -3.831  0.00  0.00     0.001 A 
HETATM   17  C   UNK N   1      31.339  22.333  -2.646  0.00  0.00     0.000 A 
HETATM   18  C   UNK N   1      30.082  22.793  -2.256  0.00  0.00     0.001 A 
HETATM   19  C   UNK N   1      29.405  23.722  -3.047  0.00  0.00     0.011 A 
ENDBRANCH   4  14
BRANCH   5  20
HETATM   20  C   UNK N   1      26.230  24.065  -7.070  0.00  0.00     0.282 C 
HETATM   21  O   UNK N   1      25.159  23.563  -6.777  0.00  0.00    -0.263 OA
BRANCH  20  22
HETATM   22  O   UNK N   1      26.304  24.811  -8.203  0.00  0.00    -0.325 OA
HETATM   23  C   UNK N   1      26.004  26.153  -8.247  0.00  0.00     0.213 C 
ENDBRANCH  20  22
ENDBRANCH   5  20
TORSDOF 3
ENDMDL
MODEL 8
REMARK VINA RESULT:      -5.7      3.263      5.975
REMARK  3 active torsions:
REMARK  status: ('A' for Active; 'I' for Inactive)
REMARK    1  A    between atoms: O_3  and  C_14 
REMARK    2  A    between atoms: C_6  and  C_12 
REMARK    3  A    between atoms: C_7  and  C_14 
ROOT
HETATM    1  S   UNK N   1      30.156  21.708  -3.280  0.00  0.00    -0.125 SA
HETATM    2  O   UNK N   1      27.452  23.758  -6.311  0.00  0.00    -0.267 OA
HETATM    3  N   UNK N   1      29.325  23.324  -5.069  0.00  0.00    -0.306 N 
HETATM    4  C   UNK N   1      30.329  22.281  -4.982  0.00  0.00     0.141 A 
HETATM    5  C   UNK N   1      29.261  24.253  -3.956  0.00  0.00     0.199 C 
HETATM    6  C   UNK N   1      29.874  21.334  -6.075  0.00  0.00     0.001 A 
HETATM    7  C   UNK N   1      29.917  23.482  -2.796  0.00  0.00     0.113 C 
HETATM    8  C   UNK N   1      28.432  23.071  -6.058  0.00  0.00     0.257 A 
HETATM    9  C   UNK N   1      28.767  21.840  -6.715  0.00  0.00     0.042 A 
HETATM   10  C   UNK N   1      30.445  20.126  -6.479  0.00  0.00     0.012 A 
HETATM   11  C   UNK N   1      28.150  21.166  -7.768  0.00  0.00     0.018 A 
HETATM   12  C   UNK N   1      29.860  19.433  -7.552  0.00  0.00     0.001 A 
HETATM   13  C   UNK N   1      28.713  19.950  -8.190  0.00  0.00     0.001 A 
ENDROOT
BRANCH   4  14
HETATM   14  C   UNK N   1      31.762  22.734  -5.222  0.00  0.00    -0.015 A 
HETATM   15  C   UNK N   1      32.075  23.840  -6.028  0.00  0.00     0.011 A 
HETATM   16  C   UNK N   1      33.410  24.230  -6.200  0.00  0.00     0.001 A 
HETATM   17  C   UNK N   1      34.438  23.521  -5.570  0.00  0.00     0.000 A 
HETATM   18  C   UNK N   1      34.135  22.419  -4.770  0.00  0.00     0.001 A 
HETATM   19  C   UNK N   1      32.807  22.030  -4.596  0.00  0.00     0.011 A 
ENDBRANCH   4  14
BRANCH   5  20
HETATM   20  C   UNK N   1      27.897  24.744  -3.475  0.00  0.00     0.282 C 
HETATM   21  O   UNK N   1      27.182  24.040  -2.784  0.00  0.00    -0.263 OA
BRANCH  20  22
HETATM   22  O   UNK N   1      27.466  25.996  -3.782  0.00  0.00    -0.325 OA
HETATM   23  C   UNK N   1      26.269  26.514  -3.343  0.00  0.00     0.213 C 
ENDBRANCH  20  22
ENDBRANCH   5  20
TORSDOF 3
ENDMDL
MODEL 9
REMARK VINA RESULT:      -5.6      2.116      5.662
REMARK  3 active torsions:
REMARK  status: ('A' for Active; 'I' for Inactive)
REMARK    1  A    between atoms: O_3  and  C_14 
REMARK    2  A    between atoms: C_6  and  C_12 
REMARK    3  A    between atoms: C_7  and  C_14 
ROOT
HETATM    1  S   UNK N   1      29.330  23.778  -5.290  0.00  0.00    -0.125 SA
HETATM    2  O   UNK N   1      24.822  24.396  -5.358  0.00  0.00    -0.267 OA
HETATM    3  N   UNK N   1      27.037  24.770  -5.800  0.00  0.00    -0.306 N 
HETATM    4  C   UNK N   1      28.096  24.132  -6.558  0.00  0.00     0.141 A 
HETATM    5  C   UNK N   1      27.447  25.774  -4.836  0.00  0.00     0.199 C 
HETATM    6  C   UNK N   1      27.365  22.946  -7.155  0.00  0.00     0.001 A 
HETATM    7  C   UNK N   1      28.920  25.428  -4.550  0.00  0.00     0.113 C 
HETATM    8  C   UNK N   1      25.862  24.106  -5.934  0.00  0.00     0.257 A 
HETATM    9  C   UNK N   1      26.039  22.971  -6.793  0.00  0.00     0.042 A 
HETATM   10  C   UNK N   1      27.861  21.944  -7.992  0.00  0.00     0.012 A 
HETATM   11  C   UNK N   1      25.140  21.993  -7.217  0.00  0.00     0.018 A 
HETATM   12  C   UNK N   1      26.975  20.957  -8.453  0.00  0.00     0.001 A 
HETATM   13  C   UNK N   1      25.620  20.978  -8.062  0.00  0.00     0.001 A 
ENDROOT
BRANCH   4  14
HETATM   14  C   UNK N   1      28.722  24.987  -7.651  0.00  0.00    -0.015 A 
HETATM   15  C   UNK N   1      30.095  24.947  -7.941  0.00  0.00     0.011 A 
HETATM   16  C   UNK N   1      30.619  25.738  -8.972  0.00  0.00     0.001 A 
HETATM   17  C   UNK N   1      29.779  26.569  -9.719  0.00  0.00     0.000 A 
HETATM   18  C   UNK N   1      28.414  26.616  -9.435  0.00  0.00     0.001 A 
HETATM   19  C   UNK N   1      27.889  25.829  -8.410  0.00  0.00     0.011 A 
ENDBRANCH   4  14
BRANCH   5  20
HETATM   20  C   UNK N   1      26.721  25.859  -3.495  0.00  0.00     0.282 C 
HETATM   21  O   UNK N   1      26.641  24.891  -2.760  0.00  0.00    -0.263 OA
BRANCH  20  22
HETATM   22  O   UNK N   1      26.175  27.032  -3.078  0.00  0.00    -0.325 OA
HETATM   23  C   UNK N   1      25.618  27.954  -3.933  0.00  0.00     0.213 C 
ENDBRANCH  20  22
ENDBRANCH   5  20
TORSDOF 3
ENDMDL
