MODEL 1
REMARK VINA RESULT:      -6.6      0.000      0.000
REMARK  7 active torsions:
REMARK  status: ('A' for Active; 'I' for Inactive)
REMARK    1  A    between atoms: O_1  and  C_13 
REMARK    2  A    between atoms: O_1  and  C_15 
REMARK    3  A    between atoms: C_9  and  O_2 
REMARK    4  A    between atoms: N_3  and  C_7 
REMARK    5  A    between atoms: N_3  and  C_8 
REMARK    6  A    between atoms: C_8  and  C_9 
REMARK    7  A    between atoms: C_9  and  C_13 
ROOT
HETATM    1  N   UNK N   1      34.519  12.329  16.364  0.00  0.00    -0.350 N 
ATOM      2  HN  UNK N   1      33.941  11.947  17.113  1.00  0.00     0.166 HD
HETATM    3  N   UNK N   1      35.667  14.848  18.528  0.00  0.00    -0.190 NA
HETATM    4  C   UNK N   1      35.436  12.629  14.334  0.00  0.00     0.008 A 
HETATM    5  C   UNK N   1      35.643  12.453  12.992  0.00  0.00     0.077 A 
HETATM    6  C   UNK N   1      36.069  13.655  15.194  0.00  0.00     0.112 A 
HETATM    7  C   UNK N   1      34.575  11.866  15.049  0.00  0.00     0.042 A 
HETATM    8  C   UNK N   1      34.963  11.408  12.334  0.00  0.00     0.037 A 
HETATM    9  C   UNK N   1      35.332  13.327  16.461  0.00  0.00     0.095 A 
HETATM   10  C   UNK N   1      33.845  10.837  14.446  0.00  0.00     0.030 A 
HETATM   11  C   UNK N   1      34.058  10.600  13.067  0.00  0.00     0.005 A 
HETATM   12  C   UNK N   1      35.490  14.148  17.624  0.00  0.00     0.113 C 
ENDROOT
BRANCH   5  13
HETATM   13  O   UNK N   1      36.472  13.309  12.374  0.00  0.00    -0.348 OA
BRANCH  13  14
HETATM   14  C   UNK N   1      36.153  13.857  11.174  0.00  0.00     0.209 C 
BRANCH  14  15
HETATM   15  C   UNK N   1      35.826  15.334  11.377  0.00  0.00     0.159 C 
BRANCH  15  16
HETATM   16  O   UNK N   1      36.840  16.172  10.902  0.00  0.00    -0.392 OA
HETATM   17  H   UNK N   1      36.832  17.129  10.747  0.00  0.00     0.210 HD
ENDBRANCH  15  16
BRANCH  15  18
HETATM   18  C   UNK N   1      34.576  15.596  10.591  0.00  0.00     0.148 C 
BRANCH  18  19
HETATM   19  N   UNK N   1      34.618  16.978  10.134  0.00  0.00    -0.411 N 
HETATM   20  H   UNK N   1      34.952  17.759  10.698  0.00  0.00     0.154 HD
BRANCH  19  21
HETATM   21  C   UNK N   1      34.124  17.106   8.768  0.00  0.00     0.014 C 
HETATM   22  C   UNK N   1      34.639  18.412   8.210  0.00  0.00     0.037 C 
HETATM   23  C   UNK N   1      34.649  15.980   7.889  0.00  0.00     0.037 C 
HETATM   24  C   UNK N   1      32.602  17.154   8.750  0.00  0.00     0.037 C 
ENDBRANCH  19  21
ENDBRANCH  18  19
ENDBRANCH  15  18
ENDBRANCH  14  15
ENDBRANCH  13  14
ENDBRANCH   5  13
TORSDOF 7
ENDMDL
MODEL 2
REMARK VINA RESULT:      -6.5      6.117      9.458
REMARK  7 active torsions:
REMARK  status: ('A' for Active; 'I' for Inactive)
REMARK    1  A    between atoms: O_1  and  C_13 
REMARK    2  A    between atoms: O_1  and  C_15 
REMARK    3  A    between atoms: C_9  and  O_2 
REMARK    4  A    between atoms: N_3  and  C_7 
REMARK    5  A    between atoms: N_3  and  C_8 
REMARK    6  A    between atoms: C_8  and  C_9 
REMARK    7  A    between atoms: C_9  and  C_13 
ROOT
HETATM    1  N   UNK N   1      34.457  17.520   7.179  0.00  0.00    -0.350 N 
ATOM      2  HN  UNK N   1      35.429  17.684   6.918  1.00  0.00     0.166 HD
HETATM    3  N   UNK N   1      35.424  17.087  10.529  0.00  0.00    -0.190 NA
HETATM    4  C   UNK N   1      32.237  17.211   7.009  0.00  0.00     0.008 A 
HETATM    5  C   UNK N   1      31.018  17.035   6.410  0.00  0.00     0.077 A 
HETATM    6  C   UNK N   1      32.523  17.129   8.460  0.00  0.00     0.112 A 
HETATM    7  C   UNK N   1      33.367  17.468   6.309  0.00  0.00     0.042 A 
HETATM    8  C   UNK N   1      30.927  17.167   5.010  0.00  0.00     0.037 A 
HETATM    9  C   UNK N   1      34.010  17.324   8.375  0.00  0.00     0.095 A 
HETATM   10  C   UNK N   1      33.348  17.575   4.915  0.00  0.00     0.030 A 
HETATM   11  C   UNK N   1      32.100  17.436   4.262  0.00  0.00     0.005 A 
HETATM   12  C   UNK N   1      34.825  17.197   9.546  0.00  0.00     0.113 C 
ENDROOT
BRANCH   5  13
HETATM   13  O   UNK N   1      29.977  16.723   7.200  0.00  0.00    -0.348 OA
BRANCH  13  14
HETATM   14  C   UNK N   1      28.879  17.518   7.265  0.00  0.00     0.209 C 
BRANCH  14  15
HETATM   15  C   UNK N   1      27.687  16.762   6.685  0.00  0.00     0.159 C 
BRANCH  15  16
HETATM   16  O   UNK N   1      26.713  16.488   7.650  0.00  0.00    -0.392 OA
HETATM   17  H   UNK N   1      25.756  16.639   7.625  0.00  0.00     0.210 HD
ENDBRANCH  15  16
BRANCH  15  18
HETATM   18  C   UNK N   1      27.093  17.659   5.640  0.00  0.00     0.148 C 
BRANCH  18  19
HETATM   19  N   UNK N   1      26.710  18.906   6.288  0.00  0.00    -0.411 N 
HETATM   20  H   UNK N   1      26.399  18.977   7.256  0.00  0.00     0.154 HD
BRANCH  19  21
HETATM   21  C   UNK N   1      26.827  20.040   5.380  0.00  0.00     0.014 C 
HETATM   22  C   UNK N   1      26.938  21.294   6.216  0.00  0.00     0.037 C 
HETATM   23  C   UNK N   1      28.085  19.931   4.530  0.00  0.00     0.037 C 
HETATM   24  C   UNK N   1      25.585  20.163   4.510  0.00  0.00     0.037 C 
ENDBRANCH  19  21
ENDBRANCH  18  19
ENDBRANCH  15  18
ENDBRANCH  14  15
ENDBRANCH  13  14
ENDBRANCH   5  13
TORSDOF 7
ENDMDL
MODEL 3
REMARK VINA RESULT:      -6.4      6.052      9.269
REMARK  7 active torsions:
REMARK  status: ('A' for Active; 'I' for Inactive)
REMARK    1  A    between atoms: O_1  and  C_13 
REMARK    2  A    between atoms: O_1  and  C_15 
REMARK    3  A    between atoms: C_9  and  O_2 
REMARK    4  A    between atoms: N_3  and  C_7 
REMARK    5  A    between atoms: N_3  and  C_8 
REMARK    6  A    between atoms: C_8  and  C_9 
REMARK    7  A    between atoms: C_9  and  C_13 
ROOT
HETATM    1  N   UNK N   1      34.463  17.478   7.268  0.00  0.00    -0.350 N 
ATOM      2  HN  UNK N   1      35.426  17.603   6.956  1.00  0.00     0.166 HD
HETATM    3  N   UNK N   1      35.580  17.038  10.570  0.00  0.00    -0.190 NA
HETATM    4  C   UNK N   1      32.227  17.255   7.211  0.00  0.00     0.008 A 
HETATM    5  C   UNK N   1      30.974  17.120   6.676  0.00  0.00     0.077 A 
HETATM    6  C   UNK N   1      32.582  17.174   8.647  0.00  0.00     0.112 A 
HETATM    7  C   UNK N   1      33.330  17.461   6.453  0.00  0.00     0.042 A 
HETATM    8  C   UNK N   1      30.819  17.243   5.280  0.00  0.00     0.037 A 
HETATM    9  C   UNK N   1      34.070  17.310   8.486  0.00  0.00     0.095 A 
HETATM   10  C   UNK N   1      33.245  17.556   5.060  0.00  0.00     0.030 A 
HETATM   11  C   UNK N   1      31.962  17.460   4.471  0.00  0.00     0.005 A 
HETATM   12  C   UNK N   1      34.937  17.162   9.616  0.00  0.00     0.113 C 
ENDROOT
BRANCH   5  13
HETATM   13  O   UNK N   1      29.963  16.856   7.519  0.00  0.00    -0.348 OA
BRANCH  13  14
HETATM   14  C   UNK N   1      29.524  17.785   8.405  0.00  0.00     0.209 C 
BRANCH  14  15
HETATM   15  C   UNK N   1      28.061  18.099   8.107  0.00  0.00     0.159 C 
BRANCH  15  16
HETATM   16  O   UNK N   1      27.348  18.450   9.258  0.00  0.00    -0.392 OA
HETATM   17  H   UNK N   1      27.558  18.287  10.190  0.00  0.00     0.210 HD
ENDBRANCH  15  16
BRANCH  15  18
HETATM   18  C   UNK N   1      28.069  19.269   7.169  0.00  0.00     0.148 C 
BRANCH  18  19
HETATM   19  N   UNK N   1      26.739  19.382   6.585  0.00  0.00    -0.411 N 
HETATM   20  H   UNK N   1      25.881  19.482   7.128  0.00  0.00     0.154 HD
BRANCH  19  21
HETATM   21  C   UNK N   1      26.786  19.335   5.129  0.00  0.00     0.014 C 
HETATM   22  C   UNK N   1      26.750  17.884   4.711  0.00  0.00     0.037 C 
HETATM   23  C   UNK N   1      25.576  20.029   4.521  0.00  0.00     0.037 C 
HETATM   24  C   UNK N   1      28.084  19.941   4.613  0.00  0.00     0.037 C 
ENDBRANCH  19  21
ENDBRANCH  18  19
ENDBRANCH  15  18
ENDBRANCH  14  15
ENDBRANCH  13  14
ENDBRANCH   5  13
TORSDOF 7
ENDMDL
MODEL 4
REMARK VINA RESULT:      -6.2      7.694      9.955
REMARK  7 active torsions:
REMARK  status: ('A' for Active; 'I' for Inactive)
REMARK    1  A    between atoms: O_1  and  C_13 
REMARK    2  A    between atoms: O_1  and  C_15 
REMARK    3  A    between atoms: C_9  and  O_2 
REMARK    4  A    between atoms: N_3  and  C_7 
REMARK    5  A    between atoms: N_3  and  C_8 
REMARK    6  A    between atoms: C_8  and  C_9 
REMARK    7  A    between atoms: C_9  and  C_13 
ROOT
HETATM    1  N   UNK N   1      31.688  18.260   8.938  0.00  0.00    -0.350 N 
ATOM      2  HN  UNK N   1      31.871  18.753   9.812  1.00  0.00     0.166 HD
HETATM    3  N   UNK N   1      35.065  18.598   8.031  0.00  0.00    -0.190 NA
HETATM    4  C   UNK N   1      30.584  17.212   7.284  0.00  0.00     0.008 A 
HETATM    5  C   UNK N   1      29.520  16.730   6.569  0.00  0.00     0.077 A 
HETATM    6  C   UNK N   1      32.003  17.197   6.864  0.00  0.00     0.112 A 
HETATM    7  C   UNK N   1      30.446  17.803   8.495  0.00  0.00     0.042 A 
HETATM    8  C   UNK N   1      28.231  16.813   7.136  0.00  0.00     0.037 A 
HETATM    9  C   UNK N   1      32.562  17.943   8.042  0.00  0.00     0.095 A 
HETATM   10  C   UNK N   1      29.190  17.947   9.093  0.00  0.00     0.030 A 
HETATM   11  C   UNK N   1      28.069  17.428   8.402  0.00  0.00     0.005 A 
HETATM   12  C   UNK N   1      33.942  18.325   8.069  0.00  0.00     0.113 C 
ENDROOT
BRANCH   5  13
HETATM   13  O   UNK N   1      29.768  16.220   5.352  0.00  0.00    -0.348 OA
BRANCH  13  14
HETATM   14  C   UNK N   1      29.716  16.997   4.240  0.00  0.00     0.209 C 
BRANCH  14  15
HETATM   15  C   UNK N   1      28.549  16.536   3.371  0.00  0.00     0.159 C 
BRANCH  15  16
HETATM   16  O   UNK N   1      28.113  15.251   3.707  0.00  0.00    -0.392 OA
HETATM   17  H   UNK N   1      27.448  14.972   4.356  0.00  0.00     0.210 HD
ENDBRANCH  15  16
BRANCH  15  18
HETATM   18  C   UNK N   1      27.434  17.507   3.622  0.00  0.00     0.148 C 
BRANCH  18  19
HETATM   19  N   UNK N   1      28.028  18.782   3.998  0.00  0.00    -0.411 N 
HETATM   20  H   UNK N   1      29.025  18.988   3.944  0.00  0.00     0.154 HD
BRANCH  19  21
HETATM   21  C   UNK N   1      27.020  19.728   4.460  0.00  0.00     0.014 C 
HETATM   22  C   UNK N   1      25.899  18.939   5.094  0.00  0.00     0.037 C 
HETATM   23  C   UNK N   1      27.592  20.663   5.517  0.00  0.00     0.037 C 
HETATM   24  C   UNK N   1      26.441  20.511   3.290  0.00  0.00     0.037 C 
ENDBRANCH  19  21
ENDBRANCH  18  19
ENDBRANCH  15  18
ENDBRANCH  14  15
ENDBRANCH  13  14
ENDBRANCH   5  13
TORSDOF 7
ENDMDL
MODEL 5
REMARK VINA RESULT:      -6.1      8.613     10.958
REMARK  7 active torsions:
REMARK  status: ('A' for Active; 'I' for Inactive)
REMARK    1  A    between atoms: O_1  and  C_13 
REMARK    2  A    between atoms: O_1  and  C_15 
REMARK    3  A    between atoms: C_9  and  O_2 
REMARK    4  A    between atoms: N_3  and  C_7 
REMARK    5  A    between atoms: N_3  and  C_8 
REMARK    6  A    between atoms: C_8  and  C_9 
REMARK    7  A    between atoms: C_9  and  C_13 
ROOT
HETATM    1  N   UNK N   1      30.622  16.647   3.400  0.00  0.00    -0.350 N 
ATOM      2  HN  UNK N   1      30.913  16.754   2.428  1.00  0.00     0.166 HD
HETATM    3  N   UNK N   1      27.402  15.724   2.340  0.00  0.00    -0.190 NA
HETATM    4  C   UNK N   1      30.677  16.674   5.647  0.00  0.00     0.008 A 
HETATM    5  C   UNK N   1      31.159  16.914   6.906  0.00  0.00     0.077 A 
HETATM    6  C   UNK N   1      29.330  16.162   5.305  0.00  0.00     0.112 A 
HETATM    7  C   UNK N   1      31.401  16.911   4.528  0.00  0.00     0.042 A 
HETATM    8  C   UNK N   1      32.479  17.388   7.045  0.00  0.00     0.037 A 
HETATM    9  C   UNK N   1      29.467  16.240   3.811  0.00  0.00     0.095 A 
HETATM   10  C   UNK N   1      32.703  17.416   4.599  0.00  0.00     0.030 A 
HETATM   11  C   UNK N   1      33.251  17.642   5.884  0.00  0.00     0.005 A 
HETATM   12  C   UNK N   1      28.345  15.965   2.965  0.00  0.00     0.113 C 
ENDROOT
BRANCH   5  13
HETATM   13  O   UNK N   1      30.330  16.700   7.940  0.00  0.00    -0.348 OA
BRANCH  13  14
HETATM   14  C   UNK N   1      29.831  17.731   8.668  0.00  0.00     0.209 C 
BRANCH  14  15
HETATM   15  C   UNK N   1      28.374  17.955   8.273  0.00  0.00     0.159 C 
BRANCH  15  16
HETATM   16  O   UNK N   1      27.569  18.268   9.373  0.00  0.00    -0.392 OA
HETATM   17  H   UNK N   1      27.801  18.335  10.312  0.00  0.00     0.210 HD
ENDBRANCH  15  16
BRANCH  15  18
HETATM   18  C   UNK N   1      28.372  19.118   7.326  0.00  0.00     0.148 C 
BRANCH  18  19
HETATM   19  N   UNK N   1      26.986  19.457   7.039  0.00  0.00    -0.411 N 
HETATM   20  H   UNK N   1      26.202  19.234   7.651  0.00  0.00     0.154 HD
BRANCH  19  21
HETATM   21  C   UNK N   1      26.857  20.156   5.766  0.00  0.00     0.014 C 
HETATM   22  C   UNK N   1      26.719  21.632   6.059  0.00  0.00     0.037 C 
HETATM   23  C   UNK N   1      28.100  19.963   4.909  0.00  0.00     0.037 C 
HETATM   24  C   UNK N   1      25.605  19.704   5.028  0.00  0.00     0.037 C 
ENDBRANCH  19  21
ENDBRANCH  18  19
ENDBRANCH  15  18
ENDBRANCH  14  15
ENDBRANCH  13  14
ENDBRANCH   5  13
TORSDOF 7
ENDMDL
MODEL 6
REMARK VINA RESULT:      -6.1     18.005     21.392
REMARK  7 active torsions:
REMARK  status: ('A' for Active; 'I' for Inactive)
REMARK    1  A    between atoms: O_1  and  C_13 
REMARK    2  A    between atoms: O_1  and  C_15 
REMARK    3  A    between atoms: C_9  and  O_2 
REMARK    4  A    between atoms: N_3  and  C_7 
REMARK    5  A    between atoms: N_3  and  C_8 
REMARK    6  A    between atoms: C_8  and  C_9 
REMARK    7  A    between atoms: C_9  and  C_13 
ROOT
HETATM    1  N   UNK N   1      31.384  20.688  -5.105  0.00  0.00    -0.350 N 
ATOM      2  HN  UNK N   1      31.988  19.892  -5.307  1.00  0.00     0.166 HD
HETATM    3  N   UNK N   1      33.121  21.252  -2.103  0.00  0.00    -0.190 NA
HETATM    4  C   UNK N   1      29.722  22.191  -5.286  0.00  0.00     0.008 A 
HETATM    5  C   UNK N   1      28.591  22.786  -5.779  0.00  0.00     0.077 A 
HETATM    6  C   UNK N   1      30.461  22.585  -4.064  0.00  0.00     0.112 A 
HETATM    7  C   UNK N   1      30.300  21.117  -5.874  0.00  0.00     0.042 A 
HETATM    8  C   UNK N   1      28.029  22.286  -6.971  0.00  0.00     0.037 A 
HETATM    9  C   UNK N   1      31.481  21.483  -4.092  0.00  0.00     0.095 A 
HETATM   10  C   UNK N   1      29.769  20.553  -7.038  0.00  0.00     0.030 A 
HETATM   11  C   UNK N   1      28.622  21.162  -7.599  0.00  0.00     0.005 A 
HETATM   12  C   UNK N   1      32.402  21.322  -3.007  0.00  0.00     0.113 C 
ENDROOT
BRANCH   5  13
HETATM   13  O   UNK N   1      28.070  23.806  -5.079  0.00  0.00    -0.348 OA
BRANCH  13  14
HETATM   14  C   UNK N   1      26.733  24.036  -5.058  0.00  0.00     0.209 C 
BRANCH  14  15
HETATM   15  C   UNK N   1      26.324  24.442  -3.644  0.00  0.00     0.159 C 
BRANCH  15  16
HETATM   16  O   UNK N   1      27.006  23.713  -2.665  0.00  0.00    -0.392 OA
HETATM   17  H   UNK N   1      27.934  23.764  -2.388  0.00  0.00     0.210 HD
ENDBRANCH  15  16
BRANCH  15  18
HETATM   18  C   UNK N   1      26.684  25.891  -3.506  0.00  0.00     0.148 C 
BRANCH  18  19
HETATM   19  N   UNK N   1      26.980  26.406  -4.836  0.00  0.00    -0.411 N 
HETATM   20  H   UNK N   1      27.649  25.983  -5.479  0.00  0.00     0.154 HD
BRANCH  19  21
HETATM   21  C   UNK N   1      26.200  27.601  -5.134  0.00  0.00     0.014 C 
HETATM   22  C   UNK N   1      25.805  28.236  -3.822  0.00  0.00     0.037 C 
HETATM   23  C   UNK N   1      27.027  28.612  -5.914  0.00  0.00     0.037 C 
HETATM   24  C   UNK N   1      24.926  27.238  -5.884  0.00  0.00     0.037 C 
ENDBRANCH  19  21
ENDBRANCH  18  19
ENDBRANCH  15  18
ENDBRANCH  14  15
ENDBRANCH  13  14
ENDBRANCH   5  13
TORSDOF 7
ENDMDL
MODEL 7
REMARK VINA RESULT:      -6.0     19.052     22.364
REMARK  7 active torsions:
REMARK  status: ('A' for Active; 'I' for Inactive)
REMARK    1  A    between atoms: O_1  and  C_13 
REMARK    2  A    between atoms: O_1  and  C_15 
REMARK    3  A    between atoms: C_9  and  O_2 
REMARK    4  A    between atoms: N_3  and  C_7 
REMARK    5  A    between atoms: N_3  and  C_8 
REMARK    6  A    between atoms: C_8  and  C_9 
REMARK    7  A    between atoms: C_9  and  C_13 
ROOT
HETATM    1  N   UNK N   1      30.700  21.114  -4.764  0.00  0.00    -0.350 N 
ATOM      2  HN  UNK N   1      31.432  20.509  -4.393  1.00  0.00     0.166 HD
HETATM    3  N   UNK N   1      30.770  23.018  -1.812  0.00  0.00    -0.190 NA
HETATM    4  C   UNK N   1      29.120  21.938  -6.133  0.00  0.00     0.008 A 
HETATM    5  C   UNK N   1      28.272  22.002  -7.207  0.00  0.00     0.077 A 
HETATM    6  C   UNK N   1      29.153  22.872  -4.984  0.00  0.00     0.112 A 
HETATM    7  C   UNK N   1      30.043  20.960  -5.986  0.00  0.00     0.042 A 
HETATM    8  C   UNK N   1      28.394  21.032  -8.223  0.00  0.00     0.037 A 
HETATM    9  C   UNK N   1      30.212  22.163  -4.190  0.00  0.00     0.095 A 
HETATM   10  C   UNK N   1      30.189  19.949  -6.941  0.00  0.00     0.030 A 
HETATM   11  C   UNK N   1      29.356  20.000  -8.085  0.00  0.00     0.005 A 
HETATM   12  C   UNK N   1      30.545  22.606  -2.869  0.00  0.00     0.113 C 
ENDROOT
BRANCH   5  13
HETATM   13  O   UNK N   1      27.354  22.982  -7.217  0.00  0.00    -0.348 OA
BRANCH  13  14
HETATM   14  C   UNK N   1      27.256  23.845  -8.260  0.00  0.00     0.209 C 
BRANCH  14  15
HETATM   15  C   UNK N   1      25.876  24.496  -8.234  0.00  0.00     0.159 C 
BRANCH  15  16
HETATM   16  O   UNK N   1      24.861  23.602  -8.590  0.00  0.00    -0.392 OA
HETATM   17  H   UNK N   1      24.444  22.899  -8.068  0.00  0.00     0.210 HD
ENDBRANCH  15  16
BRANCH  15  18
HETATM   18  C   UNK N   1      25.653  24.944  -6.820  0.00  0.00     0.148 C 
BRANCH  18  19
HETATM   19  N   UNK N   1      26.800  25.747  -6.420  0.00  0.00    -0.411 N 
HETATM   20  H   UNK N   1      27.762  25.550  -6.694  0.00  0.00     0.154 HD
BRANCH  19  21
HETATM   21  C   UNK N   1      26.402  26.870  -5.580  0.00  0.00     0.014 C 
HETATM   22  C   UNK N   1      24.905  27.035  -5.706  0.00  0.00     0.037 C 
HETATM   23  C   UNK N   1      26.722  26.596  -4.117  0.00  0.00     0.037 C 
HETATM   24  C   UNK N   1      27.059  28.157  -6.055  0.00  0.00     0.037 C 
ENDBRANCH  19  21
ENDBRANCH  18  19
ENDBRANCH  15  18
ENDBRANCH  14  15
ENDBRANCH  13  14
ENDBRANCH   5  13
TORSDOF 7
ENDMDL
MODEL 8
REMARK VINA RESULT:      -5.9      3.339      8.961
REMARK  7 active torsions:
REMARK  status: ('A' for Active; 'I' for Inactive)
REMARK    1  A    between atoms: O_1  and  C_13 
REMARK    2  A    between atoms: O_1  and  C_15 
REMARK    3  A    between atoms: C_9  and  O_2 
REMARK    4  A    between atoms: N_3  and  C_7 
REMARK    5  A    between atoms: N_3  and  C_8 
REMARK    6  A    between atoms: C_8  and  C_9 
REMARK    7  A    between atoms: C_9  and  C_13 
ROOT
HETATM    1  N   UNK N   1      31.251  16.772   4.653  0.00  0.00    -0.350 N 
ATOM      2  HN  UNK N   1      30.537  16.648   3.934  1.00  0.00     0.166 HD
HETATM    3  N   UNK N   1      33.723  15.725   2.386  0.00  0.00    -0.190 NA
HETATM    4  C   UNK N   1      32.208  17.194   6.642  0.00  0.00     0.008 A 
HETATM    5  C   UNK N   1      32.294  17.470   7.981  0.00  0.00     0.077 A 
HETATM    6  C   UNK N   1      33.336  16.882   5.735  0.00  0.00     0.112 A 
HETATM    7  C   UNK N   1      31.029  17.152   5.977  0.00  0.00     0.042 A 
HETATM    8  C   UNK N   1      31.111  17.763   8.688  0.00  0.00     0.037 A 
HETATM    9  C   UNK N   1      32.523  16.607   4.502  0.00  0.00     0.095 A 
HETATM   10  C   UNK N   1      29.818  17.398   6.631  0.00  0.00     0.030 A 
HETATM   11  C   UNK N   1      29.868  17.723   8.008  0.00  0.00     0.005 A 
HETATM   12  C   UNK N   1      33.152  16.115   3.314  0.00  0.00     0.113 C 
ENDROOT
BRANCH   5  13
HETATM   13  O   UNK N   1      33.511  17.424   8.548  0.00  0.00    -0.348 OA
BRANCH  13  14
HETATM   14  C   UNK N   1      33.857  16.418   9.391  0.00  0.00     0.209 C 
BRANCH  14  15
HETATM   15  C   UNK N   1      35.302  16.623   9.836  0.00  0.00     0.159 C 
BRANCH  15  16
HETATM   16  O   UNK N   1      35.640  17.976   9.932  0.00  0.00    -0.392 OA
HETATM   17  H   UNK N   1      36.140  18.535   9.316  0.00  0.00     0.210 HD
ENDBRANCH  15  16
BRANCH  15  18
HETATM   18  C   UNK N   1      35.411  16.000  11.196  0.00  0.00     0.148 C 
BRANCH  18  19
HETATM   19  N   UNK N   1      36.549  15.091  11.180  0.00  0.00    -0.411 N 
HETATM   20  H   UNK N   1      37.414  15.264  10.669  0.00  0.00     0.154 HD
BRANCH  19  21
HETATM   21  C   UNK N   1      36.297  13.902  11.986  0.00  0.00     0.014 C 
HETATM   22  C   UNK N   1      34.994  13.295  11.521  0.00  0.00     0.037 C 
HETATM   23  C   UNK N   1      37.394  12.866  11.788  0.00  0.00     0.037 C 
HETATM   24  C   UNK N   1      36.147  14.271  13.455  0.00  0.00     0.037 C 
ENDBRANCH  19  21
ENDBRANCH  18  19
ENDBRANCH  15  18
ENDBRANCH  14  15
ENDBRANCH  13  14
ENDBRANCH   5  13
TORSDOF 7
ENDMDL
MODEL 9
REMARK VINA RESULT:      -5.8      7.720      9.579
REMARK  7 active torsions:
REMARK  status: ('A' for Active; 'I' for Inactive)
REMARK    1  A    between atoms: O_1  and  C_13 
REMARK    2  A    between atoms: O_1  and  C_15 
REMARK    3  A    between atoms: C_9  and  O_2 
REMARK    4  A    between atoms: N_3  and  C_7 
REMARK    5  A    between atoms: N_3  and  C_8 
REMARK    6  A    between atoms: C_8  and  C_9 
REMARK    7  A    between atoms: C_9  and  C_13 
ROOT
HETATM    1  N   UNK N   1      27.140  16.809   7.200  0.00  0.00    -0.350 N 
ATOM      2  HN  UNK N   1      26.156  16.816   7.465  1.00  0.00     0.166 HD
HETATM    3  N   UNK N   1      26.379  14.832   4.397  0.00  0.00    -0.190 NA
HETATM    4  C   UNK N   1      29.359  17.162   7.270  0.00  0.00     0.008 A 
HETATM    5  C   UNK N   1      30.571  17.554   7.773  0.00  0.00     0.077 A 
HETATM    6  C   UNK N   1      29.129  16.432   6.002  0.00  0.00     0.112 A 
HETATM    7  C   UNK N   1      28.190  17.388   7.915  0.00  0.00     0.042 A 
HETATM    8  C   UNK N   1      30.600  18.259   8.993  0.00  0.00     0.037 A 
HETATM    9  C   UNK N   1      27.643  16.265   6.142  0.00  0.00     0.095 A 
HETATM   10  C   UNK N   1      28.157  18.050   9.146  0.00  0.00     0.030 A 
HETATM   11  C   UNK N   1      29.386  18.504   9.682  0.00  0.00     0.005 A 
HETATM   12  C   UNK N   1      26.911  15.476   5.198  0.00  0.00     0.113 C 
ENDROOT
BRANCH   5  13
HETATM   13  O   UNK N   1      31.670  17.222   7.077  0.00  0.00    -0.348 OA
BRANCH  13  14
HETATM   14  C   UNK N   1      32.895  17.206   7.660  0.00  0.00     0.209 C 
BRANCH  14  15
HETATM   15  C   UNK N   1      33.957  17.423   6.585  0.00  0.00     0.159 C 
BRANCH  15  16
HETATM   16  O   UNK N   1      34.971  16.461   6.640  0.00  0.00    -0.392 OA
HETATM   17  H   UNK N   1      34.958  15.531   6.368  0.00  0.00     0.210 HD
ENDBRANCH  15  16
BRANCH  15  18
HETATM   18  C   UNK N   1      33.248  17.303   5.269  0.00  0.00     0.148 C 
BRANCH  18  19
HETATM   19  N   UNK N   1      33.151  15.887   4.942  0.00  0.00    -0.411 N 
HETATM   20  H   UNK N   1      33.402  15.132   5.581  0.00  0.00     0.154 HD
BRANCH  19  21
HETATM   21  C   UNK N   1      32.650  15.682   3.588  0.00  0.00     0.014 C 
HETATM   22  C   UNK N   1      32.195  17.019   3.055  0.00  0.00     0.037 C 
HETATM   23  C   UNK N   1      33.749  15.161   2.673  0.00  0.00     0.037 C 
HETATM   24  C   UNK N   1      31.450  14.745   3.595  0.00  0.00     0.037 C 
ENDBRANCH  19  21
ENDBRANCH  18  19
ENDBRANCH  15  18
ENDBRANCH  14  15
ENDBRANCH  13  14
ENDBRANCH   5  13
TORSDOF 7
ENDMDL
