REMARK  7 active torsions:
REMARK  status: ('A' for Active; 'I' for Inactive)
REMARK    1  A    between atoms: O_1  and  C_13 
REMARK    2  A    between atoms: O_1  and  C_15 
REMARK    3  A    between atoms: C_9  and  O_2 
REMARK    4  A    between atoms: N_3  and  C_7 
REMARK    5  A    between atoms: N_3  and  C_8 
REMARK    6  A    between atoms: C_8  and  C_9 
REMARK    7  A    between atoms: C_9  and  C_13 
ROOT
HETATM    1  N   UNK N   1       6.646  -3.865  -0.590  0.00  0.00    -0.350 N 
ATOM      2  HN  UNK N   1       6.969  -4.714  -1.054  1.00  0.00     0.166 HD
HETATM    3  N   UNK N   1       9.976  -2.850  -0.115  0.00  0.00    -0.190 NA
HETATM    4  C   UNK N   1       5.274  -2.339   0.327  0.00  0.00     0.008 A 
HETATM    5  C   UNK N   1       4.107  -1.788   0.786  0.00  0.00     0.077 A 
HETATM    6  C   UNK N   1       6.632  -1.766   0.471  0.00  0.00     0.112 A 
HETATM    7  C   UNK N   1       5.319  -3.530  -0.315  0.00  0.00     0.042 A 
HETATM    8  C   UNK N   1       2.897  -2.469   0.543  0.00  0.00     0.037 A 
HETATM    9  C   UNK N   1       7.389  -2.904  -0.152  0.00  0.00     0.095 A 
HETATM   10  C   UNK N   1       4.157  -4.270  -0.554  0.00  0.00     0.030 A 
HETATM   11  C   UNK N   1       2.926  -3.717  -0.128  0.00  0.00     0.005 A 
HETATM   12  C   UNK N   1       8.821  -2.910  -0.147  0.00  0.00     0.113 C 
ENDROOT
BRANCH   5  13
HETATM   13  O   UNK N   1       4.190  -0.632   1.464  0.00  0.00    -0.348 OA
BRANCH  13  14
HETATM   14  C   UNK N   1       3.419   0.435   1.134  0.00  0.00     0.209 C 
BRANCH  14  15
HETATM   15  C   UNK N   1       4.282   1.461   0.405  0.00  0.00     0.159 C 
BRANCH  15  16
HETATM   16  O   UNK N   1       5.308   0.862  -0.333  0.00  0.00    -0.392 OA
HETATM   17  H   UNK N   1       5.304   0.038  -0.844  0.00  0.00     0.210 HD
ENDBRANCH  15  16
BRANCH  15  18
HETATM   18  C   UNK N   1       3.366   2.182  -0.538  0.00  0.00     0.148 C 
BRANCH  18  19
HETATM   19  N   UNK N   1       2.450   2.987   0.258  0.00  0.00    -0.411 N 
HETATM   20  H   UNK N   1       2.592   3.213   1.242  0.00  0.00     0.154 HD
BRANCH  19  21
HETATM   21  C   UNK N   1       1.304   3.430  -0.527  0.00  0.00     0.014 C 
HETATM   22  C   UNK N   1       0.502   4.387   0.323  0.00  0.00     0.037 C 
HETATM   23  C   UNK N   1       1.753   4.175  -1.776  0.00  0.00     0.037 C 
HETATM   24  C   UNK N   1       0.408   2.252  -0.882  0.00  0.00     0.037 C 
ENDBRANCH  19  21
ENDBRANCH  18  19
ENDBRANCH  15  18
ENDBRANCH  14  15
ENDBRANCH  13  14
ENDBRANCH   5  13
TORSDOF 7
