MODEL 1
REMARK VINA RESULT:      -7.3      0.000      0.000
REMARK  3 active torsions:
REMARK  status: ('A' for Active; 'I' for Inactive)
REMARK    1  A    between atoms: N_4  and  C_11 
REMARK       I    between atoms: N_4  and  C_19 
REMARK    2  A    between atoms: N_5  and  C_17 
REMARK    3  A    between atoms: C_17  and  C_19 
ROOT
HETATM    1  O   UNK N   1      36.578   8.973  16.956  0.00  0.00    -0.267 OA
HETATM    2  N   UNK N   1      36.905  10.064  15.029  0.00  0.00    -0.322 N 
HETATM    3  C   UNK N   1      36.382  12.406  14.882  0.00  0.00     0.004 A 
HETATM    4  C   UNK N   1      35.983  12.399  16.232  0.00  0.00    -0.008 A 
HETATM    5  C   UNK N   1      36.845  11.206  14.296  0.00  0.00     0.046 A 
HETATM    6  C   UNK N   1      36.049  11.193  16.970  0.00  0.00     0.043 A 
HETATM    7  C   UNK N   1      36.307  13.570  14.099  0.00  0.00     0.044 A 
HETATM    8  C   UNK N   1      36.669  13.547  12.747  0.00  0.00     0.035 A 
HETATM    9  C   UNK N   1      37.231  11.188  12.956  0.00  0.00     0.033 A 
HETATM   10  C   UNK N   1      36.517  10.026  16.343  0.00  0.00     0.257 A 
HETATM   11  C   UNK N   1      37.136  12.347  12.184  0.00  0.00     0.032 A 
HETATM   12  C   UNK N   1      35.511  13.564  16.858  0.00  0.00     0.013 A 
HETATM   13  C   UNK N   1      35.640  11.176  18.312  0.00  0.00     0.018 A 
HETATM   14  C   UNK N   1      35.108  13.535  18.195  0.00  0.00     0.001 A 
HETATM   15  C   UNK N   1      35.172  12.344  18.921  0.00  0.00     0.001 A 
HETATM   16  H   UNK N   1      37.236   9.240  14.603  0.00  0.00     0.169 HD
ENDROOT
BRANCH   8  17
HETATM   17  N   UNK N   1      36.494  14.729  11.967  0.00  0.00    -0.326 N 
HETATM   18  C   UNK N   1      35.305  15.177  11.481  0.00  0.00     0.250 C 
HETATM   19  O   UNK N   1      34.264  14.584  11.717  0.00  0.00    -0.271 OA
HETATM   20  H   UNK N   1      37.297  15.262  11.766  0.00  0.00     0.169 HD
BRANCH  18  21
HETATM   21  C   UNK N   1      35.256  16.473  10.724  0.00  0.00     0.373 C 
BRANCH  21  22
HETATM   22  N   UNK N   1      34.470  16.368   9.497  0.00  0.00     0.088 N 
HETATM   23  C   UNK N   1      35.157  15.409   8.651  0.00  0.00     0.310 C 
HETATM   24  C   UNK N   1      34.523  17.637   8.787  0.00  0.00     0.310 C 
ENDBRANCH  21  22
ENDBRANCH  18  21
ENDBRANCH   8  17
TORSDOF 3
ENDMDL
MODEL 2
REMARK VINA RESULT:      -7.0      8.273     11.760
REMARK  3 active torsions:
REMARK  status: ('A' for Active; 'I' for Inactive)
REMARK    1  A    between atoms: N_4  and  C_11 
REMARK       I    between atoms: N_4  and  C_19 
REMARK    2  A    between atoms: N_5  and  C_17 
REMARK    3  A    between atoms: C_17  and  C_19 
ROOT
HETATM    1  O   UNK N   1      33.848  16.647   9.179  0.00  0.00    -0.267 OA
HETATM    2  N   UNK N   1      31.724  17.353   9.181  0.00  0.00    -0.322 N 
HETATM    3  C   UNK N   1      30.522  17.518   7.105  0.00  0.00     0.004 A 
HETATM    4  C   UNK N   1      31.655  17.051   6.414  0.00  0.00    -0.008 A 
HETATM    5  C   UNK N   1      30.584  17.663   8.510  0.00  0.00     0.046 A 
HETATM    6  C   UNK N   1      32.832  16.741   7.138  0.00  0.00     0.043 A 
HETATM    7  C   UNK N   1      29.340  17.868   6.429  0.00  0.00     0.044 A 
HETATM    8  C   UNK N   1      28.238  18.371   7.130  0.00  0.00     0.035 A 
HETATM    9  C   UNK N   1      29.477  18.140   9.212  0.00  0.00     0.033 A 
HETATM   10  C   UNK N   1      32.845  16.901   8.534  0.00  0.00     0.257 A 
HETATM   11  C   UNK N   1      28.316  18.499   8.527  0.00  0.00     0.032 A 
HETATM   12  C   UNK N   1      31.645  16.895   5.019  0.00  0.00     0.013 A 
HETATM   13  C   UNK N   1      33.970  16.288   6.454  0.00  0.00     0.018 A 
HETATM   14  C   UNK N   1      32.783  16.441   4.349  0.00  0.00     0.001 A 
HETATM   15  C   UNK N   1      33.943  16.138   5.065  0.00  0.00     0.001 A 
HETATM   16  H   UNK N   1      31.745  17.456  10.160  0.00  0.00     0.169 HD
ENDROOT
BRANCH   8  17
HETATM   17  N   UNK N   1      27.091  18.794   6.395  0.00  0.00    -0.326 N 
HETATM   18  C   UNK N   1      26.897  20.047   5.900  0.00  0.00     0.250 C 
HETATM   19  O   UNK N   1      27.745  20.916   6.035  0.00  0.00    -0.271 OA
HETATM   20  H   UNK N   1      26.384  18.128   6.234  0.00  0.00     0.169 HD
BRANCH  18  21
HETATM   21  C   UNK N   1      25.667  20.341   5.090  0.00  0.00     0.373 C 
BRANCH  21  22
HETATM   22  N   UNK N   1      25.570  19.495   3.904  0.00  0.00     0.088 N 
HETATM   23  C   UNK N   1      25.479  20.391   2.766  0.00  0.00     0.310 C 
HETATM   24  C   UNK N   1      24.310  18.766   3.941  0.00  0.00     0.310 C 
ENDBRANCH  21  22
ENDBRANCH  18  21
ENDBRANCH   8  17
TORSDOF 3
ENDMDL
MODEL 3
REMARK VINA RESULT:      -6.9      1.791      2.111
REMARK  3 active torsions:
REMARK  status: ('A' for Active; 'I' for Inactive)
REMARK    1  A    between atoms: N_4  and  C_11 
REMARK       I    between atoms: N_4  and  C_19 
REMARK    2  A    between atoms: N_5  and  C_17 
REMARK    3  A    between atoms: C_17  and  C_19 
ROOT
HETATM    1  O   UNK N   1      35.501   8.893  18.675  0.00  0.00    -0.267 OA
HETATM    2  N   UNK N   1      35.289   9.195  16.468  0.00  0.00    -0.322 N 
HETATM    3  C   UNK N   1      35.062  11.421  15.587  0.00  0.00     0.004 A 
HETATM    4  C   UNK N   1      35.153  11.944  16.891  0.00  0.00    -0.008 A 
HETATM    5  C   UNK N   1      35.133  10.022  15.401  0.00  0.00     0.046 A 
HETATM    6  C   UNK N   1      35.308  11.059  17.985  0.00  0.00     0.043 A 
HETATM    7  C   UNK N   1      34.877  12.256  14.471  0.00  0.00     0.044 A 
HETATM    8  C   UNK N   1      34.747  11.714  13.188  0.00  0.00     0.035 A 
HETATM    9  C   UNK N   1      35.029   9.483  14.118  0.00  0.00     0.033 A 
HETATM   10  C   UNK N   1      35.374   9.675  17.749  0.00  0.00     0.257 A 
HETATM   11  C   UNK N   1      34.829  10.321  13.021  0.00  0.00     0.032 A 
HETATM   12  C   UNK N   1      35.083  13.326  17.128  0.00  0.00     0.013 A 
HETATM   13  C   UNK N   1      35.386  11.573  19.288  0.00  0.00     0.018 A 
HETATM   14  C   UNK N   1      35.164  13.826  18.430  0.00  0.00     0.001 A 
HETATM   15  C   UNK N   1      35.315  12.951  19.508  0.00  0.00     0.001 A 
HETATM   16  H   UNK N   1      35.341   8.224  16.316  0.00  0.00     0.169 HD
ENDROOT
BRANCH   8  17
HETATM   17  N   UNK N   1      34.474  12.590  12.095  0.00  0.00    -0.326 N 
HETATM   18  C   UNK N   1      35.416  13.192  11.320  0.00  0.00     0.250 C 
HETATM   19  O   UNK N   1      36.607  12.986  11.502  0.00  0.00    -0.271 OA
HETATM   20  H   UNK N   1      33.529  12.774  11.886  0.00  0.00     0.169 HD
BRANCH  18  21
HETATM   21  C   UNK N   1      34.988  14.045  10.161  0.00  0.00     0.373 C 
BRANCH  21  22
HETATM   22  N   UNK N   1      34.365  15.294  10.594  0.00  0.00     0.088 N 
HETATM   23  C   UNK N   1      33.972  15.997   9.387  0.00  0.00     0.310 C 
HETATM   24  C   UNK N   1      35.370  16.130  11.235  0.00  0.00     0.310 C 
ENDBRANCH  21  22
ENDBRANCH  18  21
ENDBRANCH   8  17
TORSDOF 3
ENDMDL
MODEL 4
REMARK VINA RESULT:      -6.6     21.147     23.204
REMARK  3 active torsions:
REMARK  status: ('A' for Active; 'I' for Inactive)
REMARK    1  A    between atoms: N_4  and  C_11 
REMARK       I    between atoms: N_4  and  C_19 
REMARK    2  A    between atoms: N_5  and  C_17 
REMARK    3  A    between atoms: C_17  and  C_19 
ROOT
HETATM    1  O   UNK N   1      32.688  19.593  -5.655  0.00  0.00    -0.267 OA
HETATM    2  N   UNK N   1      31.924  21.409  -4.592  0.00  0.00    -0.322 N 
HETATM    3  C   UNK N   1      29.844  22.403  -5.278  0.00  0.00     0.004 A 
HETATM    4  C   UNK N   1      29.699  21.412  -6.266  0.00  0.00    -0.008 A 
HETATM    5  C   UNK N   1      30.984  22.378  -4.442  0.00  0.00     0.046 A 
HETATM    6  C   UNK N   1      30.697  20.419  -6.406  0.00  0.00     0.043 A 
HETATM    7  C   UNK N   1      28.897  23.429  -5.119  0.00  0.00     0.044 A 
HETATM    8  C   UNK N   1      29.080  24.429  -4.158  0.00  0.00     0.035 A 
HETATM    9  C   UNK N   1      31.155  23.360  -3.466  0.00  0.00     0.033 A 
HETATM   10  C   UNK N   1      31.812  20.435  -5.551  0.00  0.00     0.257 A 
HETATM   11  C   UNK N   1      30.215  24.383  -3.330  0.00  0.00     0.032 A 
HETATM   12  C   UNK N   1      28.588  21.397  -7.125  0.00  0.00     0.013 A 
HETATM   13  C   UNK N   1      30.565  19.436  -7.399  0.00  0.00     0.018 A 
HETATM   14  C   UNK N   1      28.467  20.413  -8.109  0.00  0.00     0.001 A 
HETATM   15  C   UNK N   1      29.454  19.434  -8.245  0.00  0.00     0.001 A 
HETATM   16  H   UNK N   1      32.707  21.407  -3.996  0.00  0.00     0.169 HD
ENDROOT
BRANCH   8  17
HETATM   17  N   UNK N   1      28.139  25.499  -4.089  0.00  0.00    -0.326 N 
HETATM   18  C   UNK N   1      26.961  25.463  -3.409  0.00  0.00     0.250 C 
HETATM   19  O   UNK N   1      26.637  24.479  -2.762  0.00  0.00    -0.271 OA
HETATM   20  H   UNK N   1      28.359  26.328  -4.573  0.00  0.00     0.169 HD
BRANCH  18  21
HETATM   21  C   UNK N   1      26.090  26.686  -3.371  0.00  0.00     0.373 C 
BRANCH  21  22
HETATM   22  N   UNK N   1      26.185  27.471  -4.599  0.00  0.00     0.088 N 
HETATM   23  C   UNK N   1      26.092  28.864  -4.204  0.00  0.00     0.310 C 
HETATM   24  C   UNK N   1      25.014  27.210  -5.423  0.00  0.00     0.310 C 
ENDBRANCH  21  22
ENDBRANCH  18  21
ENDBRANCH   8  17
TORSDOF 3
ENDMDL
MODEL 5
REMARK VINA RESULT:      -6.4      4.348     10.156
REMARK  3 active torsions:
REMARK  status: ('A' for Active; 'I' for Inactive)
REMARK    1  A    between atoms: N_4  and  C_11 
REMARK       I    between atoms: N_4  and  C_19 
REMARK    2  A    between atoms: N_5  and  C_17 
REMARK    3  A    between atoms: C_17  and  C_19 
ROOT
HETATM    1  O   UNK N   1      28.904  18.008   4.595  0.00  0.00    -0.267 OA
HETATM    2  N   UNK N   1      30.990  17.324   5.034  0.00  0.00    -0.322 N 
HETATM    3  C   UNK N   1      31.705  17.070   7.315  0.00  0.00     0.004 A 
HETATM    4  C   UNK N   1      30.429  17.467   7.757  0.00  0.00    -0.008 A 
HETATM    5  C   UNK N   1      31.963  17.007   5.927  0.00  0.00     0.046 A 
HETATM    6  C   UNK N   1      29.436  17.800   6.804  0.00  0.00     0.043 A 
HETATM    7  C   UNK N   1      32.733  16.759   8.221  0.00  0.00     0.044 A 
HETATM    8  C   UNK N   1      34.007  16.406   7.762  0.00  0.00     0.035 A 
HETATM    9  C   UNK N   1      33.225  16.630   5.468  0.00  0.00     0.033 A 
HETATM   10  C   UNK N   1      29.741  17.721   5.435  0.00  0.00     0.257 A 
HETATM   11  C   UNK N   1      34.242  16.340   6.378  0.00  0.00     0.032 A 
HETATM   12  C   UNK N   1      30.126  17.551   9.126  0.00  0.00     0.013 A 
HETATM   13  C   UNK N   1      28.167  18.211   7.239  0.00  0.00     0.018 A 
HETATM   14  C   UNK N   1      28.857  17.959   9.546  0.00  0.00     0.001 A 
HETATM   15  C   UNK N   1      27.880  18.289   8.604  0.00  0.00     0.001 A 
HETATM   16  H   UNK N   1      31.188  17.269   4.071  0.00  0.00     0.169 HD
ENDROOT
BRANCH   8  17
HETATM   17  N   UNK N   1      35.045  16.183   8.716  0.00  0.00    -0.326 N 
HETATM   18  C   UNK N   1      35.336  14.984   9.291  0.00  0.00     0.250 C 
HETATM   19  O   UNK N   1      34.716  13.975   8.990  0.00  0.00    -0.271 OA
HETATM   20  H   UNK N   1      35.594  16.958   8.978  0.00  0.00     0.169 HD
BRANCH  18  21
HETATM   21  C   UNK N   1      36.497  14.879  10.236  0.00  0.00     0.373 C 
BRANCH  21  22
HETATM   22  N   UNK N   1      36.319  13.809  11.214  0.00  0.00     0.088 N 
HETATM   23  C   UNK N   1      36.164  14.453  12.505  0.00  0.00     0.310 C 
HETATM   24  C   UNK N   1      37.548  13.033  11.299  0.00  0.00     0.310 C 
ENDBRANCH  21  22
ENDBRANCH  18  21
ENDBRANCH   8  17
TORSDOF 3
ENDMDL
MODEL 6
REMARK VINA RESULT:      -6.2      2.692      4.112
REMARK  3 active torsions:
REMARK  status: ('A' for Active; 'I' for Inactive)
REMARK    1  A    between atoms: N_4  and  C_11 
REMARK       I    between atoms: N_4  and  C_19 
REMARK    2  A    between atoms: N_5  and  C_17 
REMARK    3  A    between atoms: C_17  and  C_19 
ROOT
HETATM    1  O   UNK N   1      37.419  14.517  15.807  0.00  0.00    -0.267 OA
HETATM    2  N   UNK N   1      36.773  15.086  13.741  0.00  0.00    -0.322 N 
HETATM    3  C   UNK N   1      35.254  13.666  12.534  0.00  0.00     0.004 A 
HETATM    4  C   UNK N   1      35.205  12.788  13.633  0.00  0.00    -0.008 A 
HETATM    5  C   UNK N   1      36.059  14.825  12.615  0.00  0.00     0.046 A 
HETATM    6  C   UNK N   1      35.965  13.081  14.790  0.00  0.00     0.043 A 
HETATM    7  C   UNK N   1      34.542  13.404  11.351  0.00  0.00     0.044 A 
HETATM    8  C   UNK N   1      34.637  14.267  10.254  0.00  0.00     0.035 A 
HETATM    9  C   UNK N   1      36.133  15.700  11.531  0.00  0.00     0.033 A 
HETATM   10  C   UNK N   1      36.751  14.246  14.823  0.00  0.00     0.257 A 
HETATM   11  C   UNK N   1      35.435  15.420  10.356  0.00  0.00     0.032 A 
HETATM   12  C   UNK N   1      34.425  11.621  13.599  0.00  0.00     0.013 A 
HETATM   13  C   UNK N   1      35.932  12.203  15.884  0.00  0.00     0.018 A 
HETATM   14  C   UNK N   1      34.398  10.755  14.695  0.00  0.00     0.001 A 
HETATM   15  C   UNK N   1      35.150  11.046  15.835  0.00  0.00     0.001 A 
HETATM   16  H   UNK N   1      37.324  15.902  13.778  0.00  0.00     0.169 HD
ENDROOT
BRANCH   8  17
HETATM   17  N   UNK N   1      33.966  13.918   9.043  0.00  0.00    -0.326 N 
HETATM   18  C   UNK N   1      32.887  14.569   8.530  0.00  0.00     0.250 C 
HETATM   19  O   UNK N   1      32.423  15.554   9.085  0.00  0.00    -0.271 OA
HETATM   20  H   UNK N   1      34.312  13.146   8.540  0.00  0.00     0.169 HD
BRANCH  18  21
HETATM   21  C   UNK N   1      32.316  14.131   7.212  0.00  0.00     0.373 C 
BRANCH  21  22
HETATM   22  N   UNK N   1      32.131  15.249   6.291  0.00  0.00     0.088 N 
HETATM   23  C   UNK N   1      30.715  15.289   5.974  0.00  0.00     0.310 C 
HETATM   24  C   UNK N   1      32.813  14.953   5.040  0.00  0.00     0.310 C 
ENDBRANCH  21  22
ENDBRANCH  18  21
ENDBRANCH   8  17
TORSDOF 3
ENDMDL
MODEL 7
REMARK VINA RESULT:      -6.1      2.804      8.695
REMARK  3 active torsions:
REMARK  status: ('A' for Active; 'I' for Inactive)
REMARK    1  A    between atoms: N_4  and  C_11 
REMARK       I    between atoms: N_4  and  C_19 
REMARK    2  A    between atoms: N_5  and  C_17 
REMARK    3  A    between atoms: C_17  and  C_19 
ROOT
HETATM    1  O   UNK N   1      34.464  18.974   7.969  0.00  0.00    -0.267 OA
HETATM    2  N   UNK N   1      35.068  17.546   9.584  0.00  0.00    -0.322 N 
HETATM    3  C   UNK N   1      34.119  15.338   9.637  0.00  0.00     0.004 A 
HETATM    4  C   UNK N   1      33.376  15.632   8.479  0.00  0.00    -0.008 A 
HETATM    5  C   UNK N   1      34.970  16.328  10.177  0.00  0.00     0.046 A 
HETATM    6  C   UNK N   1      33.492  16.911   7.885  0.00  0.00     0.043 A 
HETATM    7  C   UNK N   1      34.016  14.093  10.281  0.00  0.00     0.044 A 
HETATM    8  C   UNK N   1      34.732  13.835  11.455  0.00  0.00     0.035 A 
HETATM    9  C   UNK N   1      35.704  16.062  11.334  0.00  0.00     0.033 A 
HETATM   10  C   UNK N   1      34.351  17.863   8.459  0.00  0.00     0.257 A 
HETATM   11  C   UNK N   1      35.580  14.828  11.973  0.00  0.00     0.032 A 
HETATM   12  C   UNK N   1      32.513  14.683   7.907  0.00  0.00     0.013 A 
HETATM   13  C   UNK N   1      32.743  17.216   6.738  0.00  0.00     0.018 A 
HETATM   14  C   UNK N   1      31.774  14.997   6.763  0.00  0.00     0.001 A 
HETATM   15  C   UNK N   1      31.888  16.261   6.180  0.00  0.00     0.001 A 
HETATM   16  H   UNK N   1      35.671  18.221   9.973  0.00  0.00     0.169 HD
ENDROOT
BRANCH   8  17
HETATM   17  N   UNK N   1      34.532  12.590  12.124  0.00  0.00    -0.326 N 
HETATM   18  C   UNK N   1      35.462  11.603  12.237  0.00  0.00     0.250 C 
HETATM   19  O   UNK N   1      36.585  11.741  11.777  0.00  0.00    -0.271 OA
HETATM   20  H   UNK N   1      33.651  12.433  12.535  0.00  0.00     0.169 HD
BRANCH  18  21
HETATM   21  C   UNK N   1      35.137  10.365  13.022  0.00  0.00     0.373 C 
BRANCH  21  22
HETATM   22  N   UNK N   1      35.590  10.454  14.407  0.00  0.00     0.088 N 
HETATM   23  C   UNK N   1      36.431   9.293  14.639  0.00  0.00     0.310 C 
HETATM   24  C   UNK N   1      34.446  10.301  15.294  0.00  0.00     0.310 C 
ENDBRANCH  21  22
ENDBRANCH  18  21
ENDBRANCH   8  17
TORSDOF 3
ENDMDL
MODEL 8
REMARK VINA RESULT:      -6.1      7.269     11.059
REMARK  3 active torsions:
REMARK  status: ('A' for Active; 'I' for Inactive)
REMARK    1  A    between atoms: N_4  and  C_11 
REMARK       I    between atoms: N_4  and  C_19 
REMARK    2  A    between atoms: N_5  and  C_17 
REMARK    3  A    between atoms: C_17  and  C_19 
ROOT
HETATM    1  O   UNK N   1      27.642  18.729   4.997  0.00  0.00    -0.267 OA
HETATM    2  N   UNK N   1      29.644  17.956   4.362  0.00  0.00    -0.322 N 
HETATM    3  C   UNK N   1      31.195  17.162   6.019  0.00  0.00     0.004 A 
HETATM    4  C   UNK N   1      30.257  17.445   7.029  0.00  0.00    -0.008 A 
HETATM    5  C   UNK N   1      30.858  17.432   4.673  0.00  0.00     0.046 A 
HETATM    6  C   UNK N   1      29.002  17.997   6.677  0.00  0.00     0.043 A 
HETATM    7  C   UNK N   1      32.466  16.641   6.319  0.00  0.00     0.044 A 
HETATM    8  C   UNK N   1      33.399  16.406   5.303  0.00  0.00     0.035 A 
HETATM    9  C   UNK N   1      31.779  17.173   3.657  0.00  0.00     0.033 A 
HETATM   10  C   UNK N   1      28.713  18.248   5.325  0.00  0.00     0.257 A 
HETATM   11  C   UNK N   1      33.043  16.672   3.970  0.00  0.00     0.032 A 
HETATM   12  C   UNK N   1      30.547  17.199   8.381  0.00  0.00     0.013 A 
HETATM   13  C   UNK N   1      28.068  18.295   7.681  0.00  0.00     0.018 A 
HETATM   14  C   UNK N   1      29.607  17.498   9.371  0.00  0.00     0.001 A 
HETATM   15  C   UNK N   1      28.371  18.045   9.022  0.00  0.00     0.001 A 
HETATM   16  H   UNK N   1      29.427  18.132   3.417  0.00  0.00     0.169 HD
ENDROOT
BRANCH   8  17
HETATM   17  N   UNK N   1      34.707  15.959   5.661  0.00  0.00    -0.326 N 
HETATM   18  C   UNK N   1      35.050  14.668   5.919  0.00  0.00     0.250 C 
HETATM   19  O   UNK N   1      34.228  13.768   5.828  0.00  0.00    -0.271 OA
HETATM   20  H   UNK N   1      35.416  16.639   5.726  0.00  0.00     0.169 HD
BRANCH  18  21
HETATM   21  C   UNK N   1      36.480  14.329   6.226  0.00  0.00     0.373 C 
BRANCH  21  22
HETATM   22  N   UNK N   1      36.596  13.166   7.102  0.00  0.00     0.088 N 
HETATM   23  C   UNK N   1      37.170  13.645   8.346  0.00  0.00     0.310 C 
HETATM   24  C   UNK N   1      37.572  12.243   6.541  0.00  0.00     0.310 C 
ENDBRANCH  21  22
ENDBRANCH  18  21
ENDBRANCH   8  17
TORSDOF 3
ENDMDL
MODEL 9
REMARK VINA RESULT:      -6.0      9.689     12.576
REMARK  3 active torsions:
REMARK  status: ('A' for Active; 'I' for Inactive)
REMARK    1  A    between atoms: N_4  and  C_11 
REMARK       I    between atoms: N_4  and  C_19 
REMARK    2  A    between atoms: N_5  and  C_17 
REMARK    3  A    between atoms: C_17  and  C_19 
ROOT
HETATM    1  O   UNK N   1      32.972  17.493   3.384  0.00  0.00    -0.267 OA
HETATM    2  N   UNK N   1      30.768  17.111   3.465  0.00  0.00    -0.322 N 
HETATM    3  C   UNK N   1      29.680  16.859   5.594  0.00  0.00     0.004 A 
HETATM    4  C   UNK N   1      30.910  17.065   6.245  0.00  0.00    -0.008 A 
HETATM    5  C   UNK N   1      29.636  16.887   4.182  0.00  0.00     0.046 A 
HETATM    6  C   UNK N   1      32.076  17.289   5.473  0.00  0.00     0.043 A 
HETATM    7  C   UNK N   1      28.501  16.602   6.315  0.00  0.00     0.044 A 
HETATM    8  C   UNK N   1      27.295  16.359   5.648  0.00  0.00     0.035 A 
HETATM    9  C   UNK N   1      28.428  16.670   3.517  0.00  0.00     0.033 A 
HETATM   10  C   UNK N   1      31.981  17.308   4.071  0.00  0.00     0.257 A 
HETATM   11  C   UNK N   1      27.268  16.399   4.243  0.00  0.00     0.032 A 
HETATM   12  C   UNK N   1      31.007  17.041   7.646  0.00  0.00     0.013 A 
HETATM   13  C   UNK N   1      33.308  17.481   6.115  0.00  0.00     0.018 A 
HETATM   14  C   UNK N   1      32.240  17.235   8.274  0.00  0.00     0.001 A 
HETATM   15  C   UNK N   1      33.388  17.455   7.510  0.00  0.00     0.001 A 
HETATM   16  H   UNK N   1      30.714  17.131   2.482  0.00  0.00     0.169 HD
ENDROOT
BRANCH   8  17
HETATM   17  N   UNK N   1      26.141  16.016   6.415  0.00  0.00    -0.326 N 
HETATM   18  C   UNK N   1      25.675  14.752   6.606  0.00  0.00     0.250 C 
HETATM   19  O   UNK N   1      26.259  13.788   6.135  0.00  0.00    -0.271 OA
HETATM   20  H   UNK N   1      25.644  16.753   6.839  0.00  0.00     0.169 HD
BRANCH  18  21
HETATM   21  C   UNK N   1      24.481  14.529   7.489  0.00  0.00     0.373 C 
BRANCH  21  22
HETATM   22  N   UNK N   1      24.515  13.225   8.145  0.00  0.00     0.088 N 
HETATM   23  C   UNK N   1      23.133  12.813   8.311  0.00  0.00     0.310 C 
HETATM   24  C   UNK N   1      25.049  13.381   9.490  0.00  0.00     0.310 C 
ENDBRANCH  21  22
ENDBRANCH  18  21
ENDBRANCH   8  17
TORSDOF 3
ENDMDL
