MODEL 1
REMARK VINA RESULT:      -7.1      0.000      0.000
REMARK  5 active torsions:
REMARK  status: ('A' for Active; 'I' for Inactive)
REMARK    1  A    between atoms: C_11  and  O_19 
REMARK    2  A    between atoms: C_12  and  C_11 
REMARK    3  A    between atoms: C_13  and  C_12 
REMARK    4  A    between atoms: O_20  and  C_13 
REMARK    5  A    between atoms: O_19  and  N_17 
ROOT
HETATM    1  C   UNK N   1      30.537  17.301   8.318  0.00  0.00     0.004 A 
HETATM    2  C   UNK N   1      31.997  17.300   8.186  0.00  0.00     0.076 A 
HETATM    3  C   UNK N   1      32.264  17.320   6.720  0.00  0.00     0.004 A 
HETATM    4  C   UNK N   1      31.035  17.325   6.068  0.00  0.00    -0.012 A 
HETATM    5  C   UNK N   1      29.971  17.318   7.060  0.00  0.00    -0.012 A 
HETATM    6  C   UNK N   1      30.933  17.343   4.679  0.00  0.00     0.013 A 
HETATM    7  C   UNK N   1      28.589  17.342   6.881  0.00  0.00     0.013 A 
HETATM    8  C   UNK N   1      29.748  17.307   9.468  0.00  0.00     0.014 A 
HETATM    9  C   UNK N   1      28.350  17.329   9.313  0.00  0.00     0.001 A 
HETATM   10  C   UNK N   1      27.773  17.347   8.025  0.00  0.00     0.001 A 
HETATM   11  C   UNK N   1      33.444  17.345   5.973  0.00  0.00     0.014 A 
HETATM   12  C   UNK N   1      33.366  17.358   4.571  0.00  0.00     0.001 A 
HETATM   13  C   UNK N   1      32.116  17.356   3.927  0.00  0.00     0.001 A 
HETATM   14  N   UNK N   1      32.790  17.327   9.218  0.00  0.00    -0.265 N 
ATOM     15  HN  UNK N   1      32.339  17.323  10.133  1.00  0.00     0.194 HD
ENDROOT
BRANCH  14  16
HETATM   16  O   UNK N   1      34.115  17.361   9.221  0.00  0.00    -0.279 OA
BRANCH  16  17
HETATM   17  C   UNK N   1      34.934  16.261   9.259  0.00  0.00     0.211 C 
BRANCH  17  18
HETATM   18  C   UNK N   1      35.306  15.950  10.701  0.00  0.00     0.138 C 
BRANCH  18  19
HETATM   19  C   UNK N   1      34.361  14.979  11.349  0.00  0.00     0.141 C 
HETATM   20  O   UNK N   1      34.760  14.163  12.166  0.00  0.00    -0.650 OA
BRANCH  19  21
HETATM   21  O   UNK N   1      33.054  15.018  11.032  0.00  0.00    -0.776 OA
HETATM   22  H   UNK N   1      32.577  14.224  10.892  0.00  0.00     0.167 HD
ENDBRANCH  19  21
ENDBRANCH  18  19
ENDBRANCH  17  18
ENDBRANCH  16  17
ENDBRANCH  14  16
TORSDOF 5
ENDMDL
MODEL 2
REMARK VINA RESULT:      -6.9      6.009     10.636
REMARK  5 active torsions:
REMARK  status: ('A' for Active; 'I' for Inactive)
REMARK    1  A    between atoms: C_11  and  O_19 
REMARK    2  A    between atoms: C_12  and  C_11 
REMARK    3  A    between atoms: C_13  and  C_12 
REMARK    4  A    between atoms: O_20  and  C_13 
REMARK    5  A    between atoms: O_19  and  N_17 
ROOT
HETATM    1  C   UNK N   1      35.261  12.459  16.849  0.00  0.00     0.004 A 
HETATM    2  C   UNK N   1      35.223  12.355  15.387  0.00  0.00     0.076 A 
HETATM    3  C   UNK N   1      35.394  10.906  15.086  0.00  0.00     0.004 A 
HETATM    4  C   UNK N   1      35.527  10.236  16.298  0.00  0.00    -0.012 A 
HETATM    5  C   UNK N   1      35.439  11.199  17.385  0.00  0.00    -0.012 A 
HETATM    6  C   UNK N   1      35.703   8.856  16.367  0.00  0.00     0.013 A 
HETATM    7  C   UNK N   1      35.494  10.993  18.762  0.00  0.00     0.013 A 
HETATM    8  C   UNK N   1      35.128  13.581  17.665  0.00  0.00     0.014 A 
HETATM    9  C   UNK N   1      35.183  13.399  19.058  0.00  0.00     0.001 A 
HETATM   10  C   UNK N   1      35.364  12.110  19.604  0.00  0.00     0.001 A 
HETATM   11  C   UNK N   1      35.426  10.185  13.890  0.00  0.00     0.014 A 
HETATM   12  C   UNK N   1      35.608   8.793  13.934  0.00  0.00     0.001 A 
HETATM   13  C   UNK N   1      35.748   8.132  15.168  0.00  0.00     0.001 A 
HETATM   14  N   UNK N   1      35.023  13.388  14.620  0.00  0.00    -0.265 N 
ATOM     15  HN  UNK N   1      34.919  14.287  15.093  1.00  0.00     0.194 HD
ENDROOT
BRANCH  14  16
HETATM   16  O   UNK N   1      34.937  13.411  13.298  0.00  0.00    -0.279 OA
BRANCH  16  17
HETATM   17  C   UNK N   1      35.757  14.129  12.464  0.00  0.00     0.211 C 
BRANCH  17  18
HETATM   18  C   UNK N   1      34.918  15.046  11.587  0.00  0.00     0.138 C 
BRANCH  18  19
HETATM   19  C   UNK N   1      35.721  16.152  10.964  0.00  0.00     0.141 C 
HETATM   20  O   UNK N   1      35.178  17.151  10.518  0.00  0.00    -0.650 OA
BRANCH  19  21
HETATM   21  O   UNK N   1      37.061  16.043  10.908  0.00  0.00    -0.776 OA
HETATM   22  H   UNK N   1      37.460  15.305  10.492  0.00  0.00     0.167 HD
ENDBRANCH  19  21
ENDBRANCH  18  19
ENDBRANCH  17  18
ENDBRANCH  16  17
ENDBRANCH  14  16
TORSDOF 5
ENDMDL
MODEL 3
REMARK VINA RESULT:      -6.7      3.253      5.306
REMARK  5 active torsions:
REMARK  status: ('A' for Active; 'I' for Inactive)
REMARK    1  A    between atoms: C_11  and  O_19 
REMARK    2  A    between atoms: C_12  and  C_11 
REMARK    3  A    between atoms: C_13  and  C_12 
REMARK    4  A    between atoms: O_20  and  C_13 
REMARK    5  A    between atoms: O_19  and  N_17 
ROOT
HETATM    1  C   UNK N   1      28.204  19.015   5.105  0.00  0.00     0.004 A 
HETATM    2  C   UNK N   1      29.254  18.000   5.218  0.00  0.00     0.076 A 
HETATM    3  C   UNK N   1      29.465  17.805   6.681  0.00  0.00     0.004 A 
HETATM    4  C   UNK N   1      28.595  18.661   7.349  0.00  0.00    -0.012 A 
HETATM    5  C   UNK N   1      27.814  19.403   6.371  0.00  0.00    -0.012 A 
HETATM    6  C   UNK N   1      28.540  18.726   8.739  0.00  0.00     0.013 A 
HETATM    7  C   UNK N   1      26.811  20.350   6.568  0.00  0.00     0.013 A 
HETATM    8  C   UNK N   1      27.608  19.556   3.966  0.00  0.00     0.014 A 
HETATM    9  C   UNK N   1      26.595  20.515   4.139  0.00  0.00     0.001 A 
HETATM   10  C   UNK N   1      26.197  20.910   5.435  0.00  0.00     0.001 A 
HETATM   11  C   UNK N   1      30.310  16.969   7.413  0.00  0.00     0.014 A 
HETATM   12  C   UNK N   1      30.277  17.020   8.815  0.00  0.00     0.001 A 
HETATM   13  C   UNK N   1      29.396  17.895   9.476  0.00  0.00     0.001 A 
HETATM   14  N   UNK N   1      29.781  17.422   4.176  0.00  0.00    -0.265 N 
ATOM     15  HN  UNK N   1      29.439  17.736   3.267  1.00  0.00     0.194 HD
ENDROOT
BRANCH  14  16
HETATM   16  O   UNK N   1      30.707  16.474   4.157  0.00  0.00    -0.279 OA
BRANCH  16  17
HETATM   17  C   UNK N   1      31.926  16.573   3.536  0.00  0.00     0.211 C 
BRANCH  17  18
HETATM   18  C   UNK N   1      32.765  17.641   4.222  0.00  0.00     0.138 C 
BRANCH  18  19
HETATM   19  C   UNK N   1      33.459  17.134   5.453  0.00  0.00     0.141 C 
HETATM   20  O   UNK N   1      34.203  17.857   6.099  0.00  0.00    -0.650 OA
BRANCH  19  21
HETATM   21  O   UNK N   1      33.249  15.868   5.856  0.00  0.00    -0.776 OA
HETATM   22  H   UNK N   1      33.736  15.512   6.573  0.00  0.00     0.167 HD
ENDBRANCH  19  21
ENDBRANCH  18  19
ENDBRANCH  17  18
ENDBRANCH  16  17
ENDBRANCH  14  16
TORSDOF 5
ENDMDL
MODEL 4
REMARK VINA RESULT:      -6.6      6.252     11.136
REMARK  5 active torsions:
REMARK  status: ('A' for Active; 'I' for Inactive)
REMARK    1  A    between atoms: C_11  and  O_19 
REMARK    2  A    between atoms: C_12  and  C_11 
REMARK    3  A    between atoms: C_13  and  C_12 
REMARK    4  A    between atoms: O_20  and  C_13 
REMARK    5  A    between atoms: O_19  and  N_17 
ROOT
HETATM    1  C   UNK N   1      35.464  10.293  15.294  0.00  0.00     0.004 A 
HETATM    2  C   UNK N   1      35.274  11.744  15.220  0.00  0.00     0.076 A 
HETATM    3  C   UNK N   1      35.264  12.217  16.633  0.00  0.00     0.004 A 
HETATM    4  C   UNK N   1      35.429  11.104  17.451  0.00  0.00    -0.012 A 
HETATM    5  C   UNK N   1      35.557   9.918  16.619  0.00  0.00    -0.012 A 
HETATM    6  C   UNK N   1      35.465  11.203  18.840  0.00  0.00     0.013 A 
HETATM    7  C   UNK N   1      35.760   8.590  16.989  0.00  0.00     0.013 A 
HETATM    8  C   UNK N   1      35.568   9.356  14.266  0.00  0.00     0.014 A 
HETATM    9  C   UNK N   1      35.770   8.008  14.615  0.00  0.00     0.001 A 
HETATM   10  C   UNK N   1      35.867   7.627  15.971  0.00  0.00     0.001 A 
HETATM   11  C   UNK N   1      35.138  13.484  17.206  0.00  0.00     0.014 A 
HETATM   12  C   UNK N   1      35.165  13.609  18.605  0.00  0.00     0.001 A 
HETATM   13  C   UNK N   1      35.326  12.473  19.418  0.00  0.00     0.001 A 
HETATM   14  N   UNK N   1      35.196  12.380  14.086  0.00  0.00    -0.265 N 
ATOM     15  HN  UNK N   1      35.247  11.807  13.244  1.00  0.00     0.194 HD
ENDROOT
BRANCH  14  16
HETATM   16  O   UNK N   1      35.058  13.685  13.897  0.00  0.00    -0.279 OA
BRANCH  16  17
HETATM   17  C   UNK N   1      35.928  14.478  13.192  0.00  0.00     0.211 C 
BRANCH  17  18
HETATM   18  C   UNK N   1      35.449  14.610  11.755  0.00  0.00     0.138 C 
BRANCH  18  19
HETATM   19  C   UNK N   1      35.841  15.918  11.128  0.00  0.00     0.141 C 
HETATM   20  O   UNK N   1      36.933  16.061  10.600  0.00  0.00    -0.650 OA
BRANCH  19  21
HETATM   21  O   UNK N   1      34.969  16.943  11.140  0.00  0.00    -0.776 OA
HETATM   22  H   UNK N   1      35.133  17.710  10.629  0.00  0.00     0.167 HD
ENDBRANCH  19  21
ENDBRANCH  18  19
ENDBRANCH  17  18
ENDBRANCH  16  17
ENDBRANCH  14  16
TORSDOF 5
ENDMDL
MODEL 5
REMARK VINA RESULT:      -6.3     17.533     19.307
REMARK  5 active torsions:
REMARK  status: ('A' for Active; 'I' for Inactive)
REMARK    1  A    between atoms: C_11  and  O_19 
REMARK    2  A    between atoms: C_12  and  C_11 
REMARK    3  A    between atoms: C_13  and  C_12 
REMARK    4  A    between atoms: O_20  and  C_13 
REMARK    5  A    between atoms: O_19  and  N_17 
ROOT
HETATM    1  C   UNK N   1      27.846  27.537  -7.772  0.00  0.00     0.004 A 
HETATM    2  C   UNK N   1      26.853  26.706  -7.084  0.00  0.00     0.076 A 
HETATM    3  C   UNK N   1      26.521  27.439  -5.830  0.00  0.00     0.004 A 
HETATM    4  C   UNK N   1      27.281  28.604  -5.808  0.00  0.00    -0.012 A 
HETATM    5  C   UNK N   1      28.095  28.662  -7.013  0.00  0.00    -0.012 A 
HETATM    6  C   UNK N   1      27.206  29.520  -4.762  0.00  0.00     0.013 A 
HETATM    7  C   UNK N   1      28.989  29.645  -7.435  0.00  0.00     0.013 A 
HETATM    8  C   UNK N   1      28.480  27.335  -8.998  0.00  0.00     0.014 A 
HETATM    9  C   UNK N   1      29.389  28.311  -9.443  0.00  0.00     0.001 A 
HETATM   10  C   UNK N   1      29.641  29.461  -8.666  0.00  0.00     0.001 A 
HETATM   11  C   UNK N   1      25.639  27.169  -4.781  0.00  0.00     0.014 A 
HETATM   12  C   UNK N   1      25.550  28.074  -3.712  0.00  0.00     0.001 A 
HETATM   13  C   UNK N   1      26.331  29.245  -3.701  0.00  0.00     0.001 A 
HETATM   14  N   UNK N   1      26.397  25.598  -7.595  0.00  0.00    -0.265 N 
ATOM     15  HN  UNK N   1      26.790  25.323  -8.496  1.00  0.00     0.194 HD
ENDROOT
BRANCH  14  16
HETATM   16  O   UNK N   1      25.482  24.787  -7.084  0.00  0.00    -0.279 OA
BRANCH  16  17
HETATM   17  C   UNK N   1      25.747  23.677  -6.322  0.00  0.00     0.211 C 
BRANCH  17  18
HETATM   18  C   UNK N   1      25.805  22.447  -7.214  0.00  0.00     0.138 C 
BRANCH  18  19
HETATM   19  C   UNK N   1      24.493  21.719  -7.288  0.00  0.00     0.141 C 
HETATM   20  O   UNK N   1      24.228  20.818  -6.506  0.00  0.00    -0.650 OA
BRANCH  19  21
HETATM   21  O   UNK N   1      23.593  22.073  -8.223  0.00  0.00    -0.776 OA
HETATM   22  H   UNK N   1      23.121  21.418  -8.699  0.00  0.00     0.167 HD
ENDBRANCH  19  21
ENDBRANCH  18  19
ENDBRANCH  17  18
ENDBRANCH  16  17
ENDBRANCH  14  16
TORSDOF 5
ENDMDL
MODEL 6
REMARK VINA RESULT:      -6.2      4.240      7.103
REMARK  5 active torsions:
REMARK  status: ('A' for Active; 'I' for Inactive)
REMARK    1  A    between atoms: C_11  and  O_19 
REMARK    2  A    between atoms: C_12  and  C_11 
REMARK    3  A    between atoms: C_13  and  C_12 
REMARK    4  A    between atoms: O_20  and  C_13 
REMARK    5  A    between atoms: O_19  and  N_17 
ROOT
HETATM    1  C   UNK N   1      31.097  16.955   5.563  0.00  0.00     0.004 A 
HETATM    2  C   UNK N   1      29.635  17.007   5.651  0.00  0.00     0.076 A 
HETATM    3  C   UNK N   1      29.336  17.480   7.033  0.00  0.00     0.004 A 
HETATM    4  C   UNK N   1      30.550  17.674   7.684  0.00  0.00    -0.012 A 
HETATM    5  C   UNK N   1      31.636  17.354   6.770  0.00  0.00    -0.012 A 
HETATM    6  C   UNK N   1      30.622  18.118   9.002  0.00  0.00     0.013 A 
HETATM    7  C   UNK N   1      33.013  17.420   6.968  0.00  0.00     0.013 A 
HETATM    8  C   UNK N   1      31.912  16.600   4.488  0.00  0.00     0.014 A 
HETATM    9  C   UNK N   1      33.305  16.656   4.665  0.00  0.00     0.001 A 
HETATM   10  C   UNK N   1      33.854  17.065   5.900  0.00  0.00     0.001 A 
HETATM   11  C   UNK N   1      28.141  17.743   7.705  0.00  0.00     0.014 A 
HETATM   12  C   UNK N   1      28.187  18.186   9.037  0.00  0.00     0.001 A 
HETATM   13  C   UNK N   1      29.423  18.372   9.683  0.00  0.00     0.001 A 
HETATM   14  N   UNK N   1      28.865  16.723   4.641  0.00  0.00    -0.265 N 
ATOM     15  HN  UNK N   1      29.337  16.433   3.783  1.00  0.00     0.194 HD
ENDROOT
BRANCH  14  16
HETATM   16  O   UNK N   1      27.541  16.765   4.593  0.00  0.00    -0.279 OA
BRANCH  16  17
HETATM   17  C   UNK N   1      26.805  17.631   3.824  0.00  0.00     0.211 C 
BRANCH  17  18
HETATM   18  C   UNK N   1      26.294  18.774   4.688  0.00  0.00     0.138 C 
BRANCH  18  19
HETATM   19  C   UNK N   1      27.202  19.970   4.668  0.00  0.00     0.141 C 
HETATM   20  O   UNK N   1      26.825  21.055   5.085  0.00  0.00    -0.650 OA
BRANCH  19  21
HETATM   21  O   UNK N   1      28.454  19.840   4.192  0.00  0.00    -0.776 OA
HETATM   22  H   UNK N   1      28.817  20.494   3.627  0.00  0.00     0.167 HD
ENDBRANCH  19  21
ENDBRANCH  18  19
ENDBRANCH  17  18
ENDBRANCH  16  17
ENDBRANCH  14  16
TORSDOF 5
ENDMDL
MODEL 7
REMARK VINA RESULT:      -6.2     16.261     18.981
REMARK  5 active torsions:
REMARK  status: ('A' for Active; 'I' for Inactive)
REMARK    1  A    between atoms: C_11  and  O_19 
REMARK    2  A    between atoms: C_12  and  C_11 
REMARK    3  A    between atoms: C_13  and  C_12 
REMARK    4  A    between atoms: O_20  and  C_13 
REMARK    5  A    between atoms: O_19  and  N_17 
ROOT
HETATM    1  C   UNK N   1      28.183  28.064  -7.742  0.00  0.00     0.004 A 
HETATM    2  C   UNK N   1      27.170  27.283  -7.026  0.00  0.00     0.076 A 
HETATM    3  C   UNK N   1      26.842  28.079  -5.808  0.00  0.00     0.004 A 
HETATM    4  C   UNK N   1      27.625  29.228  -5.833  0.00  0.00    -0.012 A 
HETATM    5  C   UNK N   1      28.448  29.218  -7.032  0.00  0.00    -0.012 A 
HETATM    6  C   UNK N   1      27.559  30.192  -4.829  0.00  0.00     0.013 A 
HETATM    7  C   UNK N   1      29.363  30.163  -7.490  0.00  0.00     0.013 A 
HETATM    8  C   UNK N   1      28.822  27.795  -8.952  0.00  0.00     0.014 A 
HETATM    9  C   UNK N   1      29.753  28.733  -9.434  0.00  0.00     0.001 A 
HETATM   10  C   UNK N   1      30.021  29.913  -8.707  0.00  0.00     0.001 A 
HETATM   11  C   UNK N   1      25.948  27.872  -4.756  0.00  0.00     0.014 A 
HETATM   12  C   UNK N   1      25.868  28.826  -3.729  0.00  0.00     0.001 A 
HETATM   13  C   UNK N   1      26.671  29.981  -3.765  0.00  0.00     0.001 A 
HETATM   14  N   UNK N   1      26.697  26.163  -7.490  0.00  0.00    -0.265 N 
ATOM     15  HN  UNK N   1      27.091  25.839  -8.374  1.00  0.00     0.194 HD
ENDROOT
BRANCH  14  16
HETATM   16  O   UNK N   1      25.763  25.392  -6.950  0.00  0.00    -0.279 OA
BRANCH  16  17
HETATM   17  C   UNK N   1      25.965  24.123  -6.470  0.00  0.00     0.211 C 
BRANCH  17  18
HETATM   18  C   UNK N   1      25.582  24.066  -4.999  0.00  0.00     0.138 C 
BRANCH  18  19
HETATM   19  C   UNK N   1      26.737  24.357  -4.085  0.00  0.00     0.141 C 
HETATM   20  O   UNK N   1      26.674  24.107  -2.890  0.00  0.00    -0.650 OA
BRANCH  19  21
HETATM   21  O   UNK N   1      27.863  24.893  -4.592  0.00  0.00    -0.776 OA
HETATM   22  H   UNK N   1      28.455  25.363  -4.039  0.00  0.00     0.167 HD
ENDBRANCH  19  21
ENDBRANCH  18  19
ENDBRANCH  17  18
ENDBRANCH  16  17
ENDBRANCH  14  16
TORSDOF 5
ENDMDL
MODEL 8
REMARK VINA RESULT:      -6.2     13.351     15.902
REMARK  5 active torsions:
REMARK  status: ('A' for Active; 'I' for Inactive)
REMARK    1  A    between atoms: C_11  and  O_19 
REMARK    2  A    between atoms: C_12  and  C_11 
REMARK    3  A    between atoms: C_13  and  C_12 
REMARK    4  A    between atoms: O_20  and  C_13 
REMARK    5  A    between atoms: O_19  and  N_17 
ROOT
HETATM    1  C   UNK N   1      27.041  23.727  -6.221  0.00  0.00     0.004 A 
HETATM    2  C   UNK N   1      27.456  24.187  -4.892  0.00  0.00     0.076 A 
HETATM    3  C   UNK N   1      26.715  25.460  -4.663  0.00  0.00     0.004 A 
HETATM    4  C   UNK N   1      25.940  25.706  -5.791  0.00  0.00    -0.012 A 
HETATM    5  C   UNK N   1      26.141  24.630  -6.750  0.00  0.00    -0.012 A 
HETATM    6  C   UNK N   1      25.120  26.828  -5.898  0.00  0.00     0.013 A 
HETATM    7  C   UNK N   1      25.563  24.437  -8.002  0.00  0.00     0.013 A 
HETATM    8  C   UNK N   1      27.412  22.580  -6.921  0.00  0.00     0.014 A 
HETATM    9  C   UNK N   1      26.844  22.364  -8.189  0.00  0.00     0.001 A 
HETATM   10  C   UNK N   1      25.923  23.287  -8.727  0.00  0.00     0.001 A 
HETATM   11  C   UNK N   1      26.674  26.351  -3.588  0.00  0.00     0.014 A 
HETATM   12  C   UNK N   1      25.860  27.491  -3.674  0.00  0.00     0.001 A 
HETATM   13  C   UNK N   1      25.087  27.730  -4.825  0.00  0.00     0.001 A 
HETATM   14  N   UNK N   1      28.272  23.505  -4.142  0.00  0.00    -0.265 N 
ATOM     15  HN  UNK N   1      28.632  22.638  -4.541  1.00  0.00     0.194 HD
ENDROOT
BRANCH  14  16
HETATM   16  O   UNK N   1      28.689  23.802  -2.919  0.00  0.00    -0.279 OA
BRANCH  16  17
HETATM   17  C   UNK N   1      29.593  23.070  -2.192  0.00  0.00     0.211 C 
BRANCH  17  18
HETATM   18  C   UNK N   1      30.919  23.011  -2.935  0.00  0.00     0.138 C 
BRANCH  18  19
HETATM   19  C   UNK N   1      31.584  21.668  -2.833  0.00  0.00     0.141 C 
HETATM   20  O   UNK N   1      32.576  21.508  -2.138  0.00  0.00    -0.650 OA
BRANCH  19  21
HETATM   21  O   UNK N   1      31.070  20.623  -3.508  0.00  0.00    -0.776 OA
HETATM   22  H   UNK N   1      31.165  20.568  -4.438  0.00  0.00     0.167 HD
ENDBRANCH  19  21
ENDBRANCH  18  19
ENDBRANCH  17  18
ENDBRANCH  16  17
ENDBRANCH  14  16
TORSDOF 5
ENDMDL
MODEL 9
REMARK VINA RESULT:      -6.1     13.129     15.461
REMARK  5 active torsions:
REMARK  status: ('A' for Active; 'I' for Inactive)
REMARK    1  A    between atoms: C_11  and  O_19 
REMARK    2  A    between atoms: C_12  and  C_11 
REMARK    3  A    between atoms: C_13  and  C_12 
REMARK    4  A    between atoms: O_20  and  C_13 
REMARK    5  A    between atoms: O_19  and  N_17 
ROOT
HETATM    1  C   UNK N   1      26.677  25.649  -4.397  0.00  0.00     0.004 A 
HETATM    2  C   UNK N   1      27.530  24.458  -4.342  0.00  0.00     0.076 A 
HETATM    3  C   UNK N   1      27.413  23.822  -5.684  0.00  0.00     0.004 A 
HETATM    4  C   UNK N   1      26.544  24.598  -6.444  0.00  0.00    -0.012 A 
HETATM    5  C   UNK N   1      26.096  25.729  -5.646  0.00  0.00    -0.012 A 
HETATM    6  C   UNK N   1      26.217  24.275  -7.759  0.00  0.00     0.013 A 
HETATM    7  C   UNK N   1      25.245  26.778  -5.990  0.00  0.00     0.013 A 
HETATM    8  C   UNK N   1      26.436  26.617  -3.422  0.00  0.00     0.014 A 
HETATM    9  C   UNK N   1      25.578  27.683  -3.744  0.00  0.00     0.001 A 
HETATM   10  C   UNK N   1      24.986  27.764  -5.023  0.00  0.00     0.001 A 
HETATM   11  C   UNK N   1      27.993  22.683  -6.246  0.00  0.00     0.014 A 
HETATM   12  C   UNK N   1      27.675  22.333  -7.568  0.00  0.00     0.001 A 
HETATM   13  C   UNK N   1      26.790  23.125  -8.321  0.00  0.00     0.001 A 
HETATM   14  N   UNK N   1      28.237  24.156  -3.291  0.00  0.00    -0.265 N 
ATOM     15  HN  UNK N   1      28.145  24.782  -2.491  1.00  0.00     0.194 HD
ENDROOT
BRANCH  14  16
HETATM   16  O   UNK N   1      29.064  23.130  -3.139  0.00  0.00    -0.279 OA
BRANCH  16  17
HETATM   17  C   UNK N   1      30.239  23.160  -2.432  0.00  0.00     0.211 C 
BRANCH  17  18
HETATM   18  C   UNK N   1      31.395  22.784  -3.347  0.00  0.00     0.138 C 
BRANCH  18  19
HETATM   19  C   UNK N   1      32.012  21.462  -2.991  0.00  0.00     0.141 C 
HETATM   20  O   UNK N   1      32.809  21.366  -2.069  0.00  0.00    -0.650 OA
BRANCH  19  21
HETATM   21  O   UNK N   1      31.672  20.364  -3.692  0.00  0.00    -0.776 OA
HETATM   22  H   UNK N   1      31.836  20.321  -4.613  0.00  0.00     0.167 HD
ENDBRANCH  19  21
ENDBRANCH  18  19
ENDBRANCH  17  18
ENDBRANCH  16  17
ENDBRANCH  14  16
TORSDOF 5
ENDMDL
