MODEL 1
REMARK VINA RESULT:      -8.4      0.000      0.000
REMARK  3 active torsions:
REMARK  status: ('A' for Active; 'I' for Inactive)
REMARK    1  A    between atoms: O_1  and  C_3 
REMARK    2  A    between atoms: C_3  and  C_4 
REMARK    3  A    between atoms: O_16  and  C_17 
ROOT
HETATM    1  C   UNK N   1      26.672  22.838  -7.800  0.00  0.00     0.120 A 
HETATM    2  N   UNK N   1      27.289  21.770  -8.363  0.00  0.00    -0.330 N 
HETATM    3  C   UNK N   1      27.396  23.262  -6.665  0.00  0.00     0.026 A 
HETATM    4  C   UNK N   1      27.298  24.322  -5.703  0.00  0.00     0.019 A 
HETATM    5  C   UNK N   1      28.235  24.385  -4.660  0.00  0.00     0.072 A 
HETATM    6  N   UNK N   1      28.016  25.433  -3.842  0.00  0.00    -0.353 N 
HETATM    7  C   UNK N   1      26.944  26.061  -4.362  0.00  0.00     0.043 A 
HETATM    8  C   UNK N   1      26.477  25.424  -5.498  0.00  0.00     0.004 A 
HETATM    9  C   UNK N   1      25.393  25.942  -6.198  0.00  0.00     0.014 A 
HETATM   10  C   UNK N   1      24.772  27.108  -5.722  0.00  0.00     0.001 A 
HETATM   11  C   UNK N   1      25.247  27.744  -4.558  0.00  0.00     0.002 A 
HETATM   12  C   UNK N   1      26.352  27.220  -3.867  0.00  0.00     0.030 A 
HETATM   13  C   UNK N   1      28.357  21.479  -7.600  0.00  0.00     0.153 A 
HETATM   14  C   UNK N   1      28.452  22.354  -6.548  0.00  0.00     0.042 A 
HETATM   15  C   UNK N   1      29.370  22.433  -5.489  0.00  0.00     0.021 A 
HETATM   16  C   UNK N   1      29.253  23.443  -4.554  0.00  0.00     0.072 A 
HETATM   17  N   UNK N   1      30.216  23.359  -3.606  0.00  0.00    -0.353 N 
HETATM   18  C   UNK N   1      30.940  22.270  -3.951  0.00  0.00     0.043 A 
HETATM   19  C   UNK N   1      30.452  21.681  -5.100  0.00  0.00     0.004 A 
HETATM   20  C   UNK N   1      31.031  20.534  -5.636  0.00  0.00     0.014 A 
HETATM   21  C   UNK N   1      32.141  19.985  -4.968  0.00  0.00     0.001 A 
HETATM   22  C   UNK N   1      32.641  20.589  -3.791  0.00  0.00     0.002 A 
HETATM   23  C   UNK N   1      32.037  21.749  -3.271  0.00  0.00     0.030 A 
HETATM   24  H   UNK N   1      27.008  21.296  -9.179  0.00  0.00     0.168 HD
HETATM   25  H   UNK N   1      28.527  25.685  -3.039  0.00  0.00     0.166 HD
HETATM   26  H   UNK N   1      30.358  23.957  -2.837  0.00  0.00     0.166 HD
ENDROOT
BRANCH   1  27
HETATM   27  C   UNK N   1      25.398  23.321  -8.370  0.00  0.00     0.194 C 
HETATM   28  O   UNK N   1      24.355  22.737  -8.171  0.00  0.00    -0.645 OA
BRANCH  27  29
HETATM   29  O   UNK N   1      25.413  24.353  -9.235  0.00  0.00    -0.772 OA
HETATM   30  H   UNK N   1      25.864  24.289 -10.054  0.00  0.00     0.167 HD
ENDBRANCH  27  29
ENDBRANCH   1  27
BRANCH  13  31
HETATM   31  O   UNK N   1      29.193  20.461  -7.861  0.00  0.00    -0.345 OA
HETATM   32  H   UNK N   1      29.309  19.775  -7.233  0.00  0.00     0.219 HD
ENDBRANCH  13  31
TORSDOF 3
ENDMDL
MODEL 2
REMARK VINA RESULT:      -8.4     12.797     13.526
REMARK  3 active torsions:
REMARK  status: ('A' for Active; 'I' for Inactive)
REMARK    1  A    between atoms: O_1  and  C_3 
REMARK    2  A    between atoms: C_3  and  C_4 
REMARK    3  A    between atoms: O_16  and  C_17 
ROOT
HETATM    1  C   UNK N   1      21.222  19.251   2.872  0.00  0.00     0.120 A 
HETATM    2  N   UNK N   1      20.017  18.632   2.911  0.00  0.00    -0.330 N 
HETATM    3  C   UNK N   1      22.141  18.555   3.688  0.00  0.00     0.026 A 
HETATM    4  C   UNK N   1      23.532  18.668   4.020  0.00  0.00     0.019 A 
HETATM    5  C   UNK N   1      24.090  17.761   4.934  0.00  0.00     0.072 A 
HETATM    6  N   UNK N   1      25.402  17.991   5.141  0.00  0.00    -0.353 N 
HETATM    7  C   UNK N   1      25.701  19.039   4.349  0.00  0.00     0.043 A 
HETATM    8  C   UNK N   1      24.595  19.480   3.644  0.00  0.00     0.004 A 
HETATM    9  C   UNK N   1      24.711  20.535   2.746  0.00  0.00     0.014 A 
HETATM   10  C   UNK N   1      25.961  21.155   2.584  0.00  0.00     0.001 A 
HETATM   11  C   UNK N   1      27.079  20.706   3.315  0.00  0.00     0.002 A 
HETATM   12  C   UNK N   1      26.954  19.629   4.208  0.00  0.00     0.030 A 
HETATM   13  C   UNK N   1      20.130  17.591   3.755  0.00  0.00     0.153 A 
HETATM   14  C   UNK N   1      21.403  17.516   4.260  0.00  0.00     0.042 A 
HETATM   15  C   UNK N   1      21.984  16.628   5.181  0.00  0.00     0.021 A 
HETATM   16  C   UNK N   1      23.318  16.760   5.513  0.00  0.00     0.072 A 
HETATM   17  N   UNK N   1      23.702  15.827   6.415  0.00  0.00    -0.353 N 
HETATM   18  C   UNK N   1      22.582  15.107   6.658  0.00  0.00     0.043 A 
HETATM   19  C   UNK N   1      21.513  15.569   5.918  0.00  0.00     0.004 A 
HETATM   20  C   UNK N   1      20.251  14.989   6.017  0.00  0.00     0.014 A 
HETATM   21  C   UNK N   1      20.092  13.908   6.903  0.00  0.00     0.001 A 
HETATM   22  C   UNK N   1      21.188  13.435   7.661  0.00  0.00     0.002 A 
HETATM   23  C   UNK N   1      22.454  14.039   7.541  0.00  0.00     0.030 A 
HETATM   24  H   UNK N   1      19.208  18.895   2.414  0.00  0.00     0.168 HD
HETATM   25  H   UNK N   1      26.010  17.500   5.741  0.00  0.00     0.166 HD
HETATM   26  H   UNK N   1      24.596  15.700   6.807  0.00  0.00     0.166 HD
ENDROOT
BRANCH   1  27
HETATM   27  C   UNK N   1      21.369  20.501   2.099  0.00  0.00     0.194 C 
HETATM   28  O   UNK N   1      21.512  20.487   0.896  0.00  0.00    -0.645 OA
BRANCH  27  29
HETATM   29  O   UNK N   1      21.480  21.671   2.756  0.00  0.00    -0.772 OA
HETATM   30  H   UNK N   1      20.934  21.864   3.493  0.00  0.00     0.167 HD
ENDBRANCH  27  29
ENDBRANCH   1  27
BRANCH  13  31
HETATM   31  O   UNK N   1      19.114  16.761   4.041  0.00  0.00    -0.345 OA
HETATM   32  H   UNK N   1      18.302  16.836   3.580  0.00  0.00     0.219 HD
ENDBRANCH  13  31
TORSDOF 3
ENDMDL
MODEL 3
REMARK VINA RESULT:      -8.1      0.579      5.944
REMARK  3 active torsions:
REMARK  status: ('A' for Active; 'I' for Inactive)
REMARK    1  A    between atoms: O_1  and  C_3 
REMARK    2  A    between atoms: C_3  and  C_4 
REMARK    3  A    between atoms: O_16  and  C_17 
ROOT
HETATM    1  C   UNK N   1      28.040  21.547  -7.567  0.00  0.00     0.120 A 
HETATM    2  N   UNK N   1      26.882  21.936  -8.154  0.00  0.00    -0.330 N 
HETATM    3  C   UNK N   1      28.338  22.406  -6.487  0.00  0.00     0.026 A 
HETATM    4  C   UNK N   1      29.353  22.497  -5.477  0.00  0.00     0.019 A 
HETATM    5  C   UNK N   1      29.314  23.562  -4.565  0.00  0.00     0.072 A 
HETATM    6  N   UNK N   1      30.329  23.510  -3.679  0.00  0.00    -0.353 N 
HETATM    7  C   UNK N   1      31.019  22.400  -4.006  0.00  0.00     0.043 A 
HETATM    8  C   UNK N   1      30.459  21.749  -5.091  0.00  0.00     0.004 A 
HETATM    9  C   UNK N   1      31.013  20.563  -5.559  0.00  0.00     0.014 A 
HETATM   10  C   UNK N   1      32.157  20.051  -4.925  0.00  0.00     0.001 A 
HETATM   11  C   UNK N   1      32.727  20.727  -3.829  0.00  0.00     0.002 A 
HETATM   12  C   UNK N   1      32.151  21.917  -3.354  0.00  0.00     0.030 A 
HETATM   13  C   UNK N   1      26.457  23.037  -7.508  0.00  0.00     0.153 A 
HETATM   14  C   UNK N   1      27.321  23.365  -6.495  0.00  0.00     0.042 A 
HETATM   15  C   UNK N   1      27.311  24.427  -5.576  0.00  0.00     0.021 A 
HETATM   16  C   UNK N   1      28.308  24.519  -4.624  0.00  0.00     0.072 A 
HETATM   17  N   UNK N   1      28.141  25.605  -3.833  0.00  0.00    -0.353 N 
HETATM   18  C   UNK N   1      27.027  26.207  -4.309  0.00  0.00     0.043 A 
HETATM   19  C   UNK N   1      26.492  25.511  -5.374  0.00  0.00     0.004 A 
HETATM   20  C   UNK N   1      25.350  25.953  -6.035  0.00  0.00     0.014 A 
HETATM   21  C   UNK N   1      24.748  27.142  -5.584  0.00  0.00     0.001 A 
HETATM   22  C   UNK N   1      25.296  27.854  -4.493  0.00  0.00     0.002 A 
HETATM   23  C   UNK N   1      26.451  27.384  -3.841  0.00  0.00     0.030 A 
HETATM   24  H   UNK N   1      26.435  21.496  -8.913  0.00  0.00     0.168 HD
HETATM   25  H   UNK N   1      30.523  24.144  -2.951  0.00  0.00     0.166 HD
HETATM   26  H   UNK N   1      28.705  25.893  -3.079  0.00  0.00     0.166 HD
ENDROOT
BRANCH   1  27
HETATM   27  C   UNK N   1      28.796  20.414  -8.138  0.00  0.00     0.194 C 
HETATM   28  O   UNK N   1      28.620  19.279  -7.753  0.00  0.00    -0.645 OA
BRANCH  27  29
HETATM   29  O   UNK N   1      29.793  20.661  -9.008  0.00  0.00    -0.772 OA
HETATM   30  H   UNK N   1      30.086  20.001  -9.606  0.00  0.00     0.167 HD
ENDBRANCH  27  29
ENDBRANCH   1  27
BRANCH  13  31
HETATM   31  O   UNK N   1      25.338  23.699  -7.840  0.00  0.00    -0.345 OA
HETATM   32  H   UNK N   1      24.501  23.289  -7.738  0.00  0.00     0.219 HD
ENDBRANCH  13  31
TORSDOF 3
ENDMDL
MODEL 4
REMARK VINA RESULT:      -8.0     11.985     15.460
REMARK  3 active torsions:
REMARK  status: ('A' for Active; 'I' for Inactive)
REMARK    1  A    between atoms: O_1  and  C_3 
REMARK    2  A    between atoms: C_3  and  C_4 
REMARK    3  A    between atoms: O_16  and  C_17 
ROOT
HETATM    1  C   UNK N   1      31.330  16.415   8.571  0.00  0.00     0.120 A 
HETATM    2  N   UNK N   1      30.615  17.153   9.454  0.00  0.00    -0.330 N 
HETATM    3  C   UNK N   1      30.950  16.749   7.253  0.00  0.00     0.026 A 
HETATM    4  C   UNK N   1      31.349  16.375   5.927  0.00  0.00     0.019 A 
HETATM    5  C   UNK N   1      30.676  16.932   4.830  0.00  0.00     0.072 A 
HETATM    6  N   UNK N   1      31.164  16.488   3.654  0.00  0.00    -0.353 N 
HETATM    7  C   UNK N   1      32.168  15.654   3.988  0.00  0.00     0.043 A 
HETATM    8  C   UNK N   1      32.320  15.558   5.360  0.00  0.00     0.004 A 
HETATM    9  C   UNK N   1      33.329  14.768   5.900  0.00  0.00     0.014 A 
HETATM   10  C   UNK N   1      34.172  14.056   5.032  0.00  0.00     0.001 A 
HETATM   11  C   UNK N   1      34.002  14.151   3.636  0.00  0.00     0.002 A 
HETATM   12  C   UNK N   1      32.990  14.964   3.101  0.00  0.00     0.030 A 
HETATM   13  C   UNK N   1      29.765  17.914   8.742  0.00  0.00     0.153 A 
HETATM   14  C   UNK N   1      29.927  17.690   7.399  0.00  0.00     0.042 A 
HETATM   15  C   UNK N   1      29.262  18.224   6.284  0.00  0.00     0.021 A 
HETATM   16  C   UNK N   1      29.637  17.839   5.012  0.00  0.00     0.072 A 
HETATM   17  N   UNK N   1      28.885  18.447   4.064  0.00  0.00    -0.353 N 
HETATM   18  C   UNK N   1      28.017  19.217   4.760  0.00  0.00     0.043 A 
HETATM   19  C   UNK N   1      28.221  19.106   6.121  0.00  0.00     0.004 A 
HETATM   20  C   UNK N   1      27.433  19.798   7.036  0.00  0.00     0.014 A 
HETATM   21  C   UNK N   1      26.411  20.622   6.532  0.00  0.00     0.001 A 
HETATM   22  C   UNK N   1      26.202  20.736   5.138  0.00  0.00     0.002 A 
HETATM   23  C   UNK N   1      27.015  20.026   4.234  0.00  0.00     0.030 A 
HETATM   24  H   UNK N   1      30.700  17.135  10.436  0.00  0.00     0.168 HD
HETATM   25  H   UNK N   1      30.856  16.723   2.749  0.00  0.00     0.166 HD
HETATM   26  H   UNK N   1      28.955  18.351   3.087  0.00  0.00     0.166 HD
ENDROOT
BRANCH   1  27
HETATM   27  C   UNK N   1      32.279  15.401   9.076  0.00  0.00     0.194 C 
HETATM   28  O   UNK N   1      32.060  14.215   8.956  0.00  0.00    -0.645 OA
BRANCH  27  29
HETATM   29  O   UNK N   1      33.342  15.798   9.801  0.00  0.00    -0.772 OA
HETATM   30  H   UNK N   1      33.796  16.591   9.596  0.00  0.00     0.167 HD
ENDBRANCH  27  29
ENDBRANCH   1  27
BRANCH  13  31
HETATM   31  O   UNK N   1      28.891  18.764   9.303  0.00  0.00    -0.345 OA
HETATM   32  H   UNK N   1      29.165  19.626   9.549  0.00  0.00     0.219 HD
ENDBRANCH  13  31
TORSDOF 3
ENDMDL
MODEL 5
REMARK VINA RESULT:      -7.9     11.926     14.183
REMARK  3 active torsions:
REMARK  status: ('A' for Active; 'I' for Inactive)
REMARK    1  A    between atoms: O_1  and  C_3 
REMARK    2  A    between atoms: C_3  and  C_4 
REMARK    3  A    between atoms: O_16  and  C_17 
ROOT
HETATM    1  C   UNK N   1      29.949  17.423   8.622  0.00  0.00     0.120 A 
HETATM    2  N   UNK N   1      30.827  16.566   9.199  0.00  0.00    -0.330 N 
HETATM    3  C   UNK N   1      30.029  17.311   7.217  0.00  0.00     0.026 A 
HETATM    4  C   UNK N   1      29.357  17.885   6.087  0.00  0.00     0.019 A 
HETATM    5  C   UNK N   1      29.767  17.524   4.794  0.00  0.00     0.072 A 
HETATM    6  N   UNK N   1      29.042  18.141   3.840  0.00  0.00    -0.353 N 
HETATM    7  C   UNK N   1      28.150  18.892   4.513  0.00  0.00     0.043 A 
HETATM    8  C   UNK N   1      28.300  18.764   5.882  0.00  0.00     0.004 A 
HETATM    9  C   UNK N   1      27.447  19.439   6.748  0.00  0.00     0.014 A 
HETATM   10  C   UNK N   1      26.447  20.265   6.209  0.00  0.00     0.001 A 
HETATM   11  C   UNK N   1      26.309  20.399   4.813  0.00  0.00     0.002 A 
HETATM   12  C   UNK N   1      27.167  19.701   3.947  0.00  0.00     0.030 A 
HETATM   13  C   UNK N   1      31.488  15.945   8.207  0.00  0.00     0.153 A 
HETATM   14  C   UNK N   1      31.043  16.378   6.984  0.00  0.00     0.042 A 
HETATM   15  C   UNK N   1      31.441  16.042   5.680  0.00  0.00     0.021 A 
HETATM   16  C   UNK N   1      30.805  16.619   4.599  0.00  0.00     0.072 A 
HETATM   17  N   UNK N   1      31.323  16.184   3.425  0.00  0.00    -0.353 N 
HETATM   18  C   UNK N   1      32.308  15.329   3.784  0.00  0.00     0.043 A 
HETATM   19  C   UNK N   1      32.406  15.217   5.156  0.00  0.00     0.004 A 
HETATM   20  C   UNK N   1      33.362  14.402   5.755  0.00  0.00     0.014 A 
HETATM   21  C   UNK N   1      34.237  13.688   4.916  0.00  0.00     0.001 A 
HETATM   22  C   UNK N   1      34.136  13.803   3.510  0.00  0.00     0.002 A 
HETATM   23  C   UNK N   1      33.159  14.634   2.930  0.00  0.00     0.030 A 
HETATM   24  H   UNK N   1      30.957  16.425  10.165  0.00  0.00     0.168 HD
HETATM   25  H   UNK N   1      29.143  18.060   2.863  0.00  0.00     0.166 HD
HETATM   26  H   UNK N   1      31.045  16.435   2.515  0.00  0.00     0.166 HD
ENDROOT
BRANCH   1  27
HETATM   27  C   UNK N   1      29.150  18.324   9.477  0.00  0.00     0.194 C 
HETATM   28  O   UNK N   1      29.678  19.107  10.236  0.00  0.00    -0.645 OA
BRANCH  27  29
HETATM   29  O   UNK N   1      27.811  18.184   9.511  0.00  0.00    -0.772 OA
HETATM   30  H   UNK N   1      27.246  18.907   9.325  0.00  0.00     0.167 HD
ENDBRANCH  27  29
ENDBRANCH   1  27
BRANCH  13  31
HETATM   31  O   UNK N   1      32.449  15.032   8.421  0.00  0.00    -0.345 OA
HETATM   32  H   UNK N   1      32.219  14.148   8.631  0.00  0.00     0.219 HD
ENDBRANCH  13  31
TORSDOF 3
ENDMDL
MODEL 6
REMARK VINA RESULT:      -7.7     16.827     20.796
REMARK  3 active torsions:
REMARK  status: ('A' for Active; 'I' for Inactive)
REMARK    1  A    between atoms: O_1  and  C_3 
REMARK    2  A    between atoms: C_3  and  C_4 
REMARK    3  A    between atoms: O_16  and  C_17 
ROOT
HETATM    1  C   UNK N   1      35.694  14.338  12.279  0.00  0.00     0.120 A 
HETATM    2  N   UNK N   1      35.989  15.652  12.132  0.00  0.00    -0.330 N 
HETATM    3  C   UNK N   1      35.089  13.851  11.100  0.00  0.00     0.026 A 
HETATM    4  C   UNK N   1      34.607  12.587  10.621  0.00  0.00     0.019 A 
HETATM    5  C   UNK N   1      34.020  12.519   9.349  0.00  0.00     0.072 A 
HETATM    6  N   UNK N   1      33.621  11.269   9.039  0.00  0.00    -0.353 N 
HETATM    7  C   UNK N   1      33.964  10.521  10.106  0.00  0.00     0.043 A 
HETATM    8  C   UNK N   1      34.572  11.279  11.090  0.00  0.00     0.004 A 
HETATM    9  C   UNK N   1      35.028  10.677  12.258  0.00  0.00     0.014 A 
HETATM   10  C   UNK N   1      34.843   9.296  12.427  0.00  0.00     0.001 A 
HETATM   11  C   UNK N   1      34.212   8.533  11.423  0.00  0.00     0.002 A 
HETATM   12  C   UNK N   1      33.769   9.149  10.241  0.00  0.00     0.030 A 
HETATM   13  C   UNK N   1      35.557  16.025  10.915  0.00  0.00     0.153 A 
HETATM   14  C   UNK N   1      34.990  14.962  10.258  0.00  0.00     0.042 A 
HETATM   15  C   UNK N   1      34.388  14.868   8.993  0.00  0.00     0.021 A 
HETATM   16  C   UNK N   1      33.905  13.652   8.551  0.00  0.00     0.072 A 
HETATM   17  N   UNK N   1      33.354  13.752   7.318  0.00  0.00    -0.353 N 
HETATM   18  C   UNK N   1      33.486  15.058   6.991  0.00  0.00     0.043 A 
HETATM   19  C   UNK N   1      34.117  15.769   7.992  0.00  0.00     0.004 A 
HETATM   20  C   UNK N   1      34.348  17.138   7.881  0.00  0.00     0.014 A 
HETATM   21  C   UNK N   1      33.916  17.784   6.709  0.00  0.00     0.001 A 
HETATM   22  C   UNK N   1      33.271  17.055   5.683  0.00  0.00     0.002 A 
HETATM   23  C   UNK N   1      33.051  15.672   5.821  0.00  0.00     0.030 A 
HETATM   24  H   UNK N   1      36.437  16.228  12.794  0.00  0.00     0.168 HD
HETATM   25  H   UNK N   1      33.176  10.968   8.214  0.00  0.00     0.166 HD
HETATM   26  H   UNK N   1      32.948  13.035   6.780  0.00  0.00     0.166 HD
ENDROOT
BRANCH   1  27
HETATM   27  C   UNK N   1      35.962  13.676  13.572  0.00  0.00     0.194 C 
HETATM   28  O   UNK N   1      35.086  13.516  14.394  0.00  0.00    -0.645 OA
BRANCH  27  29
HETATM   29  O   UNK N   1      37.230  13.363  13.900  0.00  0.00    -0.772 OA
HETATM   30  H   UNK N   1      37.573  13.566  14.749  0.00  0.00     0.167 HD
ENDBRANCH  27  29
ENDBRANCH   1  27
BRANCH  13  31
HETATM   31  O   UNK N   1      35.677  17.275  10.441  0.00  0.00    -0.345 OA
HETATM   32  H   UNK N   1      36.512  17.699  10.441  0.00  0.00     0.219 HD
ENDBRANCH  13  31
TORSDOF 3
ENDMDL
MODEL 7
REMARK VINA RESULT:      -7.6     12.428     14.501
REMARK  3 active torsions:
REMARK  status: ('A' for Active; 'I' for Inactive)
REMARK    1  A    between atoms: O_1  and  C_3 
REMARK    2  A    between atoms: C_3  and  C_4 
REMARK    3  A    between atoms: O_16  and  C_17 
ROOT
HETATM    1  C   UNK N   1      29.488  17.862   8.084  0.00  0.00     0.120 A 
HETATM    2  N   UNK N   1      30.486  17.865   9.001  0.00  0.00    -0.330 N 
HETATM    3  C   UNK N   1      29.899  17.149   6.937  0.00  0.00     0.026 A 
HETATM    4  C   UNK N   1      29.311  16.759   5.687  0.00  0.00     0.019 A 
HETATM    5  C   UNK N   1      30.092  16.053   4.758  0.00  0.00     0.072 A 
HETATM    6  N   UNK N   1      29.403  15.755   3.638  0.00  0.00    -0.353 N 
HETATM    7  C   UNK N   1      28.169  16.254   3.846  0.00  0.00     0.043 A 
HETATM    8  C   UNK N   1      28.066  16.868   5.081  0.00  0.00     0.004 A 
HETATM    9  C   UNK N   1      26.856  17.417   5.492  0.00  0.00     0.014 A 
HETATM   10  C   UNK N   1      25.752  17.354   4.626  0.00  0.00     0.001 A 
HETATM   11  C   UNK N   1      25.871  16.737   3.365  0.00  0.00     0.002 A 
HETATM   12  C   UNK N   1      27.093  16.172   2.966  0.00  0.00     0.030 A 
HETATM   13  C   UNK N   1      31.529  17.214   8.458  0.00  0.00     0.153 A 
HETATM   14  C   UNK N   1      31.219  16.772   7.197  0.00  0.00     0.042 A 
HETATM   15  C   UNK N   1      31.981  16.075   6.246  0.00  0.00     0.021 A 
HETATM   16  C   UNK N   1      31.414  15.726   5.035  0.00  0.00     0.072 A 
HETATM   17  N   UNK N   1      32.295  15.068   4.244  0.00  0.00    -0.353 N 
HETATM   18  C   UNK N   1      33.434  15.018   4.972  0.00  0.00     0.043 A 
HETATM   19  C   UNK N   1      33.277  15.622   6.202  0.00  0.00     0.004 A 
HETATM   20  C   UNK N   1      34.324  15.703   7.115  0.00  0.00     0.014 A 
HETATM   21  C   UNK N   1      35.563  15.146   6.746  0.00  0.00     0.001 A 
HETATM   22  C   UNK N   1      35.723  14.526   5.485  0.00  0.00     0.002 A 
HETATM   23  C   UNK N   1      34.647  14.457   4.581  0.00  0.00     0.030 A 
HETATM   24  H   UNK N   1      30.453  18.271   9.898  0.00  0.00     0.168 HD
HETATM   25  H   UNK N   1      29.731  15.277   2.842  0.00  0.00     0.166 HD
HETATM   26  H   UNK N   1      32.140  14.707   3.342  0.00  0.00     0.166 HD
ENDROOT
BRANCH   1  27
HETATM   27  C   UNK N   1      28.242  18.602   8.367  0.00  0.00     0.194 C 
HETATM   28  O   UNK N   1      27.968  19.627   7.781  0.00  0.00    -0.645 OA
BRANCH  27  29
HETATM   29  O   UNK N   1      27.458  18.206   9.388  0.00  0.00    -0.772 OA
HETATM   30  H   UNK N   1      27.803  18.116  10.254  0.00  0.00     0.167 HD
ENDBRANCH  27  29
ENDBRANCH   1  27
BRANCH  13  31
HETATM   31  O   UNK N   1      32.700  17.040   9.092  0.00  0.00    -0.345 OA
HETATM   32  H   UNK N   1      32.823  17.385   9.955  0.00  0.00     0.219 HD
ENDBRANCH  13  31
TORSDOF 3
ENDMDL
MODEL 8
REMARK VINA RESULT:      -7.6      1.095      6.121
REMARK  3 active torsions:
REMARK  status: ('A' for Active; 'I' for Inactive)
REMARK    1  A    between atoms: O_1  and  C_3 
REMARK    2  A    between atoms: C_3  and  C_4 
REMARK    3  A    between atoms: O_16  and  C_17 
ROOT
HETATM    1  C   UNK N   1      29.053  20.899  -7.443  0.00  0.00     0.120 A 
HETATM    2  N   UNK N   1      27.917  21.207  -8.115  0.00  0.00    -0.330 N 
HETATM    3  C   UNK N   1      29.208  21.771  -6.344  0.00  0.00     0.026 A 
HETATM    4  C   UNK N   1      30.136  21.929  -5.262  0.00  0.00     0.019 A 
HETATM    5  C   UNK N   1      29.953  22.984  -4.355  0.00  0.00     0.072 A 
HETATM    6  N   UNK N   1      30.900  23.000  -3.396  0.00  0.00    -0.353 N 
HETATM    7  C   UNK N   1      31.691  21.945  -3.671  0.00  0.00     0.043 A 
HETATM    8  C   UNK N   1      31.261  21.261  -4.794  0.00  0.00     0.004 A 
HETATM    9  C   UNK N   1      31.932  20.120  -5.219  0.00  0.00     0.014 A 
HETATM   10  C   UNK N   1      33.060  19.688  -4.502  0.00  0.00     0.001 A 
HETATM   11  C   UNK N   1      33.497  20.398  -3.366  0.00  0.00     0.002 A 
HETATM   12  C   UNK N   1      32.803  21.541  -2.937  0.00  0.00     0.030 A 
HETATM   13  C   UNK N   1      27.368  22.271  -7.503  0.00  0.00     0.153 A 
HETATM   14  C   UNK N   1      28.128  22.655  -6.428  0.00  0.00     0.042 A 
HETATM   15  C   UNK N   1      27.974  23.709  -5.513  0.00  0.00     0.021 A 
HETATM   16  C   UNK N   1      28.887  23.867  -4.489  0.00  0.00     0.072 A 
HETATM   17  N   UNK N   1      28.585  24.935  -3.712  0.00  0.00    -0.353 N 
HETATM   18  C   UNK N   1      27.469  25.457  -4.271  0.00  0.00     0.043 A 
HETATM   19  C   UNK N   1      27.066  24.730  -5.372  0.00  0.00     0.004 A 
HETATM   20  C   UNK N   1      25.947  25.092  -6.117  0.00  0.00     0.014 A 
HETATM   21  C   UNK N   1      25.229  26.232  -5.712  0.00  0.00     0.001 A 
HETATM   22  C   UNK N   1      25.642  26.977  -4.583  0.00  0.00     0.002 A 
HETATM   23  C   UNK N   1      26.777  26.588  -3.847  0.00  0.00     0.030 A 
HETATM   24  H   UNK N   1      27.561  20.740  -8.906  0.00  0.00     0.168 HD
HETATM   25  H   UNK N   1      30.993  23.643  -2.655  0.00  0.00     0.166 HD
HETATM   26  H   UNK N   1      29.070  25.258  -2.919  0.00  0.00     0.166 HD
ENDROOT
BRANCH   1  27
HETATM   27  C   UNK N   1      29.929  19.826  -7.956  0.00  0.00     0.194 C 
HETATM   28  O   UNK N   1      30.934  20.077  -8.585  0.00  0.00    -0.645 OA
BRANCH  27  29
HETATM   29  O   UNK N   1      29.536  18.543  -7.840  0.00  0.00    -0.772 OA
HETATM   30  H   UNK N   1      28.678  18.328  -7.532  0.00  0.00     0.167 HD
ENDBRANCH  27  29
ENDBRANCH   1  27
BRANCH  13  31
HETATM   31  O   UNK N   1      26.231  22.853  -7.917  0.00  0.00    -0.345 OA
HETATM   32  H   UNK N   1      25.477  22.330  -8.107  0.00  0.00     0.219 HD
ENDBRANCH  13  31
TORSDOF 3
ENDMDL
MODEL 9
REMARK VINA RESULT:      -7.6     15.530     16.631
REMARK  3 active torsions:
REMARK  status: ('A' for Active; 'I' for Inactive)
REMARK    1  A    between atoms: O_1  and  C_3 
REMARK    2  A    between atoms: C_3  and  C_4 
REMARK    3  A    between atoms: O_16  and  C_17 
ROOT
HETATM    1  C   UNK N   1      21.411  16.159   5.842  0.00  0.00     0.120 A 
HETATM    2  N   UNK N   1      20.308  15.762   6.523  0.00  0.00    -0.330 N 
HETATM    3  C   UNK N   1      22.557  15.541   6.391  0.00  0.00     0.026 A 
HETATM    4  C   UNK N   1      23.962  15.510   6.103  0.00  0.00     0.019 A 
HETATM    5  C   UNK N   1      24.812  14.769   6.938  0.00  0.00     0.072 A 
HETATM    6  N   UNK N   1      26.098  14.834   6.540  0.00  0.00    -0.353 N 
HETATM    7  C   UNK N   1      26.082  15.604   5.435  0.00  0.00     0.043 A 
HETATM    8  C   UNK N   1      24.803  16.034   5.129  0.00  0.00     0.004 A 
HETATM    9  C   UNK N   1      24.577  16.815   4.001  0.00  0.00     0.014 A 
HETATM   10  C   UNK N   1      25.669  17.175   3.194  0.00  0.00     0.001 A 
HETATM   11  C   UNK N   1      26.969  16.743   3.521  0.00  0.00     0.002 A 
HETATM   12  C   UNK N   1      27.184  15.941   4.654  0.00  0.00     0.030 A 
HETATM   13  C   UNK N   1      20.720  14.946   7.509  0.00  0.00     0.153 A 
HETATM   14  C   UNK N   1      22.083  14.795   7.473  0.00  0.00     0.042 A 
HETATM   15  C   UNK N   1      22.957  14.070   8.299  0.00  0.00     0.021 A 
HETATM   16  C   UNK N   1      24.311  14.067   8.029  0.00  0.00     0.072 A 
HETATM   17  N   UNK N   1      24.998  13.325   8.930  0.00  0.00    -0.353 N 
HETATM   18  C   UNK N   1      24.054  12.867   9.784  0.00  0.00     0.043 A 
HETATM   19  C   UNK N   1      22.794  13.302   9.426  0.00  0.00     0.004 A 
HETATM   20  C   UNK N   1      21.667  12.967  10.171  0.00  0.00     0.014 A 
HETATM   21  C   UNK N   1      21.848  12.164  11.312  0.00  0.00     0.001 A 
HETATM   22  C   UNK N   1      23.139  11.718  11.678  0.00  0.00     0.002 A 
HETATM   23  C   UNK N   1      24.262  12.071  10.906  0.00  0.00     0.030 A 
HETATM   24  H   UNK N   1      19.378  16.024   6.331  0.00  0.00     0.168 HD
HETATM   25  H   UNK N   1      26.880  14.410   6.964  0.00  0.00     0.166 HD
HETATM   26  H   UNK N   1      25.967  13.156   8.957  0.00  0.00     0.166 HD
ENDROOT
BRANCH   1  27
HETATM   27  C   UNK N   1      21.275  17.151   4.758  0.00  0.00     0.194 C 
HETATM   28  O   UNK N   1      21.279  18.342   4.986  0.00  0.00    -0.645 OA
BRANCH  27  29
HETATM   29  O   UNK N   1      21.006  16.728   3.508  0.00  0.00    -0.772 OA
HETATM   30  H   UNK N   1      21.511  17.030   2.778  0.00  0.00     0.167 HD
ENDBRANCH  27  29
ENDBRANCH   1  27
BRANCH  13  31
HETATM   31  O   UNK N   1      19.884  14.377   8.391  0.00  0.00    -0.345 OA
HETATM   32  H   UNK N   1      18.973  14.600   8.387  0.00  0.00     0.219 HD
ENDBRANCH  13  31
TORSDOF 3
ENDMDL
