REMARK  3 active torsions:
REMARK  status: ('A' for Active; 'I' for Inactive)
REMARK    1  A    between atoms: O_1  and  C_3 
REMARK    2  A    between atoms: C_3  and  C_4 
REMARK    3  A    between atoms: O_16  and  C_17 
ROOT
HETATM    1  C   UNK N   1       1.038   2.350  -0.059  0.00  0.00     0.120 A 
HETATM    2  N   UNK N   1      -0.060   3.138  -0.161  0.00  0.00    -0.330 N 
HETATM    3  C   UNK N   1       0.651   0.992  -0.064  0.00  0.00     0.026 A 
HETATM    4  C   UNK N   1       1.314  -0.280  -0.034  0.00  0.00     0.019 A 
HETATM    5  C   UNK N   1       0.541  -1.451  -0.020  0.00  0.00     0.072 A 
HETATM    6  N   UNK N   1       1.303  -2.563   0.005  0.00  0.00    -0.353 N 
HETATM    7  C   UNK N   1       2.573  -2.114  -0.009  0.00  0.00     0.043 A 
HETATM    8  C   UNK N   1       2.628  -0.732  -0.038  0.00  0.00     0.004 A 
HETATM    9  C   UNK N   1       3.855  -0.080  -0.089  0.00  0.00     0.014 A 
HETATM   10  C   UNK N   1       5.032  -0.846  -0.090  0.00  0.00     0.001 A 
HETATM   11  C   UNK N   1       4.966  -2.253  -0.048  0.00  0.00     0.002 A 
HETATM   12  C   UNK N   1       3.721  -2.902  -0.012  0.00  0.00     0.030 A 
HETATM   13  C   UNK N   1      -1.132   2.327  -0.190  0.00  0.00     0.153 A 
HETATM   14  C   UNK N   1      -0.745   1.013  -0.120  0.00  0.00     0.042 A 
HETATM   15  C   UNK N   1      -1.495  -0.174  -0.094  0.00  0.00     0.021 A 
HETATM   16  C   UNK N   1      -0.848  -1.393  -0.040  0.00  0.00     0.072 A 
HETATM   17  N   UNK N   1      -1.727  -2.423  -0.015  0.00  0.00    -0.353 N 
HETATM   18  C   UNK N   1      -2.944  -1.833  -0.042  0.00  0.00     0.043 A 
HETATM   19  C   UNK N   1      -2.839  -0.458  -0.093  0.00  0.00     0.004 A 
HETATM   20  C   UNK N   1      -3.965   0.360  -0.113  0.00  0.00     0.014 A 
HETATM   21  C   UNK N   1      -5.228  -0.259  -0.079  0.00  0.00     0.001 A 
HETATM   22  C   UNK N   1      -5.335  -1.668  -0.027  0.00  0.00     0.002 A 
HETATM   23  C   UNK N   1      -4.180  -2.472  -0.009  0.00  0.00     0.030 A 
HETATM   24  H   UNK N   1      -0.071   4.122  -0.205  0.00  0.00     0.168 HD
HETATM   25  H   UNK N   1       0.998  -3.499   0.028  0.00  0.00     0.166 HD
HETATM   26  H   UNK N   1      -1.525  -3.386   0.016  0.00  0.00     0.166 HD
ENDROOT
BRANCH   1  27
HETATM   27  C   UNK N   1       2.366   2.976   0.099  0.00  0.00     0.194 C 
HETATM   28  O   UNK N   1       3.308   2.357   0.544  0.00  0.00    -0.645 OA
BRANCH  27  29
HETATM   29  O   UNK N   1       2.503   4.296  -0.130  0.00  0.00    -0.772 OA
HETATM   30  H   UNK N   1       3.346   4.673  -0.289  0.00  0.00     0.167 HD
ENDBRANCH  27  29
ENDBRANCH   1  27
BRANCH  13  31
HETATM   31  O   UNK N   1      -2.394   2.777  -0.274  0.00  0.00    -0.345 OA
HETATM   32  H   UNK N   1      -2.562   3.697  -0.332  0.00  0.00     0.219 HD
ENDBRANCH  13  31
TORSDOF 3
