MODEL 1
REMARK VINA RESULT:      -7.7      0.000      0.000
REMARK  0 active torsions:
REMARK  status: ('A' for Active; 'I' for Inactive)
ROOT
HETATM    1  C   UNK N   1      35.051  13.288  11.993  0.00  0.00     0.063 C 
HETATM    2  C   UNK N   1      34.892  12.331  10.785  0.00  0.00     0.274 C 
HETATM    3  N   UNK N   1      35.928  12.513   9.744  0.00  0.00     0.084 N 
HETATM    4  C   UNK N   1      36.578  11.228   9.503  0.00  0.00     0.309 C 
HETATM    5  C   UNK N   1      36.972  13.459  10.145  0.00  0.00     0.274 C 
HETATM    6  C   UNK N   1      37.524  13.040  11.509  0.00  0.00     0.063 C 
HETATM    7  C   UNK N   1      36.457  13.135  12.617  0.00  0.00     0.057 C 
HETATM    8  N   UNK N   1      36.802  14.363  13.339  0.00  0.00    -0.345 N 
HETATM    9  C   UNK N   1      36.727  14.504  14.687  0.00  0.00     0.269 C 
HETATM   10  O   UNK N   1      37.089  15.542  15.214  0.00  0.00    -0.266 OA
HETATM   11  C   UNK N   1      36.183  13.407  15.481  0.00  0.00     0.112 A 
HETATM   12  N   UNK N   1      35.864  13.408  16.794  0.00  0.00    -0.344 N 
HETATM   13  C   UNK N   1      35.996  14.541  17.698  0.00  0.00     0.157 C 
HETATM   14  C   UNK N   1      35.468  12.148  17.087  0.00  0.00     0.069 A 
HETATM   15  C   UNK N   1      35.145  11.595  18.337  0.00  0.00     0.083 A 
HETATM   16 Cl   UNK N   1      35.225  12.541  19.822  0.00  0.00    -0.080 Cl
HETATM   17  C   UNK N   1      34.834  10.216  18.385  0.00  0.00     0.058 A 
HETATM   18 Cl   UNK N   1      34.528   9.414  19.916  0.00  0.00    -0.082 Cl
HETATM   19  C   UNK N   1      34.828   9.444  17.204  0.00  0.00     0.026 A 
HETATM   20  C   UNK N   1      35.174  10.017  15.970  0.00  0.00     0.016 A 
HETATM   21  C   UNK N   1      35.497  11.369  15.947  0.00  0.00     0.003 A 
HETATM   22  C   UNK N   1      35.977  12.175  14.926  0.00  0.00     0.007 A 
HETATM   23  C   UNK N   1      36.483  11.862  13.546  0.00  0.00     0.157 C 
HETATM   24  C   UNK N   1      35.890  10.609  13.037  0.00  0.00     0.071 C 
HETATM   25  N   UNK N   1      35.411   9.626  12.658  0.00  0.00    -0.196 NA
HETATM   26  H   UNK N   1      37.108  15.135  12.811  0.00  0.00     0.163 HD
ENDROOT
TORSDOF 0
ENDMDL
MODEL 2
REMARK VINA RESULT:      -7.6      5.864      7.974
REMARK  0 active torsions:
REMARK  status: ('A' for Active; 'I' for Inactive)
ROOT
HETATM    1  C   UNK N   1      31.409  16.913   6.751  0.00  0.00     0.063 C 
HETATM    2  C   UNK N   1      30.523  16.307   5.634  0.00  0.00     0.274 C 
HETATM    3  N   UNK N   1      30.756  16.907   4.301  0.00  0.00     0.084 N 
HETATM    4  C   UNK N   1      31.076  15.838   3.359  0.00  0.00     0.309 C 
HETATM    5  C   UNK N   1      31.882  17.845   4.292  0.00  0.00     0.274 C 
HETATM    6  C   UNK N   1      33.109  17.152   4.890  0.00  0.00     0.063 C 
HETATM    7  C   UNK N   1      32.903  16.795   6.374  0.00  0.00     0.057 C 
HETATM    8  N   UNK N   1      33.667  17.816   7.096  0.00  0.00    -0.345 N 
HETATM    9  C   UNK N   1      34.406  17.575   8.208  0.00  0.00     0.269 C 
HETATM   10  O   UNK N   1      35.060  18.471   8.715  0.00  0.00    -0.266 OA
HETATM   11  C   UNK N   1      34.380  16.239   8.796  0.00  0.00     0.112 A 
HETATM   12  N   UNK N   1      34.894  15.840   9.980  0.00  0.00    -0.344 N 
HETATM   13  C   UNK N   1      35.588  16.692  10.934  0.00  0.00     0.157 C 
HETATM   14  C   UNK N   1      34.683  14.505  10.052  0.00  0.00     0.069 A 
HETATM   15  C   UNK N   1      35.131  13.595  11.023  0.00  0.00     0.083 A 
HETATM   16 Cl   UNK N   1      36.115  14.105  12.394  0.00  0.00    -0.080 Cl
HETATM   17  C   UNK N   1      34.839  12.225  10.824  0.00  0.00     0.058 A 
HETATM   18 Cl   UNK N   1      35.452  11.004  11.925  0.00  0.00    -0.082 Cl
HETATM   19  C   UNK N   1      34.101  11.809   9.695  0.00  0.00     0.026 A 
HETATM   20  C   UNK N   1      33.684  12.737   8.729  0.00  0.00     0.016 A 
HETATM   21  C   UNK N   1      33.999  14.076   8.933  0.00  0.00     0.003 A 
HETATM   22  C   UNK N   1      33.826  15.187   8.121  0.00  0.00     0.007 A 
HETATM   23  C   UNK N   1      33.408  15.334   6.685  0.00  0.00     0.157 C 
HETATM   24  C   UNK N   1      32.567  14.196   6.261  0.00  0.00     0.071 C 
HETATM   25  N   UNK N   1      31.909  13.295   5.951  0.00  0.00    -0.196 NA
HETATM   26  H   UNK N   1      33.642  18.737   6.750  0.00  0.00     0.163 HD
ENDROOT
TORSDOF 0
ENDMDL
MODEL 3
REMARK VINA RESULT:      -7.5      9.180     11.799
REMARK  0 active torsions:
REMARK  status: ('A' for Active; 'I' for Inactive)
ROOT
HETATM    1  C   UNK N   1      33.412  17.317   7.402  0.00  0.00     0.063 C 
HETATM    2  C   UNK N   1      34.534  16.321   7.016  0.00  0.00     0.274 C 
HETATM    3  N   UNK N   1      35.143  15.635   8.178  0.00  0.00     0.084 N 
HETATM    4  C   UNK N   1      35.053  14.193   7.968  0.00  0.00     0.309 C 
HETATM    5  C   UNK N   1      34.455  15.935   9.436  0.00  0.00     0.274 C 
HETATM    6  C   UNK N   1      32.959  15.659   9.260  0.00  0.00     0.063 C 
HETATM    7  C   UNK N   1      32.317  16.601   8.224  0.00  0.00     0.057 C 
HETATM    8  N   UNK N   1      31.598  17.586   9.036  0.00  0.00    -0.345 N 
HETATM    9  C   UNK N   1      30.378  18.093   8.722  0.00  0.00     0.269 C 
HETATM   10  O   UNK N   1      29.823  18.867   9.483  0.00  0.00    -0.266 OA
HETATM   11  C   UNK N   1      29.765  17.716   7.452  0.00  0.00     0.112 A 
HETATM   12  N   UNK N   1      28.657  18.233   6.877  0.00  0.00    -0.344 N 
HETATM   13  C   UNK N   1      27.839  19.306   7.424  0.00  0.00     0.157 C 
HETATM   14  C   UNK N   1      28.447  17.515   5.750  0.00  0.00     0.069 A 
HETATM   15  C   UNK N   1      27.364  17.573   4.858  0.00  0.00     0.083 A 
HETATM   16 Cl   UNK N   1      26.011  18.677   5.106  0.00  0.00    -0.080 Cl
HETATM   17  C   UNK N   1      27.344  16.651   3.786  0.00  0.00     0.058 A 
HETATM   18 Cl   UNK N   1      25.978  16.575   2.687  0.00  0.00    -0.082 Cl
HETATM   19  C   UNK N   1      28.397  15.727   3.621  0.00  0.00     0.026 A 
HETATM   20  C   UNK N   1      29.458  15.675   4.538  0.00  0.00     0.016 A 
HETATM   21  C   UNK N   1      29.448  16.577   5.596  0.00  0.00     0.003 A 
HETATM   22  C   UNK N   1      30.278  16.696   6.701  0.00  0.00     0.007 A 
HETATM   23  C   UNK N   1      31.362  15.811   7.250  0.00  0.00     0.157 C 
HETATM   24  C   UNK N   1      31.970  14.995   6.180  0.00  0.00     0.071 C 
HETATM   25  N   UNK N   1      32.433  14.367   5.324  0.00  0.00    -0.196 NA
HETATM   26  H   UNK N   1      32.028  17.901   9.863  0.00  0.00     0.163 HD
ENDROOT
TORSDOF 0
ENDMDL
MODEL 4
REMARK VINA RESULT:      -7.4     23.042     25.569
REMARK  0 active torsions:
REMARK  status: ('A' for Active; 'I' for Inactive)
ROOT
HETATM    1  C   UNK N   1      26.890  26.368  -6.882  0.00  0.00     0.063 C 
HETATM    2  C   UNK N   1      27.096  27.607  -5.974  0.00  0.00     0.274 C 
HETATM    3  N   UNK N   1      25.845  28.106  -5.359  0.00  0.00     0.084 N 
HETATM    4  C   UNK N   1      26.027  28.159  -3.911  0.00  0.00     0.309 C 
HETATM    5  C   UNK N   1      24.699  27.232  -5.621  0.00  0.00     0.274 C 
HETATM    6  C   UNK N   1      25.065  25.801  -5.221  0.00  0.00     0.063 C 
HETATM    7  C   UNK N   1      26.202  25.232  -6.091  0.00  0.00     0.057 C 
HETATM    8  N   UNK N   1      25.520  24.335  -7.027  0.00  0.00    -0.345 N 
HETATM    9  C   UNK N   1      26.008  23.132  -7.427  0.00  0.00     0.269 C 
HETATM   10  O   UNK N   1      25.349  22.420  -8.164  0.00  0.00    -0.266 OA
HETATM   11  C   UNK N   1      27.337  22.728  -6.981  0.00  0.00     0.112 A 
HETATM   12  N   UNK N   1      28.069  21.670  -7.397  0.00  0.00    -0.344 N 
HETATM   13  C   UNK N   1      27.665  20.704  -8.407  0.00  0.00     0.157 C 
HETATM   14  C   UNK N   1      29.194  21.673  -6.646  0.00  0.00     0.069 A 
HETATM   15  C   UNK N   1      30.224  20.718  -6.601  0.00  0.00     0.083 A 
HETATM   16 Cl   UNK N   1      30.188  19.262  -7.595  0.00  0.00    -0.080 Cl
HETATM   17  C   UNK N   1      31.264  20.917  -5.663  0.00  0.00     0.058 A 
HETATM   18 Cl   UNK N   1      32.533  19.722  -5.459  0.00  0.00    -0.082 Cl
HETATM   19  C   UNK N   1      31.263  22.052  -4.826  0.00  0.00     0.026 A 
HETATM   20  C   UNK N   1      30.211  22.980  -4.876  0.00  0.00     0.016 A 
HETATM   21  C   UNK N   1      29.188  22.756  -5.791  0.00  0.00     0.003 A 
HETATM   22  C   UNK N   1      27.986  23.417  -5.995  0.00  0.00     0.007 A 
HETATM   23  C   UNK N   1      27.274  24.483  -5.211  0.00  0.00     0.157 C 
HETATM   24  C   UNK N   1      28.231  25.293  -4.430  0.00  0.00     0.071 C 
HETATM   25  N   UNK N   1      29.000  25.915  -3.828  0.00  0.00    -0.196 NA
HETATM   26  H   UNK N   1      24.652  24.623  -7.389  0.00  0.00     0.163 HD
ENDROOT
TORSDOF 0
ENDMDL
MODEL 5
REMARK VINA RESULT:      -7.2     21.186     23.474
REMARK  0 active torsions:
REMARK  status: ('A' for Active; 'I' for Inactive)
ROOT
HETATM    1  C   UNK N   1      33.310  22.341  -5.299  0.00  0.00     0.063 C 
HETATM    2  C   UNK N   1      34.228  21.364  -6.077  0.00  0.00     0.274 C 
HETATM    3  N   UNK N   1      35.021  20.472  -5.202  0.00  0.00     0.084 N 
HETATM    4  C   UNK N   1      34.764  19.088  -5.591  0.00  0.00     0.309 C 
HETATM    5  C   UNK N   1      34.660  20.601  -3.788  0.00  0.00     0.274 C 
HETATM    6  C   UNK N   1      33.145  20.430  -3.646  0.00  0.00     0.063 C 
HETATM    7  C   UNK N   1      32.370  21.557  -4.356  0.00  0.00     0.057 C 
HETATM    8  N   UNK N   1      31.937  22.434  -3.265  0.00  0.00    -0.345 N 
HETATM    9  C   UNK N   1      30.726  23.044  -3.208  0.00  0.00     0.269 C 
HETATM   10  O   UNK N   1      30.423  23.712  -2.235  0.00  0.00    -0.266 OA
HETATM   11  C   UNK N   1      29.814  22.906  -4.339  0.00  0.00     0.112 A 
HETATM   12  N   UNK N   1      28.654  23.562  -4.558  0.00  0.00    -0.344 N 
HETATM   13  C   UNK N   1      28.073  24.573  -3.686  0.00  0.00     0.157 C 
HETATM   14  C   UNK N   1      28.137  23.045  -5.696  0.00  0.00     0.069 A 
HETATM   15  C   UNK N   1      26.890  23.299  -6.291  0.00  0.00     0.083 A 
HETATM   16 Cl   UNK N   1      25.727  24.414  -5.576  0.00  0.00    -0.080 Cl
HETATM   17  C   UNK N   1      26.553  22.562  -7.450  0.00  0.00     0.058 A 
HETATM   18 Cl   UNK N   1      24.974  22.731  -8.198  0.00  0.00    -0.082 Cl
HETATM   19  C   UNK N   1      27.460  21.625  -7.989  0.00  0.00     0.026 A 
HETATM   20  C   UNK N   1      28.690  21.375  -7.363  0.00  0.00     0.016 A 
HETATM   21  C   UNK N   1      28.995  22.096  -6.214  0.00  0.00     0.003 A 
HETATM   22  C   UNK N   1      30.057  21.995  -5.329  0.00  0.00     0.007 A 
HETATM   23  C   UNK N   1      31.157  20.981  -5.183  0.00  0.00     0.157 C 
HETATM   24  C   UNK N   1      31.439  20.318  -6.472  0.00  0.00     0.071 C 
HETATM   25  N   UNK N   1      31.643  19.812  -7.493  0.00  0.00    -0.196 NA
HETATM   26  H   UNK N   1      32.567  22.591  -2.525  0.00  0.00     0.163 HD
ENDROOT
TORSDOF 0
ENDMDL
MODEL 6
REMARK VINA RESULT:      -7.2      4.562      6.399
REMARK  0 active torsions:
REMARK  status: ('A' for Active; 'I' for Inactive)
ROOT
HETATM    1  C   UNK N   1      32.292  16.345   8.070  0.00  0.00     0.063 C 
HETATM    2  C   UNK N   1      31.493  15.967   6.797  0.00  0.00     0.274 C 
HETATM    3  N   UNK N   1      31.910  16.715   5.591  0.00  0.00     0.084 N 
HETATM    4  C   UNK N   1      32.257  15.757   4.544  0.00  0.00     0.309 C 
HETATM    5  C   UNK N   1      33.092  17.550   5.824  0.00  0.00     0.274 C 
HETATM    6  C   UNK N   1      34.196  16.685   6.436  0.00  0.00     0.063 C 
HETATM    7  C   UNK N   1      33.806  16.154   7.829  0.00  0.00     0.057 C 
HETATM    8  N   UNK N   1      34.556  17.004   8.758  0.00  0.00    -0.345 N 
HETATM    9  C   UNK N   1      35.151  16.559   9.893  0.00  0.00     0.269 C 
HETATM   10  O   UNK N   1      35.806  17.323  10.581  0.00  0.00    -0.266 OA
HETATM   11  C   UNK N   1      34.969  15.164  10.283  0.00  0.00     0.112 A 
HETATM   12  N   UNK N   1      35.323  14.571  11.444  0.00  0.00    -0.344 N 
HETATM   13  C   UNK N   1      35.966  15.230  12.572  0.00  0.00     0.157 C 
HETATM   14  C   UNK N   1      35.015  13.261  11.308  0.00  0.00     0.069 A 
HETATM   15  C   UNK N   1      35.291  12.196  12.182  0.00  0.00     0.083 A 
HETATM   16 Cl   UNK N   1      36.153  12.438  13.701  0.00  0.00    -0.080 Cl
HETATM   17  C   UNK N   1      34.929  10.894  11.766  0.00  0.00     0.058 A 
HETATM   18 Cl   UNK N   1      35.334   9.492  12.741  0.00  0.00    -0.082 Cl
HETATM   19  C   UNK N   1      34.292  10.693  10.524  0.00  0.00     0.026 A 
HETATM   20  C   UNK N   1      34.047  11.771   9.659  0.00  0.00     0.016 A 
HETATM   21  C   UNK N   1      34.429  13.041  10.078  0.00  0.00     0.003 A 
HETATM   22  C   UNK N   1      34.421  14.259   9.417  0.00  0.00     0.007 A 
HETATM   23  C   UNK N   1      34.173  14.628   7.981  0.00  0.00     0.157 C 
HETATM   24  C   UNK N   1      33.307  13.629   7.321  0.00  0.00     0.071 C 
HETATM   25  N   UNK N   1      32.627  12.835   6.826  0.00  0.00    -0.196 NA
HETATM   26  H   UNK N   1      34.632  17.962   8.543  0.00  0.00     0.163 HD
ENDROOT
TORSDOF 0
ENDMDL
MODEL 7
REMARK VINA RESULT:      -7.2      5.604      8.327
REMARK  0 active torsions:
REMARK  status: ('A' for Active; 'I' for Inactive)
ROOT
HETATM    1  C   UNK N   1      37.129  13.455  10.866  0.00  0.00     0.063 C 
HETATM    2  C   UNK N   1      37.256  11.982  11.328  0.00  0.00     0.274 C 
HETATM    3  N   UNK N   1      37.124  11.805  12.791  0.00  0.00     0.084 N 
HETATM    4  C   UNK N   1      36.065  10.833  13.049  0.00  0.00     0.309 C 
HETATM    5  C   UNK N   1      36.752  13.044  13.479  0.00  0.00     0.274 C 
HETATM    6  C   UNK N   1      35.510  13.632  12.805  0.00  0.00     0.063 C 
HETATM    7  C   UNK N   1      35.789  14.056  11.350  0.00  0.00     0.057 C 
HETATM    8  N   UNK N   1      35.910  15.514  11.420  0.00  0.00    -0.345 N 
HETATM    9  C   UNK N   1      35.421  16.368  10.485  0.00  0.00     0.269 C 
HETATM   10  O   UNK N   1      35.513  17.573  10.649  0.00  0.00    -0.266 OA
HETATM   11  C   UNK N   1      34.815  15.818   9.277  0.00  0.00     0.112 A 
HETATM   12  N   UNK N   1      34.432  16.478   8.162  0.00  0.00    -0.344 N 
HETATM   13  C   UNK N   1      34.563  17.910   7.938  0.00  0.00     0.157 C 
HETATM   14  C   UNK N   1      33.863  15.555   7.353  0.00  0.00     0.069 A 
HETATM   15  C   UNK N   1      33.200  15.745   6.130  0.00  0.00     0.083 A 
HETATM   16 Cl   UNK N   1      32.994  17.347   5.422  0.00  0.00    -0.080 Cl
HETATM   17  C   UNK N   1      32.618  14.613   5.514  0.00  0.00     0.058 A 
HETATM   18 Cl   UNK N   1      31.675  14.772   4.042  0.00  0.00    -0.082 Cl
HETATM   19  C   UNK N   1      32.731  13.339   6.111  0.00  0.00     0.026 A 
HETATM   20  C   UNK N   1      33.381  13.179   7.344  0.00  0.00     0.016 A 
HETATM   21  C   UNK N   1      33.928  14.309   7.943  0.00  0.00     0.003 A 
HETATM   22  C   UNK N   1      34.520  14.486   9.184  0.00  0.00     0.007 A 
HETATM   23  C   UNK N   1      34.630  13.593  10.388  0.00  0.00     0.157 C 
HETATM   24  C   UNK N   1      34.568  12.170   9.997  0.00  0.00     0.071 C 
HETATM   25  N   UNK N   1      34.519  11.061   9.667  0.00  0.00    -0.196 NA
HETATM   26  H   UNK N   1      36.375  15.900  12.197  0.00  0.00     0.163 HD
ENDROOT
TORSDOF 0
ENDMDL
MODEL 8
REMARK VINA RESULT:      -6.9      2.172      3.579
REMARK  0 active torsions:
REMARK  status: ('A' for Active; 'I' for Inactive)
ROOT
HETATM    1  C   UNK N   1      34.543  12.662  14.945  0.00  0.00     0.063 C 
HETATM    2  C   UNK N   1      34.891  12.548  13.439  0.00  0.00     0.274 C 
HETATM    3  N   UNK N   1      35.840  13.581  12.969  0.00  0.00     0.084 N 
HETATM    4  C   UNK N   1      36.979  12.917  12.342  0.00  0.00     0.309 C 
HETATM    5  C   UNK N   1      36.365  14.404  14.061  0.00  0.00     0.274 C 
HETATM    6  C   UNK N   1      36.929  13.485  15.148  0.00  0.00     0.063 C 
HETATM    7  C   UNK N   1      35.831  12.621  15.797  0.00  0.00     0.057 C 
HETATM    8  N   UNK N   1      35.580  13.272  17.086  0.00  0.00    -0.345 N 
HETATM    9  C   UNK N   1      35.345  12.607  18.246  0.00  0.00     0.269 C 
HETATM   10  O   UNK N   1      35.203  13.226  19.287  0.00  0.00    -0.266 OA
HETATM   11  C   UNK N   1      35.239  11.152  18.215  0.00  0.00     0.112 A 
HETATM   12  N   UNK N   1      34.842  10.325  19.207  0.00  0.00    -0.344 N 
HETATM   13  C   UNK N   1      34.422  10.737  20.538  0.00  0.00     0.157 C 
HETATM   14  C   UNK N   1      34.978   9.067  18.726  0.00  0.00     0.069 A 
HETATM   15  C   UNK N   1      34.812   7.846  19.399  0.00  0.00     0.083 A 
HETATM   16 Cl   UNK N   1      34.374   7.774  21.105  0.00  0.00    -0.080 Cl
HETATM   17  C   UNK N   1      35.093   6.658  18.683  0.00  0.00     0.058 A 
HETATM   18 Cl   UNK N   1      35.021   5.092  19.473  0.00  0.00    -0.082 Cl
HETATM   19  C   UNK N   1      35.501   6.718  17.334  0.00  0.00     0.026 A 
HETATM   20  C   UNK N   1      35.680   7.952  16.692  0.00  0.00     0.016 A 
HETATM   21  C   UNK N   1      35.418   9.109  17.419  0.00  0.00     0.003 A 
HETATM   22  C   UNK N   1      35.604  10.445  17.103  0.00  0.00     0.007 A 
HETATM   23  C   UNK N   1      36.304  11.126  15.960  0.00  0.00     0.157 C 
HETATM   24  C   UNK N   1      36.323  10.261  14.763  0.00  0.00     0.071 C 
HETATM   25  N   UNK N   1      36.324   9.567  13.836  0.00  0.00    -0.196 NA
HETATM   26  H   UNK N   1      35.583  14.256  17.111  0.00  0.00     0.163 HD
ENDROOT
TORSDOF 0
ENDMDL
MODEL 9
REMARK VINA RESULT:      -6.8      9.568     12.494
REMARK  0 active torsions:
REMARK  status: ('A' for Active; 'I' for Inactive)
ROOT
HETATM    1  C   UNK N   1      32.316  14.778   7.671  0.00  0.00     0.063 C 
HETATM    2  C   UNK N   1      32.901  15.256   9.023  0.00  0.00     0.274 C 
HETATM    3  N   UNK N   1      34.368  15.451   8.999  0.00  0.00     0.084 N 
HETATM    4  C   UNK N   1      34.664  16.812   9.438  0.00  0.00     0.309 C 
HETATM    5  C   UNK N   1      34.937  15.294   7.658  0.00  0.00     0.274 C 
HETATM    6  C   UNK N   1      34.169  16.193   6.685  0.00  0.00     0.063 C 
HETATM    7  C   UNK N   1      32.697  15.764   6.543  0.00  0.00     0.057 C 
HETATM    8  N   UNK N   1      32.651  15.067   5.255  0.00  0.00    -0.345 N 
HETATM    9  C   UNK N   1      31.631  15.169   4.366  0.00  0.00     0.269 C 
HETATM   10  O   UNK N   1      31.699  14.600   3.289  0.00  0.00    -0.266 OA
HETATM   11  C   UNK N   1      30.449  15.942   4.734  0.00  0.00     0.112 A 
HETATM   12  N   UNK N   1      29.270  16.025   4.080  0.00  0.00    -0.344 N 
HETATM   13  C   UNK N   1      28.934  15.328   2.847  0.00  0.00     0.157 C 
HETATM   14  C   UNK N   1      28.519  16.915   4.767  0.00  0.00     0.069 A 
HETATM   15  C   UNK N   1      27.259  17.443   4.439  0.00  0.00     0.083 A 
HETATM   16 Cl   UNK N   1      26.415  16.985   2.960  0.00  0.00    -0.080 Cl
HETATM   17  C   UNK N   1      26.716  18.430   5.294  0.00  0.00     0.058 A 
HETATM   18 Cl   UNK N   1      25.201  19.225   4.905  0.00  0.00    -0.082 Cl
HETATM   19  C   UNK N   1      27.419  18.840   6.447  0.00  0.00     0.026 A 
HETATM   20  C   UNK N   1      28.686  18.312   6.741  0.00  0.00     0.016 A 
HETATM   21  C   UNK N   1      29.211  17.358   5.876  0.00  0.00     0.003 A 
HETATM   22  C   UNK N   1      30.455  16.748   5.839  0.00  0.00     0.007 A 
HETATM   23  C   UNK N   1      31.732  17.010   6.588  0.00  0.00     0.157 C 
HETATM   24  C   UNK N   1      31.457  17.638   7.896  0.00  0.00     0.071 C 
HETATM   25  N   UNK N   1      31.217  18.128   8.918  0.00  0.00    -0.196 NA
HETATM   26  H   UNK N   1      33.411  14.488   5.020  0.00  0.00     0.163 HD
ENDROOT
TORSDOF 0
ENDMDL
