MODEL 1
REMARK VINA RESULT:      -7.0      0.000      0.000
REMARK  3 active torsions:
REMARK  status: ('A' for Active; 'I' for Inactive)
REMARK    1  A    between atoms: C_1  and  C_4 
REMARK    2  A    between atoms: C_4  and  O_6 
REMARK    3  A    between atoms: C_14  and  O_6 
ROOT
HETATM    1  O   UNK N   1      29.058  15.694   6.070  0.00  0.00    -0.259 OA
HETATM    2  C   UNK N   1      29.604  16.670   6.566  0.00  0.00     0.296 C 
ENDROOT
BRANCH   2   3
HETATM    3  C   UNK N   1      28.780  17.741   7.158  0.00  0.00     0.068 A 
HETATM    4  C   UNK N   1      28.195  18.790   6.489  0.00  0.00     0.026 A 
HETATM    5  C   UNK N   1      27.480  19.489   7.410  0.00  0.00     0.116 A 
HETATM    6  C   UNK N   1      28.206  19.164   5.149  0.00  0.00     0.018 A 
HETATM    7  N   UNK N   1      26.745  20.581   7.080  0.00  0.00    -0.352 N 
HETATM    8  N   UNK N   1      27.584  18.946   8.635  0.00  0.00    -0.351 N 
HETATM    9  C   UNK N   1      26.721  20.994   5.776  0.00  0.00     0.090 A 
ATOM     10  HN  UNK N   1      26.219  21.086   7.793  1.00  0.00     0.166 HD
HETATM   11  C   UNK N   1      27.451  20.293   4.787  0.00  0.00     0.018 A 
HETATM   12  C   UNK N   1      28.384  17.855   8.489  0.00  0.00     0.108 A 
HETATM   13  H   UNK N   1      27.166  19.270   9.465  0.00  0.00     0.166 HD
ENDBRANCH   2   3
BRANCH   2  14
HETATM   14  O   UNK N   1      30.960  16.719   6.674  0.00  0.00    -0.312 OA
BRANCH  14  15
HETATM   15  C   UNK N   1      31.618  16.622   7.891  0.00  0.00     0.136 C 
HETATM   16  C   UNK N   1      32.499  15.358   7.968  0.00  0.00     0.068 C 
HETATM   17  C   UNK N   1      33.923  15.577   7.397  0.00  0.00     0.225 C 
HETATM   18  C   UNK N   1      33.839  16.034   5.945  0.00  0.00     0.038 C 
HETATM   19  N   UNK N   1      34.589  16.697   8.062  0.00  0.00     0.093 N 
HETATM   20  C   UNK N   1      33.783  17.564   6.040  0.00  0.00     0.038 C 
HETATM   21  C   UNK N   1      33.852  17.846   7.537  0.00  0.00     0.225 C 
HETATM   22  C   UNK N   1      32.430  17.903   8.141  0.00  0.00     0.068 C 
HETATM   23  C   UNK N   1      34.592  16.608   9.525  0.00  0.00     0.310 C 
ENDBRANCH  14  15
ENDBRANCH   2  14
TORSDOF 3
ENDMDL
MODEL 2
REMARK VINA RESULT:      -6.8      3.122      4.882
REMARK  3 active torsions:
REMARK  status: ('A' for Active; 'I' for Inactive)
REMARK    1  A    between atoms: C_1  and  C_4 
REMARK    2  A    between atoms: C_4  and  O_6 
REMARK    3  A    between atoms: C_14  and  O_6 
ROOT
HETATM    1  O   UNK N   1      34.936  19.085   8.359  0.00  0.00    -0.259 OA
HETATM    2  C   UNK N   1      34.605  17.918   8.200  0.00  0.00     0.296 C 
ENDROOT
BRANCH   2   3
HETATM    3  C   UNK N   1      33.548  17.589   7.225  0.00  0.00     0.068 A 
HETATM    4  C   UNK N   1      32.194  17.559   7.463  0.00  0.00     0.026 A 
HETATM    5  C   UNK N   1      31.596  17.276   6.275  0.00  0.00     0.116 A 
HETATM    6  C   UNK N   1      31.443  17.789   8.611  0.00  0.00     0.018 A 
HETATM    7  N   UNK N   1      30.248  17.200   6.142  0.00  0.00    -0.352 N 
HETATM    8  N   UNK N   1      32.498  17.117   5.291  0.00  0.00    -0.351 N 
HETATM    9  C   UNK N   1      29.461  17.417   7.240  0.00  0.00     0.090 A 
ATOM     10  HN  UNK N   1      29.827  16.986   5.238  1.00  0.00     0.166 HD
HETATM   11  C   UNK N   1      30.044  17.715   8.494  0.00  0.00     0.018 A 
HETATM   12  C   UNK N   1      33.714  17.316   5.868  0.00  0.00     0.108 A 
HETATM   13  H   UNK N   1      32.317  16.901   4.348  0.00  0.00     0.166 HD
ENDBRANCH   2   3
BRANCH   2  14
HETATM   14  O   UNK N   1      35.280  16.918   8.831  0.00  0.00    -0.312 OA
BRANCH  14  15
HETATM   15  C   UNK N   1      34.914  16.442  10.080  0.00  0.00     0.136 C 
HETATM   16  C   UNK N   1      33.883  15.298   9.978  0.00  0.00     0.068 C 
HETATM   17  C   UNK N   1      34.542  13.903   9.816  0.00  0.00     0.225 C 
HETATM   18  C   UNK N   1      35.427  13.885   8.575  0.00  0.00     0.038 C 
HETATM   19  N   UNK N   1      35.484  13.638  10.902  0.00  0.00     0.093 N 
HETATM   20  C   UNK N   1      36.800  14.329   9.091  0.00  0.00     0.038 C 
HETATM   21  C   UNK N   1      36.582  14.551  10.584  0.00  0.00     0.225 C 
HETATM   22  C   UNK N   1      36.169  16.015  10.858  0.00  0.00     0.068 C 
HETATM   23  C   UNK N   1      34.921  13.826  12.243  0.00  0.00     0.310 C 
ENDBRANCH  14  15
ENDBRANCH   2  14
TORSDOF 3
ENDMDL
MODEL 3
REMARK VINA RESULT:      -6.7      4.018      8.590
REMARK  3 active torsions:
REMARK  status: ('A' for Active; 'I' for Inactive)
REMARK    1  A    between atoms: C_1  and  C_4 
REMARK    2  A    between atoms: C_4  and  O_6 
REMARK    3  A    between atoms: C_14  and  O_6 
ROOT
HETATM    1  O   UNK N   1      35.726  17.303  10.421  0.00  0.00    -0.259 OA
HETATM    2  C   UNK N   1      35.376  16.159  10.165  0.00  0.00     0.296 C 
ENDROOT
BRANCH   2   3
HETATM    3  C   UNK N   1      36.279  15.036  10.481  0.00  0.00     0.068 A 
HETATM    4  C   UNK N   1      36.322  14.324  11.657  0.00  0.00     0.026 A 
HETATM    5  C   UNK N   1      37.251  13.346  11.486  0.00  0.00     0.116 A 
HETATM    6  C   UNK N   1      35.601  14.435  12.841  0.00  0.00     0.018 A 
HETATM    7  N   UNK N   1      37.527  12.432  12.450  0.00  0.00    -0.352 N 
HETATM    8  N   UNK N   1      37.809  13.399  10.264  0.00  0.00    -0.351 N 
HETATM    9  C   UNK N   1      36.848  12.496  13.637  0.00  0.00     0.090 A 
ATOM     10  HN  UNK N   1      38.228  11.709  12.294  1.00  0.00     0.166 HD
HETATM   11  C   UNK N   1      35.873  13.498  13.853  0.00  0.00     0.018 A 
HETATM   12  C   UNK N   1      37.208  14.442   9.629  0.00  0.00     0.108 A 
HETATM   13  H   UNK N   1      38.507  12.807   9.904  0.00  0.00     0.166 HD
ENDBRANCH   2   3
BRANCH   2  14
HETATM   14  O   UNK N   1      34.123  15.910   9.695  0.00  0.00    -0.312 OA
BRANCH  14  15
HETATM   15  C   UNK N   1      33.889  15.358   8.445  0.00  0.00     0.136 C 
HETATM   16  C   UNK N   1      32.381  15.254   8.137  0.00  0.00     0.068 C 
HETATM   17  C   UNK N   1      31.804  16.544   7.498  0.00  0.00     0.225 C 
HETATM   18  C   UNK N   1      32.041  17.734   8.420  0.00  0.00     0.038 C 
HETATM   19  N   UNK N   1      32.543  16.906   6.288  0.00  0.00     0.093 N 
HETATM   20  C   UNK N   1      33.404  18.281   7.980  0.00  0.00     0.038 C 
HETATM   21  C   UNK N   1      33.820  17.362   6.836  0.00  0.00     0.225 C 
HETATM   22  C   UNK N   1      34.639  16.167   7.375  0.00  0.00     0.068 C 
HETATM   23  C   UNK N   1      32.666  15.818   5.314  0.00  0.00     0.310 C 
ENDBRANCH  14  15
ENDBRANCH   2  14
TORSDOF 3
ENDMDL
MODEL 4
REMARK VINA RESULT:      -6.7      3.982      8.427
REMARK  3 active torsions:
REMARK  status: ('A' for Active; 'I' for Inactive)
REMARK    1  A    between atoms: C_1  and  C_4 
REMARK    2  A    between atoms: C_4  and  O_6 
REMARK    3  A    between atoms: C_14  and  O_6 
ROOT
HETATM    1  O   UNK N   1      35.694  17.440  10.361  0.00  0.00    -0.259 OA
HETATM    2  C   UNK N   1      35.221  16.311  10.377  0.00  0.00     0.296 C 
ENDROOT
BRANCH   2   3
HETATM    3  C   UNK N   1      35.944  15.231  11.076  0.00  0.00     0.068 A 
HETATM    4  C   UNK N   1      36.788  14.308  10.507  0.00  0.00     0.026 A 
HETATM    5  C   UNK N   1      37.280  13.550  11.523  0.00  0.00     0.116 A 
HETATM    6  C   UNK N   1      37.188  14.096   9.192  0.00  0.00     0.018 A 
HETATM    7  N   UNK N   1      38.177  12.554  11.317  0.00  0.00    -0.352 N 
HETATM    8  N   UNK N   1      36.787  13.938  12.713  0.00  0.00    -0.351 N 
HETATM    9  C   UNK N   1      38.604  12.301  10.042  0.00  0.00     0.090 A 
ATOM     10  HN  UNK N   1      38.528  12.002  12.099  1.00  0.00     0.166 HD
HETATM   11  C   UNK N   1      38.117  13.067   8.956  0.00  0.00     0.018 A 
HETATM   12  C   UNK N   1      35.961  14.985  12.448  0.00  0.00     0.108 A 
HETATM   13  H   UNK N   1      36.984  13.544  13.593  0.00  0.00     0.166 HD
ENDBRANCH   2   3
BRANCH   2  14
HETATM   14  O   UNK N   1      33.987  16.074   9.854  0.00  0.00    -0.312 OA
BRANCH  14  15
HETATM   15  C   UNK N   1      33.802  15.433   8.638  0.00  0.00     0.136 C 
HETATM   16  C   UNK N   1      32.306  15.281   8.291  0.00  0.00     0.068 C 
HETATM   17  C   UNK N   1      31.730  16.513   7.548  0.00  0.00     0.225 C 
HETATM   18  C   UNK N   1      31.918  17.768   8.393  0.00  0.00     0.038 C 
HETATM   19  N   UNK N   1      32.501  16.806   6.340  0.00  0.00     0.093 N 
HETATM   20  C   UNK N   1      33.285  18.308   7.958  0.00  0.00     0.038 C 
HETATM   21  C   UNK N   1      33.753  17.320   6.893  0.00  0.00     0.225 C 
HETATM   22  C   UNK N   1      34.572  16.180   7.538  0.00  0.00     0.068 C 
HETATM   23  C   UNK N   1      32.671  15.656   5.446  0.00  0.00     0.310 C 
ENDBRANCH  14  15
ENDBRANCH   2  14
TORSDOF 3
ENDMDL
MODEL 5
REMARK VINA RESULT:      -6.6      9.146     11.469
REMARK  3 active torsions:
REMARK  status: ('A' for Active; 'I' for Inactive)
REMARK    1  A    between atoms: C_1  and  C_4 
REMARK    2  A    between atoms: C_4  and  O_6 
REMARK    3  A    between atoms: C_14  and  O_6 
ROOT
HETATM    1  O   UNK N   1      20.509  15.614   9.154  0.00  0.00    -0.259 OA
HETATM    2  C   UNK N   1      20.554  14.426   8.863  0.00  0.00     0.296 C 
ENDROOT
BRANCH   2   3
HETATM    3  C   UNK N   1      20.988  13.446   9.877  0.00  0.00     0.068 A 
HETATM    4  C   UNK N   1      22.277  13.037  10.123  0.00  0.00     0.026 A 
HETATM    5  C   UNK N   1      22.220  12.182  11.179  0.00  0.00     0.116 A 
HETATM    6  C   UNK N   1      23.490  13.370   9.531  0.00  0.00     0.018 A 
HETATM    7  N   UNK N   1      23.330  11.609  11.709  0.00  0.00    -0.352 N 
HETATM    8  N   UNK N   1      20.959  12.018  11.616  0.00  0.00    -0.351 N 
HETATM    9  C   UNK N   1      24.550  11.901  11.163  0.00  0.00     0.090 A 
ATOM     10  HN  UNK N   1      23.256  10.972  12.501  1.00  0.00     0.166 HD
HETATM   11  C   UNK N   1      24.653  12.787  10.065  0.00  0.00     0.018 A 
HETATM   12  C   UNK N   1      20.186  12.804  10.819  0.00  0.00     0.108 A 
HETATM   13  H   UNK N   1      20.659  11.447  12.360  0.00  0.00     0.166 HD
ENDBRANCH   2   3
BRANCH   2  14
HETATM   14  O   UNK N   1      20.102  13.996   7.654  0.00  0.00    -0.312 OA
BRANCH  14  15
HETATM   15  C   UNK N   1      20.942  13.458   6.690  0.00  0.00     0.136 C 
HETATM   16  C   UNK N   1      20.152  12.892   5.492  0.00  0.00     0.068 C 
HETATM   17  C   UNK N   1      19.852  13.958   4.407  0.00  0.00     0.225 C 
HETATM   18  C   UNK N   1      19.067  15.116   5.015  0.00  0.00     0.038 C 
HETATM   19  N   UNK N   1      21.084  14.597   3.943  0.00  0.00     0.093 N 
HETATM   20  C   UNK N   1      20.151  16.091   5.489  0.00  0.00     0.038 C 
HETATM   21  C   UNK N   1      21.459  15.411   5.099  0.00  0.00     0.225 C 
HETATM   22  C   UNK N   1      21.967  14.516   6.252  0.00  0.00     0.068 C 
HETATM   23  C   UNK N   1      22.121  13.654   3.514  0.00  0.00     0.310 C 
ENDBRANCH  14  15
ENDBRANCH   2  14
TORSDOF 3
ENDMDL
MODEL 6
REMARK VINA RESULT:      -6.6     13.418     15.738
REMARK  3 active torsions:
REMARK  status: ('A' for Active; 'I' for Inactive)
REMARK    1  A    between atoms: C_1  and  C_4 
REMARK    2  A    between atoms: C_4  and  O_6 
REMARK    3  A    between atoms: C_14  and  O_6 
ROOT
HETATM    1  O   UNK N   1      27.099  23.691  -2.389  0.00  0.00    -0.259 OA
HETATM    2  C   UNK N   1      27.085  24.294  -3.453  0.00  0.00     0.296 C 
ENDROOT
BRANCH   2   3
HETATM    3  C   UNK N   1      27.776  23.721  -4.623  0.00  0.00     0.068 A 
HETATM    4  C   UNK N   1      27.192  23.279  -5.787  0.00  0.00     0.026 A 
HETATM    5  C   UNK N   1      28.204  22.895  -6.610  0.00  0.00     0.116 A 
HETATM    6  C   UNK N   1      25.865  23.217  -6.198  0.00  0.00     0.018 A 
HETATM    7  N   UNK N   1      27.981  22.433  -7.866  0.00  0.00    -0.352 N 
HETATM    8  N   UNK N   1      29.405  23.062  -6.030  0.00  0.00    -0.351 N 
HETATM    9  C   UNK N   1      26.694  22.348  -8.321  0.00  0.00     0.090 A 
ATOM     10  HN  UNK N   1      28.760  22.152  -8.461  1.00  0.00     0.166 HD
HETATM   11  C   UNK N   1      25.613  22.739  -7.496  0.00  0.00     0.018 A 
HETATM   12  C   UNK N   1      29.153  23.581  -4.798  0.00  0.00     0.108 A 
HETATM   13  H   UNK N   1      30.286  22.853  -6.417  0.00  0.00     0.166 HD
ENDBRANCH   2   3
BRANCH   2  14
HETATM   14  O   UNK N   1      26.346  25.430  -3.591  0.00  0.00    -0.312 OA
BRANCH  14  15
HETATM   15  C   UNK N   1      26.847  26.688  -3.293  0.00  0.00     0.136 C 
HETATM   16  C   UNK N   1      27.991  27.091  -4.247  0.00  0.00     0.068 C 
HETATM   17  C   UNK N   1      27.485  27.775  -5.543  0.00  0.00     0.225 C 
HETATM   18  C   UNK N   1      26.527  26.848  -6.283  0.00  0.00     0.038 C 
HETATM   19  N   UNK N   1      26.652  28.938  -5.233  0.00  0.00     0.093 N 
HETATM   20  C   UNK N   1      25.149  27.205  -5.712  0.00  0.00     0.038 C 
HETATM   21  C   UNK N   1      25.440  28.313  -4.704  0.00  0.00     0.225 C 
HETATM   22  C   UNK N   1      25.703  27.714  -3.304  0.00  0.00     0.068 C 
HETATM   23  C   UNK N   1      27.279  29.895  -4.316  0.00  0.00     0.310 C 
ENDBRANCH  14  15
ENDBRANCH   2  14
TORSDOF 3
ENDMDL
MODEL 7
REMARK VINA RESULT:      -6.4     11.446     13.260
REMARK  3 active torsions:
REMARK  status: ('A' for Active; 'I' for Inactive)
REMARK    1  A    between atoms: C_1  and  C_4 
REMARK    2  A    between atoms: C_4  and  O_6 
REMARK    3  A    between atoms: C_14  and  O_6 
ROOT
HETATM    1  O   UNK N   1      27.340  23.635  -2.219  0.00  0.00    -0.259 OA
HETATM    2  C   UNK N   1      27.633  23.772  -3.399  0.00  0.00     0.296 C 
ENDROOT
BRANCH   2   3
HETATM    3  C   UNK N   1      26.665  24.397  -4.320  0.00  0.00     0.068 A 
HETATM    4  C   UNK N   1      26.212  25.694  -4.277  0.00  0.00     0.026 A 
HETATM    5  C   UNK N   1      25.388  25.855  -5.347  0.00  0.00     0.116 A 
HETATM    6  C   UNK N   1      26.481  26.748  -3.409  0.00  0.00     0.018 A 
HETATM    7  N   UNK N   1      24.787  27.039  -5.627  0.00  0.00    -0.352 N 
HETATM    8  N   UNK N   1      25.287  24.726  -6.068  0.00  0.00    -0.351 N 
HETATM    9  C   UNK N   1      25.016  28.109  -4.806  0.00  0.00     0.090 A 
ATOM     10  HN  UNK N   1      24.175  27.130  -6.438  1.00  0.00     0.166 HD
HETATM   11  C   UNK N   1      25.867  27.982  -3.682  0.00  0.00     0.018 A 
HETATM   12  C   UNK N   1      26.081  23.814  -5.443  0.00  0.00     0.108 A 
HETATM   13  H   UNK N   1      24.749  24.587  -6.881  0.00  0.00     0.166 HD
ENDBRANCH   2   3
BRANCH   2  14
HETATM   14  O   UNK N   1      28.880  23.453  -3.840  0.00  0.00    -0.312 OA
BRANCH  14  15
HETATM   15  C   UNK N   1      29.824  22.838  -3.032  0.00  0.00     0.136 C 
HETATM   16  C   UNK N   1      30.016  21.352  -3.402  0.00  0.00     0.068 C 
HETATM   17  C   UNK N   1      31.068  21.139  -4.521  0.00  0.00     0.225 C 
HETATM   18  C   UNK N   1      30.665  21.913  -5.771  0.00  0.00     0.038 C 
HETATM   19  N   UNK N   1      32.352  21.737  -4.156  0.00  0.00     0.093 N 
HETATM   20  C   UNK N   1      31.328  23.283  -5.589  0.00  0.00     0.038 C 
HETATM   21  C   UNK N   1      32.061  23.167  -4.257  0.00  0.00     0.225 C 
HETATM   22  C   UNK N   1      31.146  23.620  -3.096  0.00  0.00     0.068 C 
HETATM   23  C   UNK N   1      32.854  21.321  -2.843  0.00  0.00     0.310 C 
ENDBRANCH  14  15
ENDBRANCH   2  14
TORSDOF 3
ENDMDL
MODEL 8
REMARK VINA RESULT:      -6.4     11.799     15.215
REMARK  3 active torsions:
REMARK  status: ('A' for Active; 'I' for Inactive)
REMARK    1  A    between atoms: C_1  and  C_4 
REMARK    2  A    between atoms: C_4  and  O_6 
REMARK    3  A    between atoms: C_14  and  O_6 
ROOT
HETATM    1  O   UNK N   1      27.080  23.676  -2.325  0.00  0.00    -0.259 OA
HETATM    2  C   UNK N   1      27.334  24.237  -3.383  0.00  0.00     0.296 C 
ENDROOT
BRANCH   2   3
HETATM    3  C   UNK N   1      28.301  23.626  -4.315  0.00  0.00     0.068 A 
HETATM    4  C   UNK N   1      29.523  23.085  -3.992  0.00  0.00     0.026 A 
HETATM    5  C   UNK N   1      30.043  22.581  -5.143  0.00  0.00     0.116 A 
HETATM    6  C   UNK N   1      30.199  22.965  -2.782  0.00  0.00     0.018 A 
HETATM    7  N   UNK N   1      31.238  21.940  -5.179  0.00  0.00    -0.352 N 
HETATM    8  N   UNK N   1      29.219  22.778  -6.187  0.00  0.00    -0.351 N 
HETATM    9  C   UNK N   1      31.947  21.796  -4.017  0.00  0.00     0.090 A 
ATOM     10  HN  UNK N   1      31.603  21.572  -6.057  1.00  0.00     0.166 HD
HETATM   11  C   UNK N   1      31.440  22.305  -2.798  0.00  0.00     0.018 A 
HETATM   12  C   UNK N   1      28.131  23.421  -5.683  0.00  0.00     0.108 A 
HETATM   13  H   UNK N   1      29.372  22.512  -7.122  0.00  0.00     0.166 HD
ENDBRANCH   2   3
BRANCH   2  14
HETATM   14  O   UNK N   1      26.652  25.355  -3.750  0.00  0.00    -0.312 OA
BRANCH  14  15
HETATM   15  C   UNK N   1      27.101  26.634  -3.460  0.00  0.00     0.136 C 
HETATM   16  C   UNK N   1      28.105  27.144  -4.515  0.00  0.00     0.068 C 
HETATM   17  C   UNK N   1      27.417  27.832  -5.722  0.00  0.00     0.225 C 
HETATM   18  C   UNK N   1      26.444  26.866  -6.389  0.00  0.00     0.038 C 
HETATM   19  N   UNK N   1      26.552  28.926  -5.280  0.00  0.00     0.093 N 
HETATM   20  C   UNK N   1      25.118  27.111  -5.659  0.00  0.00     0.038 C 
HETATM   21  C   UNK N   1      25.447  28.205  -4.648  0.00  0.00     0.225 C 
HETATM   22  C   UNK N   1      25.900  27.581  -3.308  0.00  0.00     0.068 C 
HETATM   23  C   UNK N   1      27.214  29.893  -4.400  0.00  0.00     0.310 C 
ENDBRANCH  14  15
ENDBRANCH   2  14
TORSDOF 3
ENDMDL
MODEL 9
REMARK VINA RESULT:      -6.3     10.053     12.761
REMARK  3 active torsions:
REMARK  status: ('A' for Active; 'I' for Inactive)
REMARK    1  A    between atoms: C_1  and  C_4 
REMARK    2  A    between atoms: C_4  and  O_6 
REMARK    3  A    between atoms: C_14  and  O_6 
ROOT
HETATM    1  O   UNK N   1      37.015  14.239  15.557  0.00  0.00    -0.259 OA
HETATM    2  C   UNK N   1      36.109  13.473  15.859  0.00  0.00     0.296 C 
ENDROOT
BRANCH   2   3
HETATM    3  C   UNK N   1      35.639  13.420  17.256  0.00  0.00     0.068 A 
HETATM    4  C   UNK N   1      35.497  12.295  18.032  0.00  0.00     0.026 A 
HETATM    5  C   UNK N   1      35.103  12.717  19.263  0.00  0.00     0.116 A 
HETATM    6  C   UNK N   1      35.713  10.947  17.768  0.00  0.00     0.018 A 
HETATM    7  N   UNK N   1      34.898  11.858  20.293  0.00  0.00    -0.352 N 
HETATM    8  N   UNK N   1      34.979  14.055  19.312  0.00  0.00    -0.351 N 
HETATM    9  C   UNK N   1      35.095  10.519  20.088  0.00  0.00     0.090 A 
ATOM     10  HN  UNK N   1      34.603  12.204  21.206  1.00  0.00     0.166 HD
HETATM   11  C   UNK N   1      35.505  10.040  18.822  0.00  0.00     0.018 A 
HETATM   12  C   UNK N   1      35.316  14.503  18.073  0.00  0.00     0.108 A 
HETATM   13  H   UNK N   1      34.703  14.598  20.086  0.00  0.00     0.166 HD
ENDBRANCH   2   3
BRANCH   2  14
HETATM   14  O   UNK N   1      35.465  12.756  14.899  0.00  0.00    -0.312 OA
BRANCH  14  15
HETATM   15  C   UNK N   1      36.049  12.442  13.681  0.00  0.00     0.136 C 
HETATM   16  C   UNK N   1      36.924  11.174  13.774  0.00  0.00     0.068 C 
HETATM   17  C   UNK N   1      36.122   9.867  13.545  0.00  0.00     0.225 C 
HETATM   18  C   UNK N   1      34.990   9.764  14.561  0.00  0.00     0.038 C 
HETATM   19  N   UNK N   1      35.418   9.901  12.263  0.00  0.00     0.093 N 
HETATM   20  C   UNK N   1      33.808  10.457  13.873  0.00  0.00     0.038 C 
HETATM   21  C   UNK N   1      34.366  10.884  12.519  0.00  0.00     0.225 C 
HETATM   22  C   UNK N   1      34.960  12.308  12.605  0.00  0.00     0.068 C 
HETATM   23  C   UNK N   1      36.274  10.228  11.119  0.00  0.00     0.310 C 
ENDBRANCH  14  15
ENDBRANCH   2  14
TORSDOF 3
ENDMDL
