MODEL 1
REMARK VINA RESULT:      -8.1      0.000      0.000
REMARK  6 active torsions:
REMARK  status: ('A' for Active; 'I' for Inactive)
REMARK    1  A    between atoms: C_1  and  N_9 
REMARK       I    between atoms: C_4  and  N_10 
REMARK    2  A    between atoms: C_7  and  C_11 
REMARK    3  A    between atoms: C_8  and  C_15 
REMARK    4  A    between atoms: C_18  and  N_19 
REMARK    5  A    between atoms: N_19  and  C_27 
REMARK    6  A    between atoms: C_22  and  C_27 
ROOT
HETATM    1  C   UNK N   1      21.779  16.396   6.665  0.00  0.00     0.030 A 
HETATM    2  C   UNK N   1      21.703  17.539   5.864  0.00  0.00     0.014 A 
HETATM    3  C   UNK N   1      22.002  17.477   4.488  0.00  0.00    -0.020 A 
HETATM    4  C   UNK N   1      22.463  16.257   3.979  0.00  0.00     0.014 A 
HETATM    5  C   UNK N   1      22.525  15.119   4.761  0.00  0.00     0.030 A 
HETATM    6  C   UNK N   1      22.134  15.170   6.088  0.00  0.00     0.028 A 
ENDROOT
BRANCH   3   7
HETATM    7  C   UNK N   1      21.522  18.547   3.536  0.00  0.00     0.041 A 
HETATM    8  C   UNK N   1      20.239  18.476   2.918  0.00  0.00     0.127 A 
HETATM    9  N   UNK N   1      19.923  19.319   1.910  0.00  0.00    -0.176 N 
HETATM   10  C   UNK N   1      20.792  20.257   1.463  0.00  0.00     0.677 A 
ATOM     11  HN  UNK N   1      19.004  19.246   1.473  1.00  0.00     0.186 HD
HETATM   12  N   UNK N   1      21.993  20.404   2.071  0.00  0.00    -0.195 N 
HETATM   13  N   UNK N   1      20.463  21.055   0.357  0.00  0.00    -0.234 N 
HETATM   14  C   UNK N   1      22.383  19.603   3.089  0.00  0.00     0.041 A 
ATOM     15  HN  UNK N   1      22.623  21.140   1.752  1.00  0.00     0.184 HD
HETATM   16  H   UNK N   1      21.129  21.667  -0.029  0.00  0.00     0.174 HD
HETATM   17  H   UNK N   1      19.561  21.002  -0.035  0.00  0.00     0.174 HD
BRANCH   8  18
HETATM   18  N   UNK N   1      19.287  17.504   3.298  0.00  0.00    -0.384 N 
HETATM   19  H   UNK N   1      19.434  16.556   3.079  0.00  0.00     0.157 HD
HETATM   20  H   UNK N   1      18.473  17.775   3.782  0.00  0.00     0.157 HD
ENDBRANCH   8  18
BRANCH  14  21
HETATM   21  C   UNK N   1      23.741  19.858   3.673  0.00  0.00     0.054 C 
HETATM   22  C   UNK N   1      24.623  20.603   2.689  0.00  0.00     0.011 C 
ENDBRANCH  14  21
ENDBRANCH   3   7
BRANCH   6  23
HETATM   23  N   UNK N   1      22.041  13.958   6.798  0.00  0.00    -0.386 N 
HETATM   24  H   UNK N   1      22.703  13.254   6.615  0.00  0.00     0.160 HD
BRANCH  23  25
HETATM   25  C   UNK N   1      21.022  13.706   7.776  0.00  0.00     0.158 C 
BRANCH  25  26
HETATM   26  C   UNK N   1      21.705  13.238   9.014  0.00  0.00    -0.035 A 
HETATM   27  C   UNK N   1      23.093  13.124   9.038  0.00  0.00     0.051 A 
HETATM   28  C   UNK N   1      23.727  12.603  10.170  0.00  0.00     0.119 A 
HETATM   29  C   UNK N   1      22.970  12.183  11.270  0.00  0.00     0.084 A 
HETATM   30  F   UNK N   1      25.074  12.489  10.192  0.00  0.00    -0.206 F 
HETATM   31  C   UNK N   1      21.578  12.294  11.245  0.00  0.00     0.119 A 
HETATM   32  C   UNK N   1      20.950  12.819  10.122  0.00  0.00     0.051 A 
HETATM   33  F   UNK N   1      20.834  11.874  12.295  0.00  0.00    -0.206 F 
ENDBRANCH  25  26
ENDBRANCH  23  25
ENDBRANCH   6  23
TORSDOF 6
ENDMDL
MODEL 2
REMARK VINA RESULT:      -8.0      0.945      2.721
REMARK  6 active torsions:
REMARK  status: ('A' for Active; 'I' for Inactive)
REMARK    1  A    between atoms: C_1  and  N_9 
REMARK       I    between atoms: C_4  and  N_10 
REMARK    2  A    between atoms: C_7  and  C_11 
REMARK    3  A    between atoms: C_8  and  C_15 
REMARK    4  A    between atoms: C_18  and  N_19 
REMARK    5  A    between atoms: N_19  and  C_27 
REMARK    6  A    between atoms: C_22  and  C_27 
ROOT
HETATM    1  C   UNK N   1      21.513  17.070   6.819  0.00  0.00     0.030 A 
HETATM    2  C   UNK N   1      21.448  18.045   5.819  0.00  0.00     0.014 A 
HETATM    3  C   UNK N   1      22.163  17.893   4.615  0.00  0.00    -0.020 A 
HETATM    4  C   UNK N   1      23.007  16.781   4.497  0.00  0.00     0.014 A 
HETATM    5  C   UNK N   1      23.064  15.805   5.474  0.00  0.00     0.030 A 
HETATM    6  C   UNK N   1      22.280  15.917   6.611  0.00  0.00     0.028 A 
ENDROOT
BRANCH   3   7
HETATM    7  C   UNK N   1      21.785  18.674   3.378  0.00  0.00     0.041 A 
HETATM    8  C   UNK N   1      22.526  19.820   2.964  0.00  0.00     0.127 A 
HETATM    9  N   UNK N   1      22.043  20.626   1.992  0.00  0.00    -0.176 N 
HETATM   10  C   UNK N   1      20.864  20.374   1.375  0.00  0.00     0.677 A 
ATOM     11  HN  UNK N   1      22.582  21.447   1.716  1.00  0.00     0.186 HD
HETATM   12  N   UNK N   1      20.165  19.258   1.690  0.00  0.00    -0.195 N 
HETATM   13  N   UNK N   1      20.352  21.280   0.434  0.00  0.00    -0.234 N 
HETATM   14  C   UNK N   1      20.582  18.399   2.648  0.00  0.00     0.041 A 
ATOM     15  HN  UNK N   1      19.299  19.058   1.189  1.00  0.00     0.184 HD
HETATM   16  H   UNK N   1      19.452  21.149   0.058  0.00  0.00     0.174 HD
HETATM   17  H   UNK N   1      20.896  22.050   0.148  0.00  0.00     0.174 HD
BRANCH   8  18
HETATM   18  N   UNK N   1      23.746  20.176   3.580  0.00  0.00    -0.384 N 
HETATM   19  H   UNK N   1      23.747  20.741   4.385  0.00  0.00     0.157 HD
HETATM   20  H   UNK N   1      24.599  19.859   3.202  0.00  0.00     0.157 HD
ENDBRANCH   8  18
BRANCH  14  21
HETATM   21  C   UNK N   1      19.717  17.203   2.913  0.00  0.00     0.054 C 
HETATM   22  C   UNK N   1      20.175  16.011   2.095  0.00  0.00     0.011 C 
ENDBRANCH  14  21
ENDBRANCH   3   7
BRANCH   6  23
HETATM   23  N   UNK N   1      22.232  14.821   7.492  0.00  0.00    -0.386 N 
HETATM   24  H   UNK N   1      22.988  14.192   7.503  0.00  0.00     0.160 HD
BRANCH  23  25
HETATM   25  C   UNK N   1      21.127  14.581   8.375  0.00  0.00     0.158 C 
BRANCH  25  26
HETATM   26  C   UNK N   1      21.593  13.621   9.413  0.00  0.00    -0.035 A 
HETATM   27  C   UNK N   1      20.679  13.080  10.316  0.00  0.00     0.051 A 
HETATM   28  C   UNK N   1      21.130  12.247  11.344  0.00  0.00     0.119 A 
HETATM   29  C   UNK N   1      22.495  11.968  11.477  0.00  0.00     0.084 A 
HETATM   30  F   UNK N   1      20.244  11.725  12.222  0.00  0.00    -0.206 F 
HETATM   31  C   UNK N   1      23.411  12.512  10.574  0.00  0.00     0.119 A 
HETATM   32  C   UNK N   1      22.961  13.334   9.549  0.00  0.00     0.051 A 
HETATM   33  F   UNK N   1      24.737  12.265  10.703  0.00  0.00    -0.206 F 
ENDBRANCH  25  26
ENDBRANCH  23  25
ENDBRANCH   6  23
TORSDOF 6
ENDMDL
MODEL 3
REMARK VINA RESULT:      -7.9      1.725      3.066
REMARK  6 active torsions:
REMARK  status: ('A' for Active; 'I' for Inactive)
REMARK    1  A    between atoms: C_1  and  N_9 
REMARK       I    between atoms: C_4  and  N_10 
REMARK    2  A    between atoms: C_7  and  C_11 
REMARK    3  A    between atoms: C_8  and  C_15 
REMARK    4  A    between atoms: C_18  and  N_19 
REMARK    5  A    between atoms: N_19  and  C_27 
REMARK    6  A    between atoms: C_22  and  C_27 
ROOT
HETATM    1  C   UNK N   1      21.603  14.847   5.381  0.00  0.00     0.030 A 
HETATM    2  C   UNK N   1      21.651  15.633   4.227  0.00  0.00     0.014 A 
HETATM    3  C   UNK N   1      20.544  16.413   3.838  0.00  0.00    -0.020 A 
HETATM    4  C   UNK N   1      19.372  16.300   4.596  0.00  0.00     0.014 A 
HETATM    5  C   UNK N   1      19.322  15.538   5.749  0.00  0.00     0.030 A 
HETATM    6  C   UNK N   1      20.449  14.854   6.174  0.00  0.00     0.028 A 
ENDROOT
BRANCH   3   7
HETATM    7  C   UNK N   1      20.702  17.572   2.882  0.00  0.00     0.041 A 
HETATM    8  C   UNK N   1      21.053  18.876   3.341  0.00  0.00     0.127 A 
HETATM    9  N   UNK N   1      20.972  19.935   2.505  0.00  0.00    -0.176 N 
HETATM   10  C   UNK N   1      20.575  19.800   1.217  0.00  0.00     0.677 A 
ATOM     11  HN  UNK N   1      21.218  20.862   2.854  1.00  0.00     0.186 HD
HETATM   12  N   UNK N   1      20.301  18.569   0.723  0.00  0.00    -0.195 N 
HETATM   13  N   UNK N   1      20.418  20.933   0.405  0.00  0.00    -0.234 N 
HETATM   14  C   UNK N   1      20.362  17.459   1.493  0.00  0.00     0.041 A 
ATOM     15  HN  UNK N   1      20.042  18.477  -0.259  1.00  0.00     0.184 HD
HETATM   16  H   UNK N   1      20.036  20.847  -0.498  0.00  0.00     0.174 HD
HETATM   17  H   UNK N   1      20.691  21.819   0.739  0.00  0.00     0.174 HD
BRANCH   8  18
HETATM   18  N   UNK N   1      21.443  19.110   4.678  0.00  0.00    -0.384 N 
HETATM   19  H   UNK N   1      22.230  18.654   5.051  0.00  0.00     0.157 HD
HETATM   20  H   UNK N   1      20.924  19.732   5.239  0.00  0.00     0.157 HD
ENDBRANCH   8  18
BRANCH  14  21
HETATM   21  C   UNK N   1      20.027  16.154   0.834  0.00  0.00     0.054 C 
HETATM   22  C   UNK N   1      18.977  16.346  -0.243  0.00  0.00     0.011 C 
ENDBRANCH  14  21
ENDBRANCH   3   7
BRANCH   6  23
HETATM   23  N   UNK N   1      20.411  14.239   7.440  0.00  0.00    -0.386 N 
HETATM   24  H   UNK N   1      20.057  13.324   7.508  0.00  0.00     0.160 HD
BRANCH  23  25
HETATM   25  C   UNK N   1      20.866  14.890   8.635  0.00  0.00     0.158 C 
BRANCH  25  26
HETATM   26  C   UNK N   1      21.352  13.828   9.558  0.00  0.00    -0.035 A 
HETATM   27  C   UNK N   1      20.456  13.191  10.414  0.00  0.00     0.051 A 
HETATM   28  C   UNK N   1      20.927  12.256  11.341  0.00  0.00     0.119 A 
HETATM   29  C   UNK N   1      22.295  11.971  11.420  0.00  0.00     0.084 A 
HETATM   30  F   UNK N   1      20.058  11.641  12.174  0.00  0.00    -0.206 F 
HETATM   31  C   UNK N   1      23.194  12.612  10.564  0.00  0.00     0.119 A 
HETATM   32  C   UNK N   1      22.723  13.535   9.639  0.00  0.00     0.051 A 
HETATM   33  F   UNK N   1      24.522  12.358  10.644  0.00  0.00    -0.206 F 
ENDBRANCH  25  26
ENDBRANCH  23  25
ENDBRANCH   6  23
TORSDOF 6
ENDMDL
MODEL 4
REMARK VINA RESULT:      -7.8     15.950     18.042
REMARK  6 active torsions:
REMARK  status: ('A' for Active; 'I' for Inactive)
REMARK    1  A    between atoms: C_1  and  N_9 
REMARK       I    between atoms: C_4  and  N_10 
REMARK    2  A    between atoms: C_7  and  C_11 
REMARK    3  A    between atoms: C_8  and  C_15 
REMARK    4  A    between atoms: C_18  and  N_19 
REMARK    5  A    between atoms: N_19  and  C_27 
REMARK    6  A    between atoms: C_22  and  C_27 
ROOT
HETATM    1  C   UNK N   1      36.568  10.159  16.925  0.00  0.00     0.030 A 
HETATM    2  C   UNK N   1      36.343  10.871  15.743  0.00  0.00     0.014 A 
HETATM    3  C   UNK N   1      35.580  12.055  15.748  0.00  0.00    -0.020 A 
HETATM    4  C   UNK N   1      34.984  12.438  16.955  0.00  0.00     0.014 A 
HETATM    5  C   UNK N   1      35.215  11.750  18.131  0.00  0.00     0.030 A 
HETATM    6  C   UNK N   1      36.048  10.643  18.132  0.00  0.00     0.028 A 
ENDROOT
BRANCH   3   7
HETATM    7  C   UNK N   1      35.680  13.053  14.618  0.00  0.00     0.041 A 
HETATM    8  C   UNK N   1      35.067  12.812  13.353  0.00  0.00     0.127 A 
HETATM    9  N   UNK N   1      35.355  13.607  12.298  0.00  0.00    -0.176 N 
HETATM   10  C   UNK N   1      36.210  14.652  12.401  0.00  0.00     0.677 A 
ATOM     11  HN  UNK N   1      34.914  13.414  11.397  1.00  0.00     0.186 HD
HETATM   12  N   UNK N   1      36.758  14.956  13.601  0.00  0.00    -0.195 N 
HETATM   13  N   UNK N   1      36.552  15.400  11.264  0.00  0.00    -0.234 N 
HETATM   14  C   UNK N   1      36.518  14.213  14.706  0.00  0.00     0.041 A 
ATOM     15  HN  UNK N   1      37.369  15.770  13.675  1.00  0.00     0.184 HD
HETATM   16  H   UNK N   1      37.246  16.095  11.318  0.00  0.00     0.174 HD
HETATM   17  H   UNK N   1      36.095  15.228  10.408  0.00  0.00     0.174 HD
BRANCH   8  18
HETATM   18  N   UNK N   1      34.192  11.723  13.148  0.00  0.00    -0.384 N 
HETATM   19  H   UNK N   1      34.157  11.275  12.273  0.00  0.00     0.157 HD
HETATM   20  H   UNK N   1      33.614  11.412  13.883  0.00  0.00     0.157 HD
ENDBRANCH   8  18
BRANCH  14  21
HETATM   21  C   UNK N   1      37.191  14.646  15.975  0.00  0.00     0.054 C 
HETATM   22  C   UNK N   1      37.488  16.132  15.952  0.00  0.00     0.011 C 
ENDBRANCH  14  21
ENDBRANCH   3   7
BRANCH   6  23
HETATM   23  N   UNK N   1      36.400  10.081  19.374  0.00  0.00    -0.386 N 
HETATM   24  H   UNK N   1      37.055  10.553  19.936  0.00  0.00     0.160 HD
BRANCH  23  25
HETATM   25  C   UNK N   1      35.845   8.848  19.854  0.00  0.00     0.158 C 
BRANCH  25  26
HETATM   26  C   UNK N   1      34.460   9.138  20.316  0.00  0.00    -0.035 A 
HETATM   27  C   UNK N   1      34.255   9.990  21.399  0.00  0.00     0.051 A 
HETATM   28  C   UNK N   1      32.961  10.193  21.887  0.00  0.00     0.119 A 
HETATM   29  C   UNK N   1      31.875   9.533  21.300  0.00  0.00     0.084 A 
HETATM   30  F   UNK N   1      32.762  11.017  22.941  0.00  0.00    -0.206 F 
HETATM   31  C   UNK N   1      32.080   8.677  20.216  0.00  0.00     0.119 A 
HETATM   32  C   UNK N   1      33.366   8.481  19.728  0.00  0.00     0.051 A 
HETATM   33  F   UNK N   1      31.040   8.018  19.651  0.00  0.00    -0.206 F 
ENDBRANCH  25  26
ENDBRANCH  23  25
ENDBRANCH   6  23
TORSDOF 6
ENDMDL
MODEL 5
REMARK VINA RESULT:      -7.8     15.964     18.088
REMARK  6 active torsions:
REMARK  status: ('A' for Active; 'I' for Inactive)
REMARK    1  A    between atoms: C_1  and  N_9 
REMARK       I    between atoms: C_4  and  N_10 
REMARK    2  A    between atoms: C_7  and  C_11 
REMARK    3  A    between atoms: C_8  and  C_15 
REMARK    4  A    between atoms: C_18  and  N_19 
REMARK    5  A    between atoms: N_19  and  C_27 
REMARK    6  A    between atoms: C_22  and  C_27 
ROOT
HETATM    1  C   UNK N   1      36.582  10.144  16.976  0.00  0.00     0.030 A 
HETATM    2  C   UNK N   1      36.354  10.849  15.791  0.00  0.00     0.014 A 
HETATM    3  C   UNK N   1      35.580  12.027  15.788  0.00  0.00    -0.020 A 
HETATM    4  C   UNK N   1      34.977  12.410  16.992  0.00  0.00     0.014 A 
HETATM    5  C   UNK N   1      35.211  11.728  18.172  0.00  0.00     0.030 A 
HETATM    6  C   UNK N   1      36.054  10.629  18.180  0.00  0.00     0.028 A 
ENDROOT
BRANCH   3   7
HETATM    7  C   UNK N   1      35.676  13.021  14.654  0.00  0.00     0.041 A 
HETATM    8  C   UNK N   1      35.060  12.774  13.392  0.00  0.00     0.127 A 
HETATM    9  N   UNK N   1      35.343  13.566  12.333  0.00  0.00    -0.176 N 
HETATM   10  C   UNK N   1      36.196  14.614  12.431  0.00  0.00     0.677 A 
ATOM     11  HN  UNK N   1      34.902  13.368  11.434  1.00  0.00     0.186 HD
HETATM   12  N   UNK N   1      36.745  14.924  13.629  0.00  0.00    -0.195 N 
HETATM   13  N   UNK N   1      36.533  15.359  11.291  0.00  0.00    -0.234 N 
HETATM   14  C   UNK N   1      36.510  14.184  14.737  0.00  0.00     0.041 A 
ATOM     15  HN  UNK N   1      37.354  15.739  13.699  1.00  0.00     0.184 HD
HETATM   16  H   UNK N   1      37.225  16.056  11.341  0.00  0.00     0.174 HD
HETATM   17  H   UNK N   1      36.075  15.182  10.436  0.00  0.00     0.174 HD
BRANCH   8  18
HETATM   18  N   UNK N   1      34.188  11.682  13.193  0.00  0.00    -0.384 N 
HETATM   19  H   UNK N   1      33.573  11.673  12.425  0.00  0.00     0.157 HD
HETATM   20  H   UNK N   1      34.194  10.926  13.825  0.00  0.00     0.157 HD
ENDBRANCH   8  18
BRANCH  14  21
HETATM   21  C   UNK N   1      37.184  14.623  16.003  0.00  0.00     0.054 C 
HETATM   22  C   UNK N   1      37.482  16.109  15.971  0.00  0.00     0.011 C 
ENDBRANCH  14  21
ENDBRANCH   3   7
BRANCH   6  23
HETATM   23  N   UNK N   1      36.407  10.074  19.424  0.00  0.00    -0.386 N 
HETATM   24  H   UNK N   1      37.019  10.578  20.008  0.00  0.00     0.160 HD
BRANCH  23  25
HETATM   25  C   UNK N   1      35.914   8.806  19.878  0.00  0.00     0.158 C 
BRANCH  25  26
HETATM   26  C   UNK N   1      34.539   9.030  20.404  0.00  0.00    -0.035 A 
HETATM   27  C   UNK N   1      33.452   8.417  19.783  0.00  0.00     0.051 A 
HETATM   28  C   UNK N   1      32.155   8.696  20.222  0.00  0.00     0.119 A 
HETATM   29  C   UNK N   1      31.944   9.598  21.271  0.00  0.00     0.084 A 
HETATM   30  F   UNK N   1      31.100   8.104  19.617  0.00  0.00    -0.206 F 
HETATM   31  C   UNK N   1      33.033  10.215  21.891  0.00  0.00     0.119 A 
HETATM   32  C   UNK N   1      34.323   9.931  21.459  0.00  0.00     0.051 A 
HETATM   33  F   UNK N   1      32.842  11.104  22.895  0.00  0.00    -0.206 F 
ENDBRANCH  25  26
ENDBRANCH  23  25
ENDBRANCH   6  23
TORSDOF 6
ENDMDL
MODEL 6
REMARK VINA RESULT:      -7.7      9.539     12.192
REMARK  6 active torsions:
REMARK  status: ('A' for Active; 'I' for Inactive)
REMARK    1  A    between atoms: C_1  and  N_9 
REMARK       I    between atoms: C_4  and  N_10 
REMARK    2  A    between atoms: C_7  and  C_11 
REMARK    3  A    between atoms: C_8  and  C_15 
REMARK    4  A    between atoms: C_18  and  N_19 
REMARK    5  A    between atoms: N_19  and  C_27 
REMARK    6  A    between atoms: C_22  and  C_27 
ROOT
HETATM    1  C   UNK N   1      31.024  15.695   5.113  0.00  0.00     0.030 A 
HETATM    2  C   UNK N   1      32.026  15.472   6.061  0.00  0.00     0.014 A 
HETATM    3  C   UNK N   1      33.115  16.358   6.184  0.00  0.00    -0.020 A 
HETATM    4  C   UNK N   1      33.200  17.412   5.266  0.00  0.00     0.014 A 
HETATM    5  C   UNK N   1      32.204  17.650   4.337  0.00  0.00     0.030 A 
HETATM    6  C   UNK N   1      31.090  16.828   4.292  0.00  0.00     0.028 A 
ENDROOT
BRANCH   3   7
HETATM    7  C   UNK N   1      33.953  16.396   7.441  0.00  0.00     0.041 A 
HETATM    8  C   UNK N   1      34.982  15.438   7.680  0.00  0.00     0.127 A 
HETATM    9  N   UNK N   1      35.563  15.357   8.899  0.00  0.00    -0.176 N 
HETATM   10  C   UNK N   1      35.206  16.176   9.917  0.00  0.00     0.677 A 
ATOM     11  HN  UNK N   1      36.290  14.659   9.055  1.00  0.00     0.186 HD
HETATM   12  N   UNK N   1      34.284  17.145   9.709  0.00  0.00    -0.195 N 
HETATM   13  N   UNK N   1      35.768  16.004  11.191  0.00  0.00    -0.234 N 
HETATM   14  C   UNK N   1      33.659  17.295   8.518  0.00  0.00     0.041 A 
ATOM     15  HN  UNK N   1      34.054  17.782  10.472  1.00  0.00     0.184 HD
HETATM   16  H   UNK N   1      35.440  16.532  11.953  0.00  0.00     0.174 HD
HETATM   17  H   UNK N   1      36.494  15.351  11.323  0.00  0.00     0.174 HD
BRANCH   8  18
HETATM   18  N   UNK N   1      35.388  14.521   6.686  0.00  0.00    -0.384 N 
HETATM   19  H   UNK N   1      34.717  14.077   6.120  0.00  0.00     0.157 HD
HETATM   20  H   UNK N   1      36.345  14.326   6.559  0.00  0.00     0.157 HD
ENDBRANCH   8  18
BRANCH  14  21
HETATM   21  C   UNK N   1      32.650  18.399   8.414  0.00  0.00     0.054 C 
HETATM   22  C   UNK N   1      31.260  17.897   8.755  0.00  0.00     0.011 C 
ENDBRANCH  14  21
ENDBRANCH   3   7
BRANCH   6  23
HETATM   23  N   UNK N   1      30.021  17.208   3.459  0.00  0.00    -0.386 N 
HETATM   24  H   UNK N   1      30.226  17.603   2.582  0.00  0.00     0.160 HD
BRANCH  23  25
HETATM   25  C   UNK N   1      28.646  17.044   3.835  0.00  0.00     0.158 C 
BRANCH  25  26
HETATM   26  C   UNK N   1      28.336  18.098   4.840  0.00  0.00    -0.035 A 
HETATM   27  C   UNK N   1      28.388  17.795   6.199  0.00  0.00     0.051 A 
HETATM   28  C   UNK N   1      28.013  18.759   7.139  0.00  0.00     0.119 A 
HETATM   29  C   UNK N   1      27.572  20.019   6.719  0.00  0.00     0.084 A 
HETATM   30  F   UNK N   1      28.059  18.464   8.458  0.00  0.00    -0.206 F 
HETATM   31  C   UNK N   1      27.517  20.322   5.357  0.00  0.00     0.119 A 
HETATM   32  C   UNK N   1      27.897  19.366   4.424  0.00  0.00     0.051 A 
HETATM   33  F   UNK N   1      27.075  21.531   4.937  0.00  0.00    -0.206 F 
ENDBRANCH  25  26
ENDBRANCH  23  25
ENDBRANCH   6  23
TORSDOF 6
ENDMDL
MODEL 7
REMARK VINA RESULT:      -7.6     11.421     13.235
REMARK  6 active torsions:
REMARK  status: ('A' for Active; 'I' for Inactive)
REMARK    1  A    between atoms: C_1  and  N_9 
REMARK       I    between atoms: C_4  and  N_10 
REMARK    2  A    between atoms: C_7  and  C_11 
REMARK    3  A    between atoms: C_8  and  C_15 
REMARK    4  A    between atoms: C_18  and  N_19 
REMARK    5  A    between atoms: N_19  and  C_27 
REMARK    6  A    between atoms: C_22  and  C_27 
ROOT
HETATM    1  C   UNK N   1      34.190  14.557  10.762  0.00  0.00     0.030 A 
HETATM    2  C   UNK N   1      33.360  14.928   9.700  0.00  0.00     0.014 A 
HETATM    3  C   UNK N   1      33.544  16.157   9.036  0.00  0.00    -0.020 A 
HETATM    4  C   UNK N   1      34.523  17.025   9.536  0.00  0.00     0.014 A 
HETATM    5  C   UNK N   1      35.358  16.658  10.575  0.00  0.00     0.030 A 
HETATM    6  C   UNK N   1      35.232  15.406  11.154  0.00  0.00     0.028 A 
ENDROOT
BRANCH   3   7
HETATM    7  C   UNK N   1      32.978  16.391   7.654  0.00  0.00     0.041 A 
HETATM    8  C   UNK N   1      33.778  16.232   6.484  0.00  0.00     0.127 A 
HETATM    9  N   UNK N   1      33.319  16.657   5.286  0.00  0.00    -0.176 N 
HETATM   10  C   UNK N   1      32.098  17.228   5.150  0.00  0.00     0.677 A 
ATOM     11  HN  UNK N   1      33.909  16.545   4.461  1.00  0.00     0.186 HD
HETATM   12  N   UNK N   1      31.281  17.332   6.224  0.00  0.00    -0.195 N 
HETATM   13  N   UNK N   1      31.692  17.737   3.907  0.00  0.00    -0.234 N 
HETATM   14  C   UNK N   1      31.663  16.927   7.456  0.00  0.00     0.041 A 
ATOM     15  HN  UNK N   1      30.348  17.727   6.100  1.00  0.00     0.184 HD
HETATM   16  H   UNK N   1      30.849  18.238   3.828  0.00  0.00     0.174 HD
HETATM   17  H   UNK N   1      32.253  17.592   3.110  0.00  0.00     0.174 HD
BRANCH   8  18
HETATM   18  N   UNK N   1      35.077  15.680   6.543  0.00  0.00    -0.384 N 
HETATM   19  H   UNK N   1      35.735  16.033   7.183  0.00  0.00     0.157 HD
HETATM   20  H   UNK N   1      35.325  14.941   5.941  0.00  0.00     0.157 HD
ENDBRANCH   8  18
BRANCH  14  21
HETATM   21  C   UNK N   1      30.673  17.103   8.569  0.00  0.00     0.054 C 
HETATM   22  C   UNK N   1      30.535  18.566   8.945  0.00  0.00     0.011 C 
ENDBRANCH  14  21
ENDBRANCH   3   7
BRANCH   6  23
HETATM   23  N   UNK N   1      36.212  15.005  12.081  0.00  0.00    -0.386 N 
HETATM   24  H   UNK N   1      36.658  15.694  12.623  0.00  0.00     0.160 HD
BRANCH  23  25
HETATM   25  C   UNK N   1      36.588  13.633  12.269  0.00  0.00     0.158 C 
BRANCH  25  26
HETATM   26  C   UNK N   1      35.955  13.172  13.535  0.00  0.00    -0.035 A 
HETATM   27  C   UNK N   1      34.949  12.208  13.495  0.00  0.00     0.051 A 
HETATM   28  C   UNK N   1      34.295  11.839  14.674  0.00  0.00     0.119 A 
HETATM   29  C   UNK N   1      34.638  12.444  15.889  0.00  0.00     0.084 A 
HETATM   30  F   UNK N   1      33.317  10.907  14.636  0.00  0.00    -0.206 F 
HETATM   31  C   UNK N   1      35.644  13.412  15.929  0.00  0.00     0.119 A 
HETATM   32  C   UNK N   1      36.298  13.772  14.758  0.00  0.00     0.051 A 
HETATM   33  F   UNK N   1      35.973  14.018  17.095  0.00  0.00    -0.206 F 
ENDBRANCH  25  26
ENDBRANCH  23  25
ENDBRANCH   6  23
TORSDOF 6
ENDMDL
MODEL 8
REMARK VINA RESULT:      -7.4     15.773     18.170
REMARK  6 active torsions:
REMARK  status: ('A' for Active; 'I' for Inactive)
REMARK    1  A    between atoms: C_1  and  N_9 
REMARK       I    between atoms: C_4  and  N_10 
REMARK    2  A    between atoms: C_7  and  C_11 
REMARK    3  A    between atoms: C_8  and  C_15 
REMARK    4  A    between atoms: C_18  and  N_19 
REMARK    5  A    between atoms: N_19  and  C_27 
REMARK    6  A    between atoms: C_22  and  C_27 
ROOT
HETATM    1  C   UNK N   1      35.924  10.866  17.929  0.00  0.00     0.030 A 
HETATM    2  C   UNK N   1      35.885  11.241  16.583  0.00  0.00     0.014 A 
HETATM    3  C   UNK N   1      35.438  12.522  16.202  0.00  0.00    -0.020 A 
HETATM    4  C   UNK N   1      34.952  13.365  17.209  0.00  0.00     0.014 A 
HETATM    5  C   UNK N   1      35.003  13.009  18.543  0.00  0.00     0.030 A 
HETATM    6  C   UNK N   1      35.537  11.785  18.913  0.00  0.00     0.028 A 
ENDROOT
BRANCH   3   7
HETATM    7  C   UNK N   1      35.786  13.100  14.850  0.00  0.00     0.041 A 
HETATM    8  C   UNK N   1      36.662  14.218  14.720  0.00  0.00     0.127 A 
HETATM    9  N   UNK N   1      36.781  14.851  13.531  0.00  0.00    -0.176 N 
HETATM   10  C   UNK N   1      36.097  14.448  12.434  0.00  0.00     0.677 A 
ATOM     11  HN  UNK N   1      37.405  15.656  13.459  1.00  0.00     0.186 HD
HETATM   12  N   UNK N   1      35.310  13.348  12.499  0.00  0.00    -0.195 N 
HETATM   13  N   UNK N   1      36.179  15.183  11.242  0.00  0.00    -0.234 N 
HETATM   14  C   UNK N   1      35.140  12.656  13.649  0.00  0.00     0.041 A 
ATOM     15  HN  UNK N   1      34.832  13.031  11.656  1.00  0.00     0.184 HD
HETATM   16  H   UNK N   1      35.608  14.949  10.475  0.00  0.00     0.174 HD
HETATM   17  H   UNK N   1      36.810  15.936  11.172  0.00  0.00     0.174 HD
BRANCH   8  18
HETATM   18  N   UNK N   1      37.384  14.727  15.822  0.00  0.00    -0.384 N 
HETATM   19  H   UNK N   1      37.807  15.613  15.769  0.00  0.00     0.157 HD
HETATM   20  H   UNK N   1      37.465  14.192  16.645  0.00  0.00     0.157 HD
ENDBRANCH   8  18
BRANCH  14  21
HETATM   21  C   UNK N   1      34.236  11.461  13.597  0.00  0.00     0.054 C 
HETATM   22  C   UNK N   1      34.984  10.237  13.104  0.00  0.00     0.011 C 
ENDBRANCH  14  21
ENDBRANCH   3   7
BRANCH   6  23
HETATM   23  N   UNK N   1      35.735  11.536  20.284  0.00  0.00    -0.386 N 
HETATM   24  H   UNK N   1      35.801  12.303  20.897  0.00  0.00     0.160 HD
BRANCH  23  25
HETATM   25  C   UNK N   1      35.846  10.212  20.826  0.00  0.00     0.158 C 
BRANCH  25  26
HETATM   26  C   UNK N   1      34.463   9.724  21.083  0.00  0.00    -0.035 A 
HETATM   27  C   UNK N   1      33.808   8.961  20.118  0.00  0.00     0.051 A 
HETATM   28  C   UNK N   1      32.479   8.576  20.324  0.00  0.00     0.119 A 
HETATM   29  C   UNK N   1      31.804   8.967  21.486  0.00  0.00     0.084 A 
HETATM   30  F   UNK N   1      31.841   7.840  19.386  0.00  0.00    -0.206 F 
HETATM   31  C   UNK N   1      32.461   9.733  22.452  0.00  0.00     0.119 A 
HETATM   32  C   UNK N   1      33.782  10.109  22.250  0.00  0.00     0.051 A 
HETATM   33  F   UNK N   1      31.813  10.133  23.572  0.00  0.00    -0.206 F 
ENDBRANCH  25  26
ENDBRANCH  23  25
ENDBRANCH   6  23
TORSDOF 6
ENDMDL
MODEL 9
REMARK VINA RESULT:      -7.4      9.299     12.145
REMARK  6 active torsions:
REMARK  status: ('A' for Active; 'I' for Inactive)
REMARK    1  A    between atoms: C_1  and  N_9 
REMARK       I    between atoms: C_4  and  N_10 
REMARK    2  A    between atoms: C_7  and  C_11 
REMARK    3  A    between atoms: C_8  and  C_15 
REMARK    4  A    between atoms: C_18  and  N_19 
REMARK    5  A    between atoms: N_19  and  C_27 
REMARK    6  A    between atoms: C_22  and  C_27 
ROOT
HETATM    1  C   UNK N   1      30.272  15.815   5.239  0.00  0.00     0.030 A 
HETATM    2  C   UNK N   1      31.218  15.455   6.204  0.00  0.00     0.014 A 
HETATM    3  C   UNK N   1      32.421  16.177   6.341  0.00  0.00    -0.020 A 
HETATM    4  C   UNK N   1      32.670  17.203   5.421  0.00  0.00     0.014 A 
HETATM    5  C   UNK N   1      31.733  17.576   4.476  0.00  0.00     0.030 A 
HETATM    6  C   UNK N   1      30.513  16.922   4.416  0.00  0.00     0.028 A 
ENDROOT
BRANCH   3   7
HETATM    7  C   UNK N   1      33.236  16.101   7.611  0.00  0.00     0.041 A 
HETATM    8  C   UNK N   1      32.998  16.985   8.704  0.00  0.00     0.127 A 
HETATM    9  N   UNK N   1      33.876  17.046   9.731  0.00  0.00    -0.176 N 
HETATM   10  C   UNK N   1      34.989  16.275   9.767  0.00  0.00     0.677 A 
ATOM     11  HN  UNK N   1      33.694  17.692  10.500  1.00  0.00     0.186 HD
HETATM   12  N   UNK N   1      35.214  15.373   8.782  0.00  0.00    -0.195 N 
HETATM   13  N   UNK N   1      35.921  16.430  10.804  0.00  0.00    -0.234 N 
HETATM   14  C   UNK N   1      34.382  15.247   7.723  0.00  0.00     0.041 A 
ATOM     15  HN  UNK N   1      36.035  14.770   8.842  1.00  0.00     0.184 HD
HETATM   16  H   UNK N   1      36.775  15.942  10.779  0.00  0.00     0.174 HD
HETATM   17  H   UNK N   1      35.720  17.030  11.559  0.00  0.00     0.174 HD
BRANCH   8  18
HETATM   18  N   UNK N   1      31.881  17.850   8.729  0.00  0.00    -0.384 N 
HETATM   19  H   UNK N   1      31.954  18.739   9.143  0.00  0.00     0.157 HD
HETATM   20  H   UNK N   1      31.028  17.561   8.332  0.00  0.00     0.157 HD
ENDBRANCH   8  18
BRANCH  14  21
HETATM   21  C   UNK N   1      34.744  14.219   6.693  0.00  0.00     0.054 C 
HETATM   22  C   UNK N   1      35.784  14.759   5.730  0.00  0.00     0.011 C 
ENDBRANCH  14  21
ENDBRANCH   3   7
BRANCH   6  23
HETATM   23  N   UNK N   1      29.522  17.446   3.565  0.00  0.00    -0.386 N 
HETATM   24  H   UNK N   1      29.790  18.091   2.872  0.00  0.00     0.160 HD
BRANCH  23  25
HETATM   25  C   UNK N   1      28.138  17.082   3.666  0.00  0.00     0.158 C 
BRANCH  25  26
HETATM   26  C   UNK N   1      27.396  18.291   4.119  0.00  0.00    -0.035 A 
HETATM   27  C   UNK N   1      26.098  18.518   3.665  0.00  0.00     0.051 A 
HETATM   28  C   UNK N   1      25.435  19.696   4.022  0.00  0.00     0.119 A 
HETATM   29  C   UNK N   1      26.075  20.651   4.819  0.00  0.00     0.084 A 
HETATM   30  F   UNK N   1      24.177  19.918   3.579  0.00  0.00    -0.206 F 
HETATM   31  C   UNK N   1      27.377  20.426   5.272  0.00  0.00     0.119 A 
HETATM   32  C   UNK N   1      28.033  19.252   4.923  0.00  0.00     0.051 A 
HETATM   33  F   UNK N   1      28.014  21.351   6.028  0.00  0.00    -0.206 F 
ENDBRANCH  25  26
ENDBRANCH  23  25
ENDBRANCH   6  23
TORSDOF 6
ENDMDL
