MODEL 1
REMARK VINA RESULT:      -7.2      0.000      0.000
REMARK  6 active torsions:
REMARK  status: ('A' for Active; 'I' for Inactive)
REMARK    1  A    between atoms: O_2  and  C_3 
REMARK    2  A    between atoms: C_7  and  C_9 
REMARK    3  A    between atoms: C_13  and  C_14 
REMARK    4  A    between atoms: C_14  and  C_15 
REMARK    5  A    between atoms: C_15  and  C_16 
REMARK    6  A    between atoms: C_20  and  N_21 
ROOT
HETATM    1  C   UNK N   1      29.943  20.820  -6.324  0.00  0.00    -0.025 A 
HETATM    2  C   UNK N   1      30.004  19.723  -7.200  0.00  0.00     0.012 A 
HETATM    3  C   UNK N   1      29.098  19.604  -8.256  0.00  0.00     0.001 A 
HETATM    4  C   UNK N   1      28.132  20.589  -8.458  0.00  0.00     0.007 A 
HETATM    5  C   UNK N   1      28.055  21.681  -7.591  0.00  0.00    -0.057 A 
HETATM    6  C   UNK N   1      28.956  21.798  -6.524  0.00  0.00     0.019 A 
ENDROOT
BRANCH   5   7
HETATM    7  C   UNK N   1      27.046  22.739  -7.837  0.00  0.00     0.044 C 
BRANCH   7   8
HETATM    8  C   UNK N   1      25.930  22.651  -6.816  0.00  0.00     0.061 C 
BRANCH   8   9
HETATM    9  C   UNK N   1      26.007  23.831  -5.923  0.00  0.00     0.011 A 
HETATM   10  N   UNK N   1      25.328  24.965  -6.243  0.00  0.00    -0.346 N 
HETATM   11  C   UNK N   1      25.363  26.064  -5.443  0.00  0.00     0.098 A 
ATOM     12  HN  UNK N   1      24.780  24.991  -7.102  1.00  0.00     0.167 HD
HETATM   13  C   UNK N   1      26.104  26.043  -4.259  0.00  0.00     0.048 A 
HETATM   14  C   UNK N   1      26.807  24.888  -3.911  0.00  0.00     0.006 A 
HETATM   15  C   UNK N   1      26.762  23.773  -4.749  0.00  0.00     0.025 A 
BRANCH  11  16
HETATM   16  N   UNK N   1      24.653  27.223  -5.810  0.00  0.00    -0.385 N 
HETATM   17  H   UNK N   1      24.040  27.648  -5.168  0.00  0.00     0.157 HD
HETATM   18  H   UNK N   1      24.771  27.607  -6.709  0.00  0.00     0.157 HD
ENDBRANCH  11  16
ENDBRANCH   8   9
ENDBRANCH   7   8
ENDBRANCH   5   7
BRANCH   1  19
HETATM   19  C   UNK N   1      30.945  20.954  -5.242  0.00  0.00    -0.023 A 
HETATM   20  C   UNK N   1      32.201  20.329  -5.327  0.00  0.00     0.012 A 
HETATM   21  C   UNK N   1      33.118  20.441  -4.277  0.00  0.00     0.004 A 
HETATM   22  C   UNK N   1      32.781  21.163  -3.127  0.00  0.00     0.037 A 
HETATM   23  C   UNK N   1      31.526  21.787  -3.027  0.00  0.00     0.069 A 
HETATM   24  C   UNK N   1      30.626  21.683  -4.087  0.00  0.00     0.049 A 
BRANCH  23  25
HETATM   25  O   UNK N   1      31.154  22.479  -1.924  0.00  0.00    -0.356 OA
HETATM   26  C   UNK N   1      29.929  23.089  -1.791  0.00  0.00     0.210 C 
ENDBRANCH  23  25
ENDBRANCH   1  19
TORSDOF 6
ENDMDL
MODEL 2
REMARK VINA RESULT:      -7.1     23.759     26.797
REMARK  6 active torsions:
REMARK  status: ('A' for Active; 'I' for Inactive)
REMARK    1  A    between atoms: O_2  and  C_3 
REMARK    2  A    between atoms: C_7  and  C_9 
REMARK    3  A    between atoms: C_13  and  C_14 
REMARK    4  A    between atoms: C_14  and  C_15 
REMARK    5  A    between atoms: C_15  and  C_16 
REMARK    6  A    between atoms: C_20  and  N_21 
ROOT
HETATM    1  C   UNK N   1      34.980  12.085  16.340  0.00  0.00    -0.025 A 
HETATM    2  C   UNK N   1      34.771  13.401  16.787  0.00  0.00     0.012 A 
HETATM    3  C   UNK N   1      34.987  13.742  18.123  0.00  0.00     0.001 A 
HETATM    4  C   UNK N   1      35.431  12.776  19.025  0.00  0.00     0.007 A 
HETATM    5  C   UNK N   1      35.636  11.463  18.597  0.00  0.00    -0.057 A 
HETATM    6  C   UNK N   1      35.411  11.114  17.259  0.00  0.00     0.019 A 
ENDROOT
BRANCH   5   7
HETATM    7  C   UNK N   1      36.141  10.453  19.559  0.00  0.00     0.044 C 
BRANCH   7   8
HETATM    8  C   UNK N   1      35.362   9.160  19.423  0.00  0.00     0.061 C 
BRANCH   8   9
HETATM    9  C   UNK N   1      34.089   9.290  20.171  0.00  0.00     0.011 A 
HETATM   10  N   UNK N   1      34.033  10.082  21.274  0.00  0.00    -0.346 N 
HETATM   11  C   UNK N   1      32.880  10.237  21.980  0.00  0.00     0.098 A 
ATOM     12  HN  UNK N   1      34.873  10.572  21.579  1.00  0.00     0.167 HD
HETATM   13  C   UNK N   1      31.718   9.579  21.571  0.00  0.00     0.048 A 
HETATM   14  C   UNK N   1      31.754   8.762  20.440  0.00  0.00     0.006 A 
HETATM   15  C   UNK N   1      32.948   8.612  19.734  0.00  0.00     0.025 A 
BRANCH  11  16
HETATM   16  N   UNK N   1      32.860  11.060  23.121  0.00  0.00    -0.385 N 
HETATM   17  H   UNK N   1      32.801  12.038  23.022  0.00  0.00     0.157 HD
HETATM   18  H   UNK N   1      32.905  10.657  24.018  0.00  0.00     0.157 HD
ENDBRANCH  11  16
ENDBRANCH   8   9
ENDBRANCH   7   8
ENDBRANCH   5   7
BRANCH   1  19
HETATM   19  C   UNK N   1      34.796  11.755  14.908  0.00  0.00    -0.023 A 
HETATM   20  C   UNK N   1      33.979  10.686  14.504  0.00  0.00     0.012 A 
HETATM   21  C   UNK N   1      33.849  10.372  13.147  0.00  0.00     0.004 A 
HETATM   22  C   UNK N   1      34.548  11.110  12.186  0.00  0.00     0.037 A 
HETATM   23  C   UNK N   1      35.374  12.177  12.579  0.00  0.00     0.069 A 
HETATM   24  C   UNK N   1      35.484  12.493  13.933  0.00  0.00     0.049 A 
BRANCH  23  25
HETATM   25  O   UNK N   1      36.082  12.904  11.683  0.00  0.00    -0.356 OA
HETATM   26  C   UNK N   1      37.442  12.787  11.519  0.00  0.00     0.210 C 
ENDBRANCH  23  25
ENDBRANCH   1  19
TORSDOF 6
ENDMDL
MODEL 3
REMARK VINA RESULT:      -7.0     19.673     22.495
REMARK  6 active torsions:
REMARK  status: ('A' for Active; 'I' for Inactive)
REMARK    1  A    between atoms: O_2  and  C_3 
REMARK    2  A    between atoms: C_7  and  C_9 
REMARK    3  A    between atoms: C_13  and  C_14 
REMARK    4  A    between atoms: C_14  and  C_15 
REMARK    5  A    between atoms: C_15  and  C_16 
REMARK    6  A    between atoms: C_20  and  N_21 
ROOT
HETATM    1  C   UNK N   1      34.789  11.759  15.207  0.00  0.00    -0.025 A 
HETATM    2  C   UNK N   1      34.023  10.646  14.820  0.00  0.00     0.012 A 
HETATM    3  C   UNK N   1      33.850  10.335  13.470  0.00  0.00     0.001 A 
HETATM    4  C   UNK N   1      34.455  11.123  12.492  0.00  0.00     0.007 A 
HETATM    5  C   UNK N   1      35.213  12.236  12.861  0.00  0.00    -0.057 A 
HETATM    6  C   UNK N   1      35.380  12.557  14.214  0.00  0.00     0.019 A 
ENDROOT
BRANCH   5   7
HETATM    7  C   UNK N   1      35.879  13.046  11.812  0.00  0.00     0.044 C 
BRANCH   7   8
HETATM    8  C   UNK N   1      35.210  14.400  11.688  0.00  0.00     0.061 C 
BRANCH   8   9
HETATM    9  C   UNK N   1      34.270  14.364  10.541  0.00  0.00     0.011 A 
HETATM   10  N   UNK N   1      33.217  15.223  10.505  0.00  0.00    -0.346 N 
HETATM   11  C   UNK N   1      32.341  15.229   9.465  0.00  0.00     0.098 A 
ATOM     12  HN  UNK N   1      33.081  15.877  11.275  1.00  0.00     0.167 HD
HETATM   13  C   UNK N   1      32.516  14.344   8.399  0.00  0.00     0.048 A 
HETATM   14  C   UNK N   1      33.593  13.455   8.416  0.00  0.00     0.006 A 
HETATM   15  C   UNK N   1      34.477  13.461   9.495  0.00  0.00     0.025 A 
BRANCH  11  16
HETATM   16  N   UNK N   1      31.257  16.128   9.464  0.00  0.00    -0.385 N 
HETATM   17  H   UNK N   1      30.706  16.234  10.272  0.00  0.00     0.157 HD
HETATM   18  H   UNK N   1      31.053  16.649   8.655  0.00  0.00     0.157 HD
ENDBRANCH  11  16
ENDBRANCH   8   9
ENDBRANCH   7   8
ENDBRANCH   5   7
BRANCH   1  19
HETATM   19  C   UNK N   1      35.004  12.041  16.645  0.00  0.00    -0.023 A 
HETATM   20  C   UNK N   1      35.110  11.003  17.585  0.00  0.00     0.012 A 
HETATM   21  C   UNK N   1      35.277  11.295  18.943  0.00  0.00     0.004 A 
HETATM   22  C   UNK N   1      35.321  12.625  19.374  0.00  0.00     0.037 A 
HETATM   23  C   UNK N   1      35.209  13.673  18.443  0.00  0.00     0.069 A 
HETATM   24  C   UNK N   1      35.060  13.370  17.090  0.00  0.00     0.049 A 
BRANCH  23  25
HETATM   25  O   UNK N   1      35.229  14.972  18.820  0.00  0.00    -0.356 OA
HETATM   26  C   UNK N   1      35.990  15.931  18.193  0.00  0.00     0.210 C 
ENDBRANCH  23  25
ENDBRANCH   1  19
TORSDOF 6
ENDMDL
MODEL 4
REMARK VINA RESULT:      -6.9      2.378      4.567
REMARK  6 active torsions:
REMARK  status: ('A' for Active; 'I' for Inactive)
REMARK    1  A    between atoms: O_2  and  C_3 
REMARK    2  A    between atoms: C_7  and  C_9 
REMARK    3  A    between atoms: C_13  and  C_14 
REMARK    4  A    between atoms: C_14  and  C_15 
REMARK    5  A    between atoms: C_15  and  C_16 
REMARK    6  A    between atoms: C_20  and  N_21 
ROOT
HETATM    1  C   UNK N   1      30.042  21.520  -5.236  0.00  0.00    -0.025 A 
HETATM    2  C   UNK N   1      30.881  20.974  -4.250  0.00  0.00     0.012 A 
HETATM    3  C   UNK N   1      31.024  21.599  -3.010  0.00  0.00     0.001 A 
HETATM    4  C   UNK N   1      30.315  22.768  -2.734  0.00  0.00     0.007 A 
HETATM    5  C   UNK N   1      29.483  23.326  -3.706  0.00  0.00    -0.057 A 
HETATM    6  C   UNK N   1      29.345  22.707  -4.956  0.00  0.00     0.019 A 
ENDROOT
BRANCH   5   7
HETATM    7  C   UNK N   1      28.709  24.551  -3.389  0.00  0.00     0.044 C 
BRANCH   7   8
HETATM    8  C   UNK N   1      27.228  24.236  -3.325  0.00  0.00     0.061 C 
BRANCH   8   9
HETATM    9  C   UNK N   1      26.478  25.341  -3.969  0.00  0.00     0.011 A 
HETATM   10  N   UNK N   1      26.480  26.578  -3.404  0.00  0.00    -0.346 N 
HETATM   11  C   UNK N   1      25.815  27.620  -3.971  0.00  0.00     0.098 A 
ATOM     12  HN  UNK N   1      26.993  26.727  -2.535  1.00  0.00     0.167 HD
HETATM   13  C   UNK N   1      25.114  27.433  -5.165  0.00  0.00     0.048 A 
HETATM   14  C   UNK N   1      25.100  26.172  -5.762  0.00  0.00     0.006 A 
HETATM   15  C   UNK N   1      25.784  25.115  -5.161  0.00  0.00     0.025 A 
BRANCH  11  16
HETATM   16  N   UNK N   1      25.834  28.885  -3.354  0.00  0.00    -0.385 N 
HETATM   17  H   UNK N   1      26.543  29.107  -2.709  0.00  0.00     0.157 HD
HETATM   18  H   UNK N   1      25.137  29.547  -3.570  0.00  0.00     0.157 HD
ENDBRANCH  11  16
ENDBRANCH   8   9
ENDBRANCH   7   8
ENDBRANCH   5   7
BRANCH   1  19
HETATM   19  C   UNK N   1      29.863  20.814  -6.525  0.00  0.00    -0.023 A 
HETATM   20  C   UNK N   1      30.747  19.799  -6.930  0.00  0.00     0.012 A 
HETATM   21  C   UNK N   1      30.579  19.170  -8.169  0.00  0.00     0.004 A 
HETATM   22  C   UNK N   1      29.540  19.564  -9.019  0.00  0.00     0.037 A 
HETATM   23  C   UNK N   1      28.654  20.582  -8.627  0.00  0.00     0.069 A 
HETATM   24  C   UNK N   1      28.820  21.190  -7.384  0.00  0.00     0.049 A 
BRANCH  23  25
HETATM   25  O   UNK N   1      27.648  21.004  -9.428  0.00  0.00    -0.356 OA
HETATM   26  C   UNK N   1      27.491  22.313  -9.821  0.00  0.00     0.210 C 
ENDBRANCH  23  25
ENDBRANCH   1  19
TORSDOF 6
ENDMDL
MODEL 5
REMARK VINA RESULT:      -6.9     23.601     26.631
REMARK  6 active torsions:
REMARK  status: ('A' for Active; 'I' for Inactive)
REMARK    1  A    between atoms: O_2  and  C_3 
REMARK    2  A    between atoms: C_7  and  C_9 
REMARK    3  A    between atoms: C_13  and  C_14 
REMARK    4  A    between atoms: C_14  and  C_15 
REMARK    5  A    between atoms: C_15  and  C_16 
REMARK    6  A    between atoms: C_20  and  N_21 
ROOT
HETATM    1  C   UNK N   1      35.792  12.585  16.230  0.00  0.00    -0.025 A 
HETATM    2  C   UNK N   1      35.504  13.775  16.920  0.00  0.00     0.012 A 
HETATM    3  C   UNK N   1      35.217  13.755  18.285  0.00  0.00     0.001 A 
HETATM    4  C   UNK N   1      35.231  12.547  18.982  0.00  0.00     0.007 A 
HETATM    5  C   UNK N   1      35.509  11.356  18.308  0.00  0.00    -0.057 A 
HETATM    6  C   UNK N   1      35.788  11.371  16.935  0.00  0.00     0.019 A 
ENDROOT
BRANCH   5   7
HETATM    7  C   UNK N   1      35.554  10.082  19.067  0.00  0.00     0.044 C 
BRANCH   7   8
HETATM    8  C   UNK N   1      34.343   9.231  18.742  0.00  0.00     0.061 C 
BRANCH   8   9
HETATM    9  C   UNK N   1      33.482   9.148  19.946  0.00  0.00     0.011 A 
HETATM   10  N   UNK N   1      33.594  10.089  20.922  0.00  0.00    -0.346 N 
HETATM   11  C   UNK N   1      32.813  10.054  22.035  0.00  0.00     0.098 A 
ATOM     12  HN  UNK N   1      34.278  10.837  20.816  1.00  0.00     0.167 HD
HETATM   13  C   UNK N   1      31.866   9.039  22.192  0.00  0.00     0.048 A 
HETATM   14  C   UNK N   1      31.734   8.065  21.201  0.00  0.00     0.006 A 
HETATM   15  C   UNK N   1      32.549   8.115  20.070  0.00  0.00     0.025 A 
BRANCH  11  16
HETATM   16  N   UNK N   1      32.961  11.041  23.027  0.00  0.00    -0.385 N 
HETATM   17  H   UNK N   1      32.345  11.808  23.054  0.00  0.00     0.157 HD
HETATM   18  H   UNK N   1      33.681  10.962  23.695  0.00  0.00     0.157 HD
ENDBRANCH  11  16
ENDBRANCH   8   9
ENDBRANCH   7   8
ENDBRANCH   5   7
BRANCH   1  19
HETATM   19  C   UNK N   1      36.146  12.634  14.793  0.00  0.00    -0.023 A 
HETATM   20  C   UNK N   1      37.121  11.779  14.251  0.00  0.00     0.012 A 
HETATM   21  C   UNK N   1      37.463  11.867  12.897  0.00  0.00     0.004 A 
HETATM   22  C   UNK N   1      36.849  12.823  12.080  0.00  0.00     0.037 A 
HETATM   23  C   UNK N   1      35.878  13.688  12.613  0.00  0.00     0.069 A 
HETATM   24  C   UNK N   1      35.532  13.579  13.959  0.00  0.00     0.049 A 
BRANCH  23  25
HETATM   25  O   UNK N   1      35.274  14.637  11.861  0.00  0.00    -0.356 OA
HETATM   26  C   UNK N   1      35.932  15.734  11.355  0.00  0.00     0.210 C 
ENDBRANCH  23  25
ENDBRANCH   1  19
TORSDOF 6
ENDMDL
MODEL 6
REMARK VINA RESULT:      -6.9     23.991     27.030
REMARK  6 active torsions:
REMARK  status: ('A' for Active; 'I' for Inactive)
REMARK    1  A    between atoms: O_2  and  C_3 
REMARK    2  A    between atoms: C_7  and  C_9 
REMARK    3  A    between atoms: C_13  and  C_14 
REMARK    4  A    between atoms: C_14  and  C_15 
REMARK    5  A    between atoms: C_15  and  C_16 
REMARK    6  A    between atoms: C_20  and  N_21 
ROOT
HETATM    1  C   UNK N   1      34.928  12.121  16.839  0.00  0.00    -0.025 A 
HETATM    2  C   UNK N   1      35.026  13.448  17.291  0.00  0.00     0.012 A 
HETATM    3  C   UNK N   1      35.227  13.726  18.644  0.00  0.00     0.001 A 
HETATM    4  C   UNK N   1      35.350  12.680  19.559  0.00  0.00     0.007 A 
HETATM    5  C   UNK N   1      35.248  11.357  19.125  0.00  0.00    -0.057 A 
HETATM    6  C   UNK N   1      35.036  11.075  17.769  0.00  0.00     0.019 A 
ENDROOT
BRANCH   5   7
HETATM    7  C   UNK N   1      35.415  10.254  20.102  0.00  0.00     0.044 C 
BRANCH   7   8
HETATM    8  C   UNK N   1      34.219  10.185  21.029  0.00  0.00     0.061 C 
BRANCH   8   9
HETATM    9  C   UNK N   1      33.321   9.100  20.570  0.00  0.00     0.011 A 
HETATM   10  N   UNK N   1      33.847   7.989  19.987  0.00  0.00    -0.346 N 
HETATM   11  C   UNK N   1      33.057   6.966  19.564  0.00  0.00     0.098 A 
ATOM     12  HN  UNK N   1      34.857   7.922  19.866  1.00  0.00     0.167 HD
HETATM   13  C   UNK N   1      31.672   7.040  19.730  0.00  0.00     0.048 A 
HETATM   14  C   UNK N   1      31.111   8.170  20.327  0.00  0.00     0.006 A 
HETATM   15  C   UNK N   1      31.939   9.211  20.748  0.00  0.00     0.025 A 
BRANCH  11  16
HETATM   16  N   UNK N   1      33.636   5.835  18.960  0.00  0.00    -0.385 N 
HETATM   17  H   UNK N   1      33.213   5.428  18.170  0.00  0.00     0.157 HD
HETATM   18  H   UNK N   1      34.464   5.451  19.329  0.00  0.00     0.157 HD
ENDBRANCH  11  16
ENDBRANCH   8   9
ENDBRANCH   7   8
ENDBRANCH   5   7
BRANCH   1  19
HETATM   19  C   UNK N   1      34.767  11.846  15.393  0.00  0.00    -0.023 A 
HETATM   20  C   UNK N   1      34.101  10.695  14.937  0.00  0.00     0.012 A 
HETATM   21  C   UNK N   1      33.992  10.439  13.566  0.00  0.00     0.004 A 
HETATM   22  C   UNK N   1      34.563  11.319  12.641  0.00  0.00     0.037 A 
HETATM   23  C   UNK N   1      35.238  12.470  13.085  0.00  0.00     0.069 A 
HETATM   24  C   UNK N   1      35.325  12.725  14.453  0.00  0.00     0.049 A 
BRANCH  23  25
HETATM   25  O   UNK N   1      35.819  13.337  12.224  0.00  0.00    -0.356 OA
HETATM   26  C   UNK N   1      36.053  14.659  12.523  0.00  0.00     0.210 C 
ENDBRANCH  23  25
ENDBRANCH   1  19
TORSDOF 6
ENDMDL
MODEL 7
REMARK VINA RESULT:      -6.8      2.315      4.640
REMARK  6 active torsions:
REMARK  status: ('A' for Active; 'I' for Inactive)
REMARK    1  A    between atoms: O_2  and  C_3 
REMARK    2  A    between atoms: C_7  and  C_9 
REMARK    3  A    between atoms: C_13  and  C_14 
REMARK    4  A    between atoms: C_14  and  C_15 
REMARK    5  A    between atoms: C_15  and  C_16 
REMARK    6  A    between atoms: C_20  and  N_21 
ROOT
HETATM    1  C   UNK N   1      30.295  21.494  -5.162  0.00  0.00    -0.025 A 
HETATM    2  C   UNK N   1      31.105  21.019  -4.116  0.00  0.00     0.012 A 
HETATM    3  C   UNK N   1      31.169  21.702  -2.900  0.00  0.00     0.001 A 
HETATM    4  C   UNK N   1      30.411  22.857  -2.709  0.00  0.00     0.007 A 
HETATM    5  C   UNK N   1      29.608  23.344  -3.742  0.00  0.00    -0.057 A 
HETATM    6  C   UNK N   1      29.549  22.667  -4.967  0.00  0.00     0.019 A 
ENDROOT
BRANCH   5   7
HETATM    7  C   UNK N   1      28.781  24.553  -3.515  0.00  0.00     0.044 C 
BRANCH   7   8
HETATM    8  C   UNK N   1      27.311  24.187  -3.476  0.00  0.00     0.061 C 
BRANCH   8   9
HETATM    9  C   UNK N   1      26.526  25.301  -4.060  0.00  0.00     0.011 A 
HETATM   10  N   UNK N   1      26.525  26.517  -3.452  0.00  0.00    -0.346 N 
HETATM   11  C   UNK N   1      25.828  27.567  -3.965  0.00  0.00     0.098 A 
ATOM     12  HN  UNK N   1      27.058  26.645  -2.593  1.00  0.00     0.167 HD
HETATM   13  C   UNK N   1      25.098  27.411  -5.145  0.00  0.00     0.048 A 
HETATM   14  C   UNK N   1      25.088  26.171  -5.786  0.00  0.00     0.006 A 
HETATM   15  C   UNK N   1      25.804  25.105  -5.240  0.00  0.00     0.025 A 
BRANCH  11  16
HETATM   16  N   UNK N   1      25.844  28.810  -3.305  0.00  0.00    -0.385 N 
HETATM   17  H   UNK N   1      26.471  29.512  -3.592  0.00  0.00     0.157 HD
HETATM   18  H   UNK N   1      25.227  28.976  -2.555  0.00  0.00     0.157 HD
ENDBRANCH  11  16
ENDBRANCH   8   9
ENDBRANCH   7   8
ENDBRANCH   5   7
BRANCH   1  19
HETATM   19  C   UNK N   1      30.201  20.727  -6.426  0.00  0.00    -0.023 A 
HETATM   20  C   UNK N   1      28.993  20.639  -7.138  0.00  0.00     0.012 A 
HETATM   21  C   UNK N   1      28.919  19.879  -8.310  0.00  0.00     0.004 A 
HETATM   22  C   UNK N   1      30.045  19.188  -8.770  0.00  0.00     0.037 A 
HETATM   23  C   UNK N   1      31.258  19.264  -8.062  0.00  0.00     0.069 A 
HETATM   24  C   UNK N   1      31.325  20.037  -6.904  0.00  0.00     0.049 A 
BRANCH  23  25
HETATM   25  O   UNK N   1      32.365  18.596  -8.463  0.00  0.00    -0.356 OA
HETATM   26  C   UNK N   1      32.333  17.533  -9.336  0.00  0.00     0.210 C 
ENDBRANCH  23  25
ENDBRANCH   1  19
TORSDOF 6
ENDMDL
MODEL 8
REMARK VINA RESULT:      -6.8     20.112     22.972
REMARK  6 active torsions:
REMARK  status: ('A' for Active; 'I' for Inactive)
REMARK    1  A    between atoms: O_2  and  C_3 
REMARK    2  A    between atoms: C_7  and  C_9 
REMARK    3  A    between atoms: C_13  and  C_14 
REMARK    4  A    between atoms: C_14  and  C_15 
REMARK    5  A    between atoms: C_15  and  C_16 
REMARK    6  A    between atoms: C_20  and  N_21 
ROOT
HETATM    1  C   UNK N   1      34.802  11.838  15.388  0.00  0.00    -0.025 A 
HETATM    2  C   UNK N   1      34.035  10.752  14.932  0.00  0.00     0.012 A 
HETATM    3  C   UNK N   1      33.911  10.491  13.567  0.00  0.00     0.001 A 
HETATM    4  C   UNK N   1      34.566  11.302  12.641  0.00  0.00     0.007 A 
HETATM    5  C   UNK N   1      35.325  12.389  13.078  0.00  0.00    -0.057 A 
HETATM    6  C   UNK N   1      35.443  12.661  14.448  0.00  0.00     0.019 A 
ENDROOT
BRANCH   5   7
HETATM    7  C   UNK N   1      36.044  13.224  12.085  0.00  0.00     0.044 C 
BRANCH   7   8
HETATM    8  C   UNK N   1      35.515  14.644  12.109  0.00  0.00     0.061 C 
BRANCH   8   9
HETATM    9  C   UNK N   1      35.223  15.067  10.719  0.00  0.00     0.011 A 
HETATM   10  N   UNK N   1      34.497  16.195  10.495  0.00  0.00    -0.346 N 
HETATM   11  C   UNK N   1      34.219  16.623   9.234  0.00  0.00     0.098 A 
ATOM     12  HN  UNK N   1      34.155  16.733  11.291  1.00  0.00     0.167 HD
HETATM   13  C   UNK N   1      34.686  15.902   8.133  0.00  0.00     0.048 A 
HETATM   14  C   UNK N   1      35.434  14.742   8.341  0.00  0.00     0.006 A 
HETATM   15  C   UNK N   1      35.704  14.317   9.642  0.00  0.00     0.025 A 
BRANCH  11  16
HETATM   16  N   UNK N   1      33.460  17.792   9.041  0.00  0.00    -0.385 N 
HETATM   17  H   UNK N   1      32.902  18.144   9.772  0.00  0.00     0.157 HD
HETATM   18  H   UNK N   1      33.487  18.258   8.174  0.00  0.00     0.157 HD
ENDBRANCH  11  16
ENDBRANCH   8   9
ENDBRANCH   7   8
ENDBRANCH   5   7
BRANCH   1  19
HETATM   19  C   UNK N   1      34.964  12.067  16.842  0.00  0.00    -0.023 A 
HETATM   20  C   UNK N   1      34.982  13.365  17.379  0.00  0.00     0.012 A 
HETATM   21  C   UNK N   1      35.172  13.558  18.752  0.00  0.00     0.004 A 
HETATM   22  C   UNK N   1      35.363  12.457  19.594  0.00  0.00     0.037 A 
HETATM   23  C   UNK N   1      35.353  11.154  19.067  0.00  0.00     0.069 A 
HETATM   24  C   UNK N   1      35.146  10.973  17.700  0.00  0.00     0.049 A 
BRANCH  23  25
HETATM   25  O   UNK N   1      35.552  10.065  19.844  0.00  0.00    -0.356 OA
HETATM   26  C   UNK N   1      34.659   9.645  20.802  0.00  0.00     0.210 C 
ENDBRANCH  23  25
ENDBRANCH   1  19
TORSDOF 6
ENDMDL
MODEL 9
REMARK VINA RESULT:      -6.6     10.931     14.137
REMARK  6 active torsions:
REMARK  status: ('A' for Active; 'I' for Inactive)
REMARK    1  A    between atoms: O_2  and  C_3 
REMARK    2  A    between atoms: C_7  and  C_9 
REMARK    3  A    between atoms: C_13  and  C_14 
REMARK    4  A    between atoms: C_14  and  C_15 
REMARK    5  A    between atoms: C_15  and  C_16 
REMARK    6  A    between atoms: C_20  and  N_21 
ROOT
HETATM    1  C   UNK N   1      28.521  18.377   6.870  0.00  0.00    -0.025 A 
HETATM    2  C   UNK N   1      28.182  18.804   8.166  0.00  0.00     0.012 A 
HETATM    3  C   UNK N   1      28.995  18.487   9.255  0.00  0.00     0.001 A 
HETATM    4  C   UNK N   1      30.165  17.754   9.060  0.00  0.00     0.007 A 
HETATM    5  C   UNK N   1      30.510  17.317   7.780  0.00  0.00    -0.057 A 
HETATM    6  C   UNK N   1      29.692  17.625   6.685  0.00  0.00     0.019 A 
ENDROOT
BRANCH   5   7
HETATM    7  C   UNK N   1      31.775  16.568   7.580  0.00  0.00     0.044 C 
BRANCH   7   8
HETATM    8  C   UNK N   1      32.791  17.431   6.862  0.00  0.00     0.061 C 
BRANCH   8   9
HETATM    9  C   UNK N   1      32.999  16.887   5.498  0.00  0.00     0.011 A 
HETATM   10  N   UNK N   1      33.685  15.725   5.332  0.00  0.00    -0.346 N 
HETATM   11  C   UNK N   1      33.885  15.188   4.099  0.00  0.00     0.098 A 
ATOM     12  HN  UNK N   1      34.056  15.244   6.151  1.00  0.00     0.167 HD
HETATM   13  C   UNK N   1      33.376  15.830   2.967  0.00  0.00     0.048 A 
HETATM   14  C   UNK N   1      32.669  17.023   3.116  0.00  0.00     0.006 A 
HETATM   15  C   UNK N   1      32.479  17.561   4.390  0.00  0.00     0.025 A 
BRANCH  11  16
HETATM   16  N   UNK N   1      34.605  13.986   3.964  0.00  0.00    -0.385 N 
HETATM   17  H   UNK N   1      34.674  13.366   4.725  0.00  0.00     0.157 HD
HETATM   18  H   UNK N   1      35.039  13.767   3.108  0.00  0.00     0.157 HD
ENDBRANCH  11  16
ENDBRANCH   8   9
ENDBRANCH   7   8
ENDBRANCH   5   7
BRANCH   1  19
HETATM   19  C   UNK N   1      27.673  18.769   5.720  0.00  0.00    -0.023 A 
HETATM   20  C   UNK N   1      27.546  20.113   5.331  0.00  0.00     0.012 A 
HETATM   21  C   UNK N   1      26.711  20.462   4.264  0.00  0.00     0.004 A 
HETATM   22  C   UNK N   1      25.984  19.475   3.591  0.00  0.00     0.037 A 
HETATM   23  C   UNK N   1      26.098  18.128   3.976  0.00  0.00     0.069 A 
HETATM   24  C   UNK N   1      26.945  17.789   5.030  0.00  0.00     0.049 A 
BRANCH  23  25
HETATM   25  O   UNK N   1      25.397  17.145   3.363  0.00  0.00    -0.356 OA
HETATM   26  C   UNK N   1      25.986  16.139   2.633  0.00  0.00     0.210 C 
ENDBRANCH  23  25
ENDBRANCH   1  19
TORSDOF 6
ENDMDL
