MODEL 1
REMARK VINA RESULT:      -7.8      0.000      0.000
REMARK  9 active torsions:
REMARK  status: ('A' for Active; 'I' for Inactive)
REMARK    1  A    between atoms: C_6  and  O_7 
REMARK    2  A    between atoms: O_7  and  C_8 
REMARK    3  A    between atoms: C_13  and  S_14 
REMARK    4  A    between atoms: S_14  and  C_17 
REMARK    5  A    between atoms: C_17  and  C_18 
REMARK    6  A    between atoms: C_18  and  C_19 
REMARK    7  A    between atoms: C_18  and  C_24 
REMARK    8  A    between atoms: C_18  and  N_23 
REMARK       I    between atoms: C_24  and  N_26 
REMARK    9  A    between atoms: N_26  and  O_27 
ROOT
HETATM    1  S   UNK N   1      21.277  17.722   6.072  0.00  0.00     0.178 S 
HETATM    2  O   UNK N   1      20.857  18.823   7.058  0.00  0.00    -0.223 OA
HETATM    3  O   UNK N   1      22.771  18.054   5.933  0.00  0.00    -0.223 OA
ENDROOT
BRANCH   1   4
HETATM    4  C   UNK N   1      21.036  16.177   6.920  0.00  0.00     0.059 A 
HETATM    5  C   UNK N   1      21.208  14.944   6.276  0.00  0.00     0.026 A 
HETATM    6  C   UNK N   1      21.159  13.757   7.021  0.00  0.00     0.039 A 
HETATM    7  C   UNK N   1      20.968  13.809   8.409  0.00  0.00     0.076 A 
HETATM    8  C   UNK N   1      20.753  15.049   9.028  0.00  0.00     0.039 A 
HETATM    9  C   UNK N   1      20.793  16.222   8.289  0.00  0.00     0.026 A 
BRANCH   7  10
HETATM   10  O   UNK N   1      21.019  12.666   9.144  0.00  0.00    -0.311 OA
BRANCH  10  11
HETATM   11  C   UNK N   1      21.975  12.398  10.080  0.00  0.00     0.076 A 
HETATM   12  C   UNK N   1      21.635  12.118  11.420  0.00  0.00     0.037 A 
HETATM   13  C   UNK N   1      22.625  11.863  12.369  0.00  0.00     0.003 A 
HETATM   14  C   UNK N   1      23.968  11.890  11.993  0.00  0.00     0.000 A 
HETATM   15  C   UNK N   1      24.319  12.179  10.670  0.00  0.00     0.003 A 
HETATM   16  C   UNK N   1      23.325  12.438   9.718  0.00  0.00     0.037 A 
ENDBRANCH  10  11
ENDBRANCH   7  10
ENDBRANCH   1   4
BRANCH   1  17
HETATM   17  C   UNK N   1      20.335  18.046   4.537  0.00  0.00     0.196 C 
BRANCH  17  18
HETATM   18  C   UNK N   1      21.134  18.109   3.220  0.00  0.00     0.219 C 
BRANCH  18  19
HETATM   19  C   UNK N   1      21.562  19.577   3.006  0.00  0.00     0.422 C 
HETATM   20  F   UNK N   1      22.877  19.765   3.396  0.00  0.00    -0.168 F 
HETATM   21  F   UNK N   1      21.401  19.949   1.681  0.00  0.00    -0.168 F 
HETATM   22  F   UNK N   1      20.776  20.418   3.773  0.00  0.00    -0.168 F 
ENDBRANCH  18  19
BRANCH  18  23
HETATM   23  C   UNK N   1      20.244  17.451   2.150  0.00  0.00     0.279 C 
HETATM   24  N   UNK N   1      18.991  17.863   1.808  0.00  0.00    -0.235 N 
HETATM   25  H   UNK N   1      18.523  17.369   1.096  0.00  0.00     0.197 HD
HETATM   26  O   UNK N   1      20.701  16.485   1.558  0.00  0.00    -0.268 OA
BRANCH  24  27
HETATM   27  O   UNK N   1      18.358  18.893   2.374  0.00  0.00    -0.287 OA
HETATM   28  H   UNK N   1      18.039  18.828   3.288  0.00  0.00     0.244 HD
ENDBRANCH  24  27
ENDBRANCH  18  23
BRANCH  18  29
HETATM   29  N   UNK N   1      22.343  17.296   3.313  0.00  0.00    -0.406 N 
HETATM   30  H   UNK N   1      23.296  17.140   3.640  0.00  0.00     0.151 HD
HETATM   31  H   UNK N   1      22.120  16.455   2.779  0.00  0.00     0.151 HD
ENDBRANCH  18  29
ENDBRANCH  17  18
ENDBRANCH   1  17
TORSDOF 9
ENDMDL
MODEL 2
REMARK VINA RESULT:      -7.7     10.343     12.803
REMARK  9 active torsions:
REMARK  status: ('A' for Active; 'I' for Inactive)
REMARK    1  A    between atoms: C_6  and  O_7 
REMARK    2  A    between atoms: O_7  and  C_8 
REMARK    3  A    between atoms: C_13  and  S_14 
REMARK    4  A    between atoms: S_14  and  C_17 
REMARK    5  A    between atoms: C_17  and  C_18 
REMARK    6  A    between atoms: C_18  and  C_19 
REMARK    7  A    between atoms: C_18  and  C_24 
REMARK    8  A    between atoms: C_18  and  N_23 
REMARK       I    between atoms: C_24  and  N_26 
REMARK    9  A    between atoms: N_26  and  O_27 
ROOT
HETATM    1  S   UNK N   1      33.160  14.699   7.138  0.00  0.00     0.178 S 
HETATM    2  O   UNK N   1      32.449  14.017   8.317  0.00  0.00    -0.223 OA
HETATM    3  O   UNK N   1      33.737  13.464   6.430  0.00  0.00    -0.223 OA
ENDROOT
BRANCH   1   4
HETATM    4  C   UNK N   1      31.883  15.464   6.164  0.00  0.00     0.059 A 
HETATM    5  C   UNK N   1      30.552  15.031   6.215  0.00  0.00     0.026 A 
HETATM    6  C   UNK N   1      29.555  15.760   5.551  0.00  0.00     0.039 A 
HETATM    7  C   UNK N   1      29.890  16.936   4.863  0.00  0.00     0.076 A 
HETATM    8  C   UNK N   1      31.234  17.328   4.786  0.00  0.00     0.039 A 
HETATM    9  C   UNK N   1      32.219  16.601   5.436  0.00  0.00     0.026 A 
BRANCH   7  10
HETATM   10  O   UNK N   1      28.912  17.695   4.303  0.00  0.00    -0.311 OA
BRANCH  10  11
HETATM   11  C   UNK N   1      28.276  18.721   4.940  0.00  0.00     0.076 A 
HETATM   12  C   UNK N   1      27.617  19.739   4.220  0.00  0.00     0.037 A 
HETATM   13  C   UNK N   1      26.987  20.790   4.885  0.00  0.00     0.003 A 
HETATM   14  C   UNK N   1      27.012  20.841   6.279  0.00  0.00     0.000 A 
HETATM   15  C   UNK N   1      27.673  19.845   7.004  0.00  0.00     0.003 A 
HETATM   16  C   UNK N   1      28.308  18.791   6.336  0.00  0.00     0.037 A 
ENDBRANCH  10  11
ENDBRANCH   7  10
ENDBRANCH   1   4
BRANCH   1  17
HETATM   17  C   UNK N   1      34.456  15.754   7.885  0.00  0.00     0.196 C 
BRANCH  17  18
HETATM   18  C   UNK N   1      33.992  16.871   8.841  0.00  0.00     0.219 C 
BRANCH  18  19
HETATM   19  C   UNK N   1      34.160  18.216   8.101  0.00  0.00     0.422 C 
HETATM   20  F   UNK N   1      35.207  18.943   8.642  0.00  0.00    -0.168 F 
HETATM   21  F   UNK N   1      34.373  18.011   6.748  0.00  0.00    -0.168 F 
HETATM   22  F   UNK N   1      33.012  18.977   8.233  0.00  0.00    -0.168 F 
ENDBRANCH  18  19
BRANCH  18  23
HETATM   23  C   UNK N   1      34.773  16.662  10.151  0.00  0.00     0.279 C 
HETATM   24  N   UNK N   1      34.449  15.766  11.125  0.00  0.00    -0.235 N 
HETATM   25  H   UNK N   1      35.034  15.713  11.915  0.00  0.00     0.197 HD
HETATM   26  O   UNK N   1      35.766  17.350  10.326  0.00  0.00    -0.268 OA
BRANCH  24  27
HETATM   27  O   UNK N   1      33.388  14.956  11.079  0.00  0.00    -0.287 OA
HETATM   28  H   UNK N   1      32.680  15.040  11.736  0.00  0.00     0.244 HD
ENDBRANCH  24  27
ENDBRANCH  18  23
BRANCH  18  29
HETATM   29  N   UNK N   1      32.578  16.711   9.170  0.00  0.00    -0.406 N 
HETATM   30  H   UNK N   1      31.706  16.184   9.146  0.00  0.00     0.151 HD
HETATM   31  H   UNK N   1      32.345  17.557   9.690  0.00  0.00     0.151 HD
ENDBRANCH  18  29
ENDBRANCH  17  18
ENDBRANCH   1  17
TORSDOF 9
ENDMDL
MODEL 3
REMARK VINA RESULT:      -7.6     10.701     13.289
REMARK  9 active torsions:
REMARK  status: ('A' for Active; 'I' for Inactive)
REMARK    1  A    between atoms: C_6  and  O_7 
REMARK    2  A    between atoms: O_7  and  C_8 
REMARK    3  A    between atoms: C_13  and  S_14 
REMARK    4  A    between atoms: S_14  and  C_17 
REMARK    5  A    between atoms: C_17  and  C_18 
REMARK    6  A    between atoms: C_18  and  C_19 
REMARK    7  A    between atoms: C_18  and  C_24 
REMARK    8  A    between atoms: C_18  and  N_23 
REMARK       I    between atoms: C_24  and  N_26 
REMARK    9  A    between atoms: N_26  and  O_27 
ROOT
HETATM    1  S   UNK N   1      34.063  17.413   7.744  0.00  0.00     0.178 S 
HETATM    2  O   UNK N   1      34.532  17.883   6.359  0.00  0.00    -0.223 OA
HETATM    3  O   UNK N   1      34.604  18.564   8.606  0.00  0.00    -0.223 OA
ENDROOT
BRANCH   1   4
HETATM    4  C   UNK N   1      32.284  17.424   7.696  0.00  0.00     0.059 A 
HETATM    5  C   UNK N   1      31.522  18.131   8.635  0.00  0.00     0.026 A 
HETATM    6  C   UNK N   1      30.134  18.238   8.466  0.00  0.00     0.039 A 
HETATM    7  C   UNK N   1      29.518  17.664   7.345  0.00  0.00     0.076 A 
HETATM    8  C   UNK N   1      30.293  16.922   6.441  0.00  0.00     0.039 A 
HETATM    9  C   UNK N   1      31.663  16.809   6.613  0.00  0.00     0.026 A 
BRANCH   7  10
HETATM   10  O   UNK N   1      28.189  17.851   7.130  0.00  0.00    -0.311 OA
BRANCH  10  11
HETATM   11  C   UNK N   1      27.674  18.762   6.256  0.00  0.00     0.076 A 
HETATM   12  C   UNK N   1      27.353  18.409   4.928  0.00  0.00     0.037 A 
HETATM   13  C   UNK N   1      26.844  19.356   4.041  0.00  0.00     0.003 A 
HETATM   14  C   UNK N   1      26.654  20.671   4.465  0.00  0.00     0.000 A 
HETATM   15  C   UNK N   1      26.981  21.037   5.775  0.00  0.00     0.003 A 
HETATM   16  C   UNK N   1      27.495  20.087   6.666  0.00  0.00     0.037 A 
ENDBRANCH  10  11
ENDBRANCH   7  10
ENDBRANCH   1   4
BRANCH   1  17
HETATM   17  C   UNK N   1      34.930  15.831   8.052  0.00  0.00     0.196 C 
BRANCH  17  18
HETATM   18  C   UNK N   1      34.695  15.152   9.415  0.00  0.00     0.219 C 
BRANCH  18  19
HETATM   19  C   UNK N   1      36.065  14.666   9.935  0.00  0.00     0.422 C 
HETATM   20  F   UNK N   1      36.751  15.702  10.546  0.00  0.00    -0.168 F 
HETATM   21  F   UNK N   1      35.912  13.611  10.819  0.00  0.00    -0.168 F 
HETATM   22  F   UNK N   1      36.841  14.217   8.881  0.00  0.00    -0.168 F 
ENDBRANCH  18  19
BRANCH  18  23
HETATM   23  C   UNK N   1      33.594  14.101   9.183  0.00  0.00     0.279 C 
HETATM   24  N   UNK N   1      32.320  14.180   9.659  0.00  0.00    -0.235 N 
HETATM   25  H   UNK N   1      31.699  13.450   9.432  0.00  0.00     0.197 HD
HETATM   26  O   UNK N   1      33.887  13.122   8.514  0.00  0.00    -0.268 OA
BRANCH  24  27
HETATM   27  O   UNK N   1      31.859  15.182  10.412  0.00  0.00    -0.287 OA
HETATM   28  H   UNK N   1      30.904  15.298  10.539  0.00  0.00     0.244 HD
ENDBRANCH  24  27
ENDBRANCH  18  23
BRANCH  18  29
HETATM   29  N   UNK N   1      34.160  16.108  10.380  0.00  0.00    -0.406 N 
HETATM   30  H   UNK N   1      33.970  17.062  10.688  0.00  0.00     0.151 HD
HETATM   31  H   UNK N   1      33.783  15.525  11.128  0.00  0.00     0.151 HD
ENDBRANCH  18  29
ENDBRANCH  17  18
ENDBRANCH   1  17
TORSDOF 9
ENDMDL
MODEL 4
REMARK VINA RESULT:      -7.5     10.935     13.597
REMARK  9 active torsions:
REMARK  status: ('A' for Active; 'I' for Inactive)
REMARK    1  A    between atoms: C_6  and  O_7 
REMARK    2  A    between atoms: O_7  and  C_8 
REMARK    3  A    between atoms: C_13  and  S_14 
REMARK    4  A    between atoms: S_14  and  C_17 
REMARK    5  A    between atoms: C_17  and  C_18 
REMARK    6  A    between atoms: C_18  and  C_19 
REMARK    7  A    between atoms: C_18  and  C_24 
REMARK    8  A    between atoms: C_18  and  N_23 
REMARK       I    between atoms: C_24  and  N_26 
REMARK    9  A    between atoms: N_26  and  O_27 
ROOT
HETATM    1  S   UNK N   1      34.139  17.755   8.096  0.00  0.00     0.178 S 
HETATM    2  O   UNK N   1      34.820  17.434   6.756  0.00  0.00    -0.223 OA
HETATM    3  O   UNK N   1      34.536  19.232   8.243  0.00  0.00    -0.223 OA
ENDROOT
BRANCH   1   4
HETATM    4  C   UNK N   1      32.390  17.580   7.819  0.00  0.00     0.059 A 
HETATM    5  C   UNK N   1      31.445  18.008   8.761  0.00  0.00     0.026 A 
HETATM    6  C   UNK N   1      30.081  17.994   8.435  0.00  0.00     0.039 A 
HETATM    7  C   UNK N   1      29.671  17.580   7.160  0.00  0.00     0.076 A 
HETATM    8  C   UNK N   1      30.629  17.113   6.247  0.00  0.00     0.039 A 
HETATM    9  C   UNK N   1      31.976  17.119   6.574  0.00  0.00     0.026 A 
BRANCH   7  10
HETATM   10  O   UNK N   1      28.360  17.658   6.810  0.00  0.00    -0.311 OA
BRANCH  10  11
HETATM   11  C   UNK N   1      27.819  18.679   6.084  0.00  0.00     0.076 A 
HETATM   12  C   UNK N   1      27.603  18.561   4.695  0.00  0.00     0.037 A 
HETATM   13  C   UNK N   1      27.066  19.619   3.964  0.00  0.00     0.003 A 
HETATM   14  C   UNK N   1      26.742  20.813   4.609  0.00  0.00     0.000 A 
HETATM   15  C   UNK N   1      26.964  20.947   5.984  0.00  0.00     0.003 A 
HETATM   16  C   UNK N   1      27.506  19.885   6.718  0.00  0.00     0.037 A 
ENDBRANCH  10  11
ENDBRANCH   7  10
ENDBRANCH   1   4
BRANCH   1  17
HETATM   17  C   UNK N   1      34.951  16.679   9.334  0.00  0.00     0.196 C 
BRANCH  17  18
HETATM   18  C   UNK N   1      34.877  15.157   9.103  0.00  0.00     0.219 C 
BRANCH  18  19
HETATM   19  C   UNK N   1      33.812  14.591  10.068  0.00  0.00     0.422 C 
HETATM   20  F   UNK N   1      33.936  15.164  11.322  0.00  0.00    -0.168 F 
HETATM   21  F   UNK N   1      32.536  14.802   9.573  0.00  0.00    -0.168 F 
HETATM   22  F   UNK N   1      33.982  13.226  10.215  0.00  0.00    -0.168 F 
ENDBRANCH  18  19
BRANCH  18  23
HETATM   23  C   UNK N   1      36.320  14.636   9.230  0.00  0.00     0.279 C 
HETATM   24  N   UNK N   1      37.211  15.018  10.187  0.00  0.00    -0.235 N 
HETATM   25  H   UNK N   1      38.105  14.604  10.175  0.00  0.00     0.197 HD
HETATM   26  O   UNK N   1      36.691  13.810   8.411  0.00  0.00    -0.268 OA
BRANCH  24  27
HETATM   27  O   UNK N   1      36.953  15.918  11.139  0.00  0.00    -0.287 OA
HETATM   28  H   UNK N   1      36.337  15.705  11.858  0.00  0.00     0.244 HD
ENDBRANCH  24  27
ENDBRANCH  18  23
BRANCH  18  29
HETATM   29  N   UNK N   1      34.449  14.865   7.738  0.00  0.00    -0.406 N 
HETATM   30  H   UNK N   1      33.851  15.035   6.929  0.00  0.00     0.151 HD
HETATM   31  H   UNK N   1      35.060  14.104   7.441  0.00  0.00     0.151 HD
ENDBRANCH  18  29
ENDBRANCH  17  18
ENDBRANCH   1  17
TORSDOF 9
ENDMDL
MODEL 5
REMARK VINA RESULT:      -7.3     13.946     15.844
REMARK  9 active torsions:
REMARK  status: ('A' for Active; 'I' for Inactive)
REMARK    1  A    between atoms: C_6  and  O_7 
REMARK    2  A    between atoms: O_7  and  C_8 
REMARK    3  A    between atoms: C_13  and  S_14 
REMARK    4  A    between atoms: S_14  and  C_17 
REMARK    5  A    between atoms: C_17  and  C_18 
REMARK    6  A    between atoms: C_18  and  C_19 
REMARK    7  A    between atoms: C_18  and  C_24 
REMARK    8  A    between atoms: C_18  and  N_23 
REMARK       I    between atoms: C_24  and  N_26 
REMARK    9  A    between atoms: N_26  and  O_27 
ROOT
HETATM    1  S   UNK N   1      36.610  13.365  10.979  0.00  0.00     0.178 S 
HETATM    2  O   UNK N   1      38.107  13.028  10.896  0.00  0.00    -0.223 OA
HETATM    3  O   UNK N   1      36.040  12.241  10.100  0.00  0.00    -0.223 OA
ENDROOT
BRANCH   1   4
HETATM    4  C   UNK N   1      36.146  13.152  12.683  0.00  0.00     0.059 A 
HETATM    5  C   UNK N   1      36.743  13.893  13.711  0.00  0.00     0.026 A 
HETATM    6  C   UNK N   1      36.238  13.804  15.017  0.00  0.00     0.039 A 
HETATM    7  C   UNK N   1      35.122  12.998  15.282  0.00  0.00     0.076 A 
HETATM    8  C   UNK N   1      34.568  12.229  14.248  0.00  0.00     0.039 A 
HETATM    9  C   UNK N   1      35.073  12.311  12.960  0.00  0.00     0.026 A 
BRANCH   7  10
HETATM   10  O   UNK N   1      34.573  12.987  16.526  0.00  0.00    -0.311 OA
BRANCH  10  11
HETATM   11  C   UNK N   1      35.098  12.314  17.590  0.00  0.00     0.076 A 
HETATM   12  C   UNK N   1      35.611  11.007  17.454  0.00  0.00     0.037 A 
HETATM   13  C   UNK N   1      36.128  10.325  18.555  0.00  0.00     0.003 A 
HETATM   14  C   UNK N   1      36.135  10.938  19.809  0.00  0.00     0.000 A 
HETATM   15  C   UNK N   1      35.618  12.229  19.959  0.00  0.00     0.003 A 
HETATM   16  C   UNK N   1      35.096  12.912  18.854  0.00  0.00     0.037 A 
ENDBRANCH  10  11
ENDBRANCH   7  10
ENDBRANCH   1   4
BRANCH   1  17
HETATM   17  C   UNK N   1      36.432  15.018  10.213  0.00  0.00     0.196 C 
BRANCH  17  18
HETATM   18  C   UNK N   1      35.112  15.315   9.476  0.00  0.00     0.219 C 
BRANCH  18  19
HETATM   19  C   UNK N   1      35.292  14.877   8.006  0.00  0.00     0.422 C 
HETATM   20  F   UNK N   1      34.429  13.840   7.695  0.00  0.00    -0.168 F 
HETATM   21  F   UNK N   1      35.084  15.943   7.145  0.00  0.00    -0.168 F 
HETATM   22  F   UNK N   1      36.582  14.422   7.801  0.00  0.00    -0.168 F 
ENDBRANCH  18  19
BRANCH  18  23
HETATM   23  C   UNK N   1      34.789  16.794   9.757  0.00  0.00     0.279 C 
HETATM   24  N   UNK N   1      33.595  17.399   9.506  0.00  0.00    -0.235 N 
HETATM   25  H   UNK N   1      33.503  18.350   9.742  0.00  0.00     0.197 HD
HETATM   26  O   UNK N   1      35.675  17.476  10.249  0.00  0.00    -0.268 OA
BRANCH  24  27
HETATM   27  O   UNK N   1      32.541  16.786   8.962  0.00  0.00    -0.287 OA
HETATM   28  H   UNK N   1      32.341  16.903   8.020  0.00  0.00     0.244 HD
ENDBRANCH  24  27
ENDBRANCH  18  23
BRANCH  18  29
HETATM   29  N   UNK N   1      34.017  14.535  10.047  0.00  0.00    -0.406 N 
HETATM   30  H   UNK N   1      33.042  14.427  10.325  0.00  0.00     0.151 HD
HETATM   31  H   UNK N   1      34.448  13.644  10.294  0.00  0.00     0.151 HD
ENDBRANCH  18  29
ENDBRANCH  17  18
ENDBRANCH   1  17
TORSDOF 9
ENDMDL
MODEL 6
REMARK VINA RESULT:      -7.1     13.218     16.100
REMARK  9 active torsions:
REMARK  status: ('A' for Active; 'I' for Inactive)
REMARK    1  A    between atoms: C_6  and  O_7 
REMARK    2  A    between atoms: O_7  and  C_8 
REMARK    3  A    between atoms: C_13  and  S_14 
REMARK    4  A    between atoms: S_14  and  C_17 
REMARK    5  A    between atoms: C_17  and  C_18 
REMARK    6  A    between atoms: C_18  and  C_19 
REMARK    7  A    between atoms: C_18  and  C_24 
REMARK    8  A    between atoms: C_18  and  N_23 
REMARK       I    between atoms: C_24  and  N_26 
REMARK    9  A    between atoms: N_26  and  O_27 
ROOT
HETATM    1  S   UNK N   1      35.669  14.369  11.728  0.00  0.00     0.178 S 
HETATM    2  O   UNK N   1      36.994  13.925  11.090  0.00  0.00    -0.223 OA
HETATM    3  O   UNK N   1      36.200  15.387  12.749  0.00  0.00    -0.223 OA
ENDROOT
BRANCH   1   4
HETATM    4  C   UNK N   1      34.741  15.170  10.439  0.00  0.00     0.059 A 
HETATM    5  C   UNK N   1      33.612  14.576   9.861  0.00  0.00     0.026 A 
HETATM    6  C   UNK N   1      32.823  15.308   8.961  0.00  0.00     0.039 A 
HETATM    7  C   UNK N   1      33.150  16.639   8.667  0.00  0.00     0.076 A 
HETATM    8  C   UNK N   1      34.310  17.201   9.221  0.00  0.00     0.039 A 
HETATM    9  C   UNK N   1      35.093  16.473  10.103  0.00  0.00     0.026 A 
BRANCH   7  10
HETATM   10  O   UNK N   1      32.332  17.379   7.872  0.00  0.00    -0.311 OA
BRANCH  10  11
HETATM   11  C   UNK N   1      31.002  17.573   8.110  0.00  0.00     0.076 A 
HETATM   12  C   UNK N   1      30.017  17.051   7.246  0.00  0.00     0.037 A 
HETATM   13  C   UNK N   1      28.662  17.273   7.492  0.00  0.00     0.003 A 
HETATM   14  C   UNK N   1      28.274  18.025   8.601  0.00  0.00     0.000 A 
HETATM   15  C   UNK N   1      29.242  18.559   9.457  0.00  0.00     0.003 A 
HETATM   16  C   UNK N   1      30.602  18.338   9.209  0.00  0.00     0.037 A 
ENDBRANCH  10  11
ENDBRANCH   7  10
ENDBRANCH   1   4
BRANCH   1  17
HETATM   17  C   UNK N   1      34.974  12.872  12.520  0.00  0.00     0.196 C 
BRANCH  17  18
HETATM   18  C   UNK N   1      35.769  12.260  13.690  0.00  0.00     0.219 C 
BRANCH  18  19
HETATM   19  C   UNK N   1      35.462  10.747  13.719  0.00  0.00     0.422 C 
HETATM   20  F   UNK N   1      34.120  10.516  13.468  0.00  0.00    -0.168 F 
HETATM   21  F   UNK N   1      36.241  10.068  12.797  0.00  0.00    -0.168 F 
HETATM   22  F   UNK N   1      35.748  10.228  14.969  0.00  0.00    -0.168 F 
ENDBRANCH  18  19
BRANCH  18  23
HETATM   23  C   UNK N   1      35.410  13.096  14.932  0.00  0.00     0.279 C 
HETATM   24  N   UNK N   1      36.258  13.940  15.583  0.00  0.00    -0.235 N 
HETATM   25  H   UNK N   1      35.909  14.433  16.360  0.00  0.00     0.197 HD
HETATM   26  O   UNK N   1      34.272  12.997  15.363  0.00  0.00    -0.268 OA
BRANCH  24  27
HETATM   27  O   UNK N   1      37.531  14.143  15.235  0.00  0.00    -0.287 OA
HETATM   28  H   UNK N   1      38.029  13.447  14.777  0.00  0.00     0.244 HD
ENDBRANCH  24  27
ENDBRANCH  18  23
BRANCH  18  29
HETATM   29  N   UNK N   1      37.204  12.425  13.479  0.00  0.00    -0.406 N 
HETATM   30  H   UNK N   1      38.137  12.046  13.317  0.00  0.00     0.151 HD
HETATM   31  H   UNK N   1      37.346  13.435  13.507  0.00  0.00     0.151 HD
ENDBRANCH  18  29
ENDBRANCH  17  18
ENDBRANCH   1  17
TORSDOF 9
ENDMDL
MODEL 7
REMARK VINA RESULT:      -7.0      4.405      5.676
REMARK  9 active torsions:
REMARK  status: ('A' for Active; 'I' for Inactive)
REMARK    1  A    between atoms: C_6  and  O_7 
REMARK    2  A    between atoms: O_7  and  C_8 
REMARK    3  A    between atoms: C_13  and  S_14 
REMARK    4  A    between atoms: S_14  and  C_17 
REMARK    5  A    between atoms: C_17  and  C_18 
REMARK    6  A    between atoms: C_18  and  C_19 
REMARK    7  A    between atoms: C_18  and  C_24 
REMARK    8  A    between atoms: C_18  and  N_23 
REMARK       I    between atoms: C_24  and  N_26 
REMARK    9  A    between atoms: N_26  and  O_27 
ROOT
HETATM    1  S   UNK N   1      25.635  16.759   4.017  0.00  0.00     0.178 S 
HETATM    2  O   UNK N   1      25.915  16.054   2.681  0.00  0.00    -0.223 OA
HETATM    3  O   UNK N   1      24.434  17.626   3.608  0.00  0.00    -0.223 OA
ENDROOT
BRANCH   1   4
HETATM    4  C   UNK N   1      25.152  15.484   5.160  0.00  0.00     0.059 A 
HETATM    5  C   UNK N   1      24.421  14.361   4.751  0.00  0.00     0.026 A 
HETATM    6  C   UNK N   1      24.198  13.309   5.652  0.00  0.00     0.039 A 
HETATM    7  C   UNK N   1      24.731  13.372   6.947  0.00  0.00     0.076 A 
HETATM    8  C   UNK N   1      25.420  14.525   7.351  0.00  0.00     0.039 A 
HETATM    9  C   UNK N   1      25.633  15.568   6.463  0.00  0.00     0.026 A 
BRANCH   7  10
HETATM   10  O   UNK N   1      24.598  12.313   7.788  0.00  0.00    -0.311 OA
BRANCH  10  11
HETATM   11  C   UNK N   1      23.769  12.292   8.871  0.00  0.00     0.076 A 
HETATM   12  C   UNK N   1      22.395  12.588   8.752  0.00  0.00     0.037 A 
HETATM   13  C   UNK N   1      21.563  12.580   9.872  0.00  0.00     0.003 A 
HETATM   14  C   UNK N   1      22.095  12.282  11.127  0.00  0.00     0.000 A 
HETATM   15  C   UNK N   1      23.458  11.999  11.260  0.00  0.00     0.003 A 
HETATM   16  C   UNK N   1      24.293  12.010  10.136  0.00  0.00     0.037 A 
ENDBRANCH  10  11
ENDBRANCH   7  10
ENDBRANCH   1   4
BRANCH   1  17
HETATM   17  C   UNK N   1      27.130  17.750   4.377  0.00  0.00     0.196 C 
BRANCH  17  18
HETATM   18  C   UNK N   1      26.961  18.971   5.303  0.00  0.00     0.219 C 
BRANCH  18  19
HETATM   19  C   UNK N   1      27.375  20.224   4.500  0.00  0.00     0.422 C 
HETATM   20  F   UNK N   1      28.754  20.321   4.423  0.00  0.00    -0.168 F 
HETATM   21  F   UNK N   1      26.828  20.197   3.228  0.00  0.00    -0.168 F 
HETATM   22  F   UNK N   1      26.911  21.365   5.129  0.00  0.00    -0.168 F 
ENDBRANCH  18  19
BRANCH  18  23
HETATM   23  C   UNK N   1      27.743  18.643   6.588  0.00  0.00     0.279 C 
HETATM   24  N   UNK N   1      27.565  19.252   7.793  0.00  0.00    -0.235 N 
HETATM   25  H   UNK N   1      28.117  18.947   8.549  0.00  0.00     0.197 HD
HETATM   26  O   UNK N   1      28.587  17.763   6.520  0.00  0.00    -0.268 OA
BRANCH  24  27
HETATM   27  O   UNK N   1      26.690  20.237   8.016  0.00  0.00    -0.287 OA
HETATM   28  H   UNK N   1      26.968  21.163   7.942  0.00  0.00     0.244 HD
ENDBRANCH  24  27
ENDBRANCH  18  23
BRANCH  18  29
HETATM   29  N   UNK N   1      25.564  19.128   5.696  0.00  0.00    -0.406 N 
HETATM   30  H   UNK N   1      24.763  18.885   6.278  0.00  0.00     0.151 HD
HETATM   31  H   UNK N   1      25.207  19.849   5.068  0.00  0.00     0.151 HD
ENDBRANCH  18  29
ENDBRANCH  17  18
ENDBRANCH   1  17
TORSDOF 9
ENDMDL
MODEL 8
REMARK VINA RESULT:      -7.0     13.772     16.733
REMARK  9 active torsions:
REMARK  status: ('A' for Active; 'I' for Inactive)
REMARK    1  A    between atoms: C_6  and  O_7 
REMARK    2  A    between atoms: O_7  and  C_8 
REMARK    3  A    between atoms: C_13  and  S_14 
REMARK    4  A    between atoms: S_14  and  C_17 
REMARK    5  A    between atoms: C_17  and  C_18 
REMARK    6  A    between atoms: C_18  and  C_19 
REMARK    7  A    between atoms: C_18  and  C_24 
REMARK    8  A    between atoms: C_18  and  N_23 
REMARK       I    between atoms: C_24  and  N_26 
REMARK    9  A    between atoms: N_26  and  O_27 
ROOT
HETATM    1  S   UNK N   1      35.943  14.175  11.943  0.00  0.00     0.178 S 
HETATM    2  O   UNK N   1      37.263  13.525  11.501  0.00  0.00    -0.223 OA
HETATM    3  O   UNK N   1      36.469  15.114  13.041  0.00  0.00    -0.223 OA
ENDROOT
BRANCH   1   4
HETATM    4  C   UNK N   1      35.347  15.093  10.541  0.00  0.00     0.059 A 
HETATM    5  C   UNK N   1      35.086  16.468  10.612  0.00  0.00     0.026 A 
HETATM    6  C   UNK N   1      34.768  17.178   9.444  0.00  0.00     0.039 A 
HETATM    7  C   UNK N   1      34.741  16.516   8.209  0.00  0.00     0.076 A 
HETATM    8  C   UNK N   1      34.961  15.131   8.165  0.00  0.00     0.039 A 
HETATM    9  C   UNK N   1      35.266  14.429   9.321  0.00  0.00     0.026 A 
BRANCH   7  10
HETATM   10  O   UNK N   1      34.529  17.221   7.066  0.00  0.00    -0.311 OA
BRANCH  10  11
HETATM   11  C   UNK N   1      33.346  17.245   6.387  0.00  0.00     0.076 A 
HETATM   12  C   UNK N   1      33.297  17.502   5.001  0.00  0.00     0.037 A 
HETATM   13  C   UNK N   1      32.078  17.541   4.325  0.00  0.00     0.003 A 
HETATM   14  C   UNK N   1      30.891  17.329   5.025  0.00  0.00     0.000 A 
HETATM   15  C   UNK N   1      30.924  17.086   6.402  0.00  0.00     0.003 A 
HETATM   16  C   UNK N   1      32.148  17.050   7.082  0.00  0.00     0.037 A 
ENDBRANCH  10  11
ENDBRANCH   7  10
ENDBRANCH   1   4
BRANCH   1  17
HETATM   17  C   UNK N   1      34.918  12.814  12.610  0.00  0.00     0.196 C 
BRANCH  17  18
HETATM   18  C   UNK N   1      35.472  12.045  13.826  0.00  0.00     0.219 C 
BRANCH  18  19
HETATM   19  C   UNK N   1      34.805  10.652  13.838  0.00  0.00     0.422 C 
HETATM   20  F   UNK N   1      35.193   9.935  14.956  0.00  0.00    -0.168 F 
HETATM   21  F   UNK N   1      33.425  10.767  13.803  0.00  0.00    -0.168 F 
HETATM   22  F   UNK N   1      35.192   9.930  12.724  0.00  0.00    -0.168 F 
ENDBRANCH  18  19
BRANCH  18  23
HETATM   23  C   UNK N   1      35.257  12.962  15.044  0.00  0.00     0.279 C 
HETATM   24  N   UNK N   1      36.220  13.724  15.633  0.00  0.00    -0.235 N 
HETATM   25  H   UNK N   1      35.959  14.283  16.401  0.00  0.00     0.197 HD
HETATM   26  O   UNK N   1      34.131  13.014  15.513  0.00  0.00    -0.268 OA
BRANCH  24  27
HETATM   27  O   UNK N   1      37.496  13.761  15.239  0.00  0.00    -0.287 OA
HETATM   28  H   UNK N   1      37.934  14.613  15.085  0.00  0.00     0.244 HD
ENDBRANCH  24  27
ENDBRANCH  18  23
BRANCH  18  29
HETATM   29  N   UNK N   1      36.914  11.853  13.700  0.00  0.00    -0.406 N 
HETATM   30  H   UNK N   1      37.822  12.106  13.311  0.00  0.00     0.151 HD
HETATM   31  H   UNK N   1      37.116  11.064  14.313  0.00  0.00     0.151 HD
ENDBRANCH  18  29
ENDBRANCH  17  18
ENDBRANCH   1  17
TORSDOF 9
ENDMDL
MODEL 9
REMARK VINA RESULT:      -7.0     15.973     17.642
REMARK  9 active torsions:
REMARK  status: ('A' for Active; 'I' for Inactive)
REMARK    1  A    between atoms: C_6  and  O_7 
REMARK    2  A    between atoms: O_7  and  C_8 
REMARK    3  A    between atoms: C_13  and  S_14 
REMARK    4  A    between atoms: S_14  and  C_17 
REMARK    5  A    between atoms: C_17  and  C_18 
REMARK    6  A    between atoms: C_18  and  C_19 
REMARK    7  A    between atoms: C_18  and  C_24 
REMARK    8  A    between atoms: C_18  and  N_23 
REMARK       I    between atoms: C_24  and  N_26 
REMARK    9  A    between atoms: N_26  and  O_27 
ROOT
HETATM    1  S   UNK N   1      36.165  13.111  14.788  0.00  0.00     0.178 S 
HETATM    2  O   UNK N   1      34.746  13.632  14.514  0.00  0.00    -0.223 OA
HETATM    3  O   UNK N   1      36.884  14.443  15.055  0.00  0.00    -0.223 OA
ENDROOT
BRANCH   1   4
HETATM    4  C   UNK N   1      36.056  12.129  16.267  0.00  0.00     0.059 A 
HETATM    5  C   UNK N   1      35.443  12.610  17.433  0.00  0.00     0.026 A 
HETATM    6  C   UNK N   1      35.243  11.748  18.520  0.00  0.00     0.039 A 
HETATM    7  C   UNK N   1      35.629  10.403  18.428  0.00  0.00     0.076 A 
HETATM    8  C   UNK N   1      36.281   9.953  17.271  0.00  0.00     0.039 A 
HETATM    9  C   UNK N   1      36.487  10.808  16.199  0.00  0.00     0.026 A 
BRANCH   7  10
HETATM   10  O   UNK N   1      35.347   9.545  19.444  0.00  0.00    -0.311 OA
BRANCH  10  11
HETATM   11  C   UNK N   1      34.112   9.401  20.006  0.00  0.00     0.076 A 
HETATM   12  C   UNK N   1      33.799   9.979  21.254  0.00  0.00     0.037 A 
HETATM   13  C   UNK N   1      32.538   9.808  21.824  0.00  0.00     0.003 A 
HETATM   14  C   UNK N   1      31.574   9.052  21.157  0.00  0.00     0.000 A 
HETATM   15  C   UNK N   1      31.876   8.462  19.925  0.00  0.00     0.003 A 
HETATM   16  C   UNK N   1      33.143   8.632  19.355  0.00  0.00     0.037 A 
ENDBRANCH  10  11
ENDBRANCH   7  10
ENDBRANCH   1   4
BRANCH   1  17
HETATM   17  C   UNK N   1      36.709  12.313  13.234  0.00  0.00     0.196 C 
BRANCH  17  18
HETATM   18  C   UNK N   1      36.649  13.160  11.948  0.00  0.00     0.219 C 
BRANCH  18  19
HETATM   19  C   UNK N   1      35.269  12.919  11.297  0.00  0.00     0.422 C 
HETATM   20  F   UNK N   1      34.649  11.818  11.861  0.00  0.00    -0.168 F 
HETATM   21  F   UNK N   1      34.461  14.037  11.425  0.00  0.00    -0.168 F 
HETATM   22  F   UNK N   1      35.419  12.666   9.945  0.00  0.00    -0.168 F 
ENDBRANCH  18  19
BRANCH  18  23
HETATM   23  C   UNK N   1      37.906  12.795  11.137  0.00  0.00     0.279 C 
HETATM   24  N   UNK N   1      38.603  13.652  10.340  0.00  0.00    -0.235 N 
HETATM   25  H   UNK N   1      39.402  13.305   9.881  0.00  0.00     0.197 HD
HETATM   26  O   UNK N   1      38.312  11.646  11.222  0.00  0.00    -0.268 OA
BRANCH  24  27
HETATM   27  O   UNK N   1      38.274  14.930  10.141  0.00  0.00    -0.287 OA
HETATM   28  H   UNK N   1      38.701  15.441   9.435  0.00  0.00     0.244 HD
ENDBRANCH  24  27
ENDBRANCH  18  23
BRANCH  18  29
HETATM   29  N   UNK N   1      36.756  14.582  12.263  0.00  0.00    -0.406 N 
HETATM   30  H   UNK N   1      36.684  15.566  12.006  0.00  0.00     0.151 HD
HETATM   31  H   UNK N   1      37.058  14.599  13.238  0.00  0.00     0.151 HD
ENDBRANCH  18  29
ENDBRANCH  17  18
ENDBRANCH   1  17
TORSDOF 9
ENDMDL
