MODEL 1
REMARK VINA RESULT:      -8.7      0.000      0.000
REMARK  5 active torsions:
REMARK  status: ('A' for Active; 'I' for Inactive)
REMARK    1  A    between atoms: C_10  and  C_11 
REMARK    2  A    between atoms: C_15  and  C_18 
REMARK    3  A    between atoms: C_16  and  O_17 
REMARK    4  A    between atoms: C_22  and  C_24 
REMARK    5  A    between atoms: C_24  and  N_25 
REMARK       I    between atoms: N_25  and  C_26 
REMARK       I    between atoms: C_26  and  N_28 
ROOT
HETATM    1  C   UNK N   1      26.954  18.952   5.105  0.00  0.00     0.025 A 
HETATM    2  C   UNK N   1      27.150  20.057   4.268  0.00  0.00     0.016 A 
HETATM    3  C   UNK N   1      26.149  20.445   3.362  0.00  0.00     0.002 A 
HETATM    4  C   UNK N   1      24.941  19.735   3.281  0.00  0.00     0.015 A 
HETATM    5  C   UNK N   1      24.717  18.625   4.106  0.00  0.00     0.008 A 
HETATM    6  C   UNK N   1      25.742  18.242   5.021  0.00  0.00     0.089 A 
ENDROOT
BRANCH   5   7
HETATM    7  C   UNK N   1      23.430  17.847   4.041  0.00  0.00    -0.023 A 
HETATM    8  C   UNK N   1      23.255  16.534   4.513  0.00  0.00     0.012 A 
HETATM    9  C   UNK N   1      21.987  15.913   4.390  0.00  0.00     0.001 A 
HETATM   10  C   UNK N   1      20.900  16.603   3.799  0.00  0.00     0.009 A 
HETATM   11  C   UNK N   1      21.100  17.910   3.337  0.00  0.00    -0.040 A 
HETATM   12  C   UNK N   1      22.335  18.471   3.473  0.00  0.00     0.021 A 
BRANCH  11  13
HETATM   13  C   UNK N   1      20.113  18.820   2.687  0.00  0.00     0.162 C 
BRANCH  13  14
HETATM   14  N   UNK N   1      20.370  19.247   1.342  0.00  0.00    -0.339 N 
HETATM   15  C   UNK N   1      20.765  20.530   1.135  0.00  0.00     0.314 C 
HETATM   16  O   UNK N   1      20.990  20.918  -0.001  0.00  0.00    -0.248 OA
HETATM   17  N   UNK N   1      20.911  21.388   2.169  0.00  0.00    -0.352 N 
HETATM   18  H   UNK N   1      20.730  21.085   3.089  0.00  0.00     0.160 HD
HETATM   19  H   UNK N   1      21.199  22.314   2.004  0.00  0.00     0.160 HD
HETATM   20  H   UNK N   1      20.265  18.625   0.587  0.00  0.00     0.164 HD
ENDBRANCH  13  14
ENDBRANCH  11  13
ENDBRANCH   5   7
BRANCH   6  21
HETATM   21  O   UNK N   1      25.566  17.182   5.828  0.00  0.00    -0.359 OA
HETATM   22  H   UNK N   1      26.306  16.776   6.236  0.00  0.00     0.217 HD
ENDBRANCH   6  21
BRANCH   1  23
HETATM   23  C   UNK N   1      28.002  18.514   6.082  0.00  0.00     0.046 A 
HETATM   24  N   UNK N   1      28.907  17.526   5.871  0.00  0.00    -0.355 N 
HETATM   25  C   UNK N   1      29.641  17.477   7.004  0.00  0.00     0.045 A 
HETATM   26  H   UNK N   1      29.007  16.965   5.068  0.00  0.00     0.166 HD
HETATM   27  C   UNK N   1      30.703  16.630   7.298  0.00  0.00     0.047 A 
HETATM   28  C   UNK N   1      29.217  18.404   7.902  0.00  0.00     0.008 A 
HETATM   29  C   UNK N   1      31.312  16.778   8.562  0.00  0.00     0.090 A 
HETATM   30  N   UNK N   1      30.862  17.724   9.450  0.00  0.00    -0.374 N 
HETATM   31  C   UNK N   1      29.817  18.549   9.145  0.00  0.00     0.101 A 
ATOM     32  HN  UNK N   1      31.317  17.813  10.359  1.00  0.00     0.164 HD
HETATM   33  C   UNK N   1      28.178  19.080   7.350  0.00  0.00     0.045 A 
ENDBRANCH   1  23
TORSDOF 5
ENDMDL
MODEL 2
REMARK VINA RESULT:      -8.6      2.409      8.783
REMARK  5 active torsions:
REMARK  status: ('A' for Active; 'I' for Inactive)
REMARK    1  A    between atoms: C_10  and  C_11 
REMARK    2  A    between atoms: C_15  and  C_18 
REMARK    3  A    between atoms: C_16  and  O_17 
REMARK    4  A    between atoms: C_22  and  C_24 
REMARK    5  A    between atoms: C_24  and  N_25 
REMARK       I    between atoms: N_25  and  C_26 
REMARK       I    between atoms: C_26  and  N_28 
ROOT
HETATM    1  C   UNK N   1      24.902  18.916   3.941  0.00  0.00     0.025 A 
HETATM    2  C   UNK N   1      25.274  19.956   3.081  0.00  0.00     0.016 A 
HETATM    3  C   UNK N   1      26.510  20.603   3.246  0.00  0.00     0.002 A 
HETATM    4  C   UNK N   1      27.389  20.218   4.271  0.00  0.00     0.015 A 
HETATM    5  C   UNK N   1      27.043  19.180   5.146  0.00  0.00     0.008 A 
HETATM    6  C   UNK N   1      25.784  18.533   4.967  0.00  0.00     0.089 A 
ENDROOT
BRANCH   5   7
HETATM    7  C   UNK N   1      27.967  18.747   6.253  0.00  0.00    -0.023 A 
HETATM    8  C   UNK N   1      27.862  19.147   7.597  0.00  0.00     0.012 A 
HETATM    9  C   UNK N   1      28.801  18.664   8.542  0.00  0.00     0.001 A 
HETATM   10  C   UNK N   1      29.839  17.785   8.145  0.00  0.00     0.009 A 
HETATM   11  C   UNK N   1      29.921  17.402   6.801  0.00  0.00    -0.040 A 
HETATM   12  C   UNK N   1      29.000  17.889   5.922  0.00  0.00     0.021 A 
BRANCH  11  13
HETATM   13  C   UNK N   1      30.918  16.496   6.159  0.00  0.00     0.162 C 
BRANCH  13  14
HETATM   14  N   UNK N   1      32.304  16.682   6.476  0.00  0.00    -0.339 N 
HETATM   15  C   UNK N   1      33.095  17.315   5.571  0.00  0.00     0.314 C 
HETATM   16  O   UNK N   1      34.279  17.486   5.817  0.00  0.00    -0.248 OA
HETATM   17  N   UNK N   1      32.592  17.759   4.398  0.00  0.00    -0.352 N 
HETATM   18  H   UNK N   1      31.638  17.624   4.189  0.00  0.00     0.160 HD
HETATM   19  H   UNK N   1      33.177  18.216   3.753  0.00  0.00     0.160 HD
HETATM   20  H   UNK N   1      32.674  16.360   7.329  0.00  0.00     0.164 HD
ENDBRANCH  13  14
ENDBRANCH  11  13
ENDBRANCH   5   7
BRANCH   6  21
HETATM   21  O   UNK N   1      25.416  17.534   5.787  0.00  0.00    -0.359 OA
HETATM   22  H   UNK N   1      24.670  17.006   5.577  0.00  0.00     0.217 HD
ENDBRANCH   6  21
BRANCH   1  23
HETATM   23  C   UNK N   1      23.591  18.206   3.790  0.00  0.00     0.046 A 
HETATM   24  N   UNK N   1      23.427  16.859   3.769  0.00  0.00    -0.355 N 
HETATM   25  C   UNK N   1      22.098  16.672   3.617  0.00  0.00     0.045 A 
HETATM   26  H   UNK N   1      24.124  16.168   3.846  0.00  0.00     0.166 HD
HETATM   27  C   UNK N   1      21.408  15.468   3.535  0.00  0.00     0.047 A 
HETATM   28  C   UNK N   1      21.441  17.860   3.545  0.00  0.00     0.008 A 
HETATM   29  C   UNK N   1      20.007  15.540   3.376  0.00  0.00     0.090 A 
HETATM   30  N   UNK N   1      19.371  16.755   3.307  0.00  0.00    -0.374 N 
HETATM   31  C   UNK N   1      20.064  17.928   3.389  0.00  0.00     0.101 A 
ATOM     32  HN  UNK N   1      18.358  16.782   3.191  1.00  0.00     0.164 HD
HETATM   33  C   UNK N   1      22.358  18.854   3.651  0.00  0.00     0.045 A 
ENDBRANCH   1  23
TORSDOF 5
ENDMDL
MODEL 3
REMARK VINA RESULT:      -8.4      9.501     14.993
REMARK  5 active torsions:
REMARK  status: ('A' for Active; 'I' for Inactive)
REMARK    1  A    between atoms: C_10  and  C_11 
REMARK    2  A    between atoms: C_15  and  C_18 
REMARK    3  A    between atoms: C_16  and  O_17 
REMARK    4  A    between atoms: C_22  and  C_24 
REMARK    5  A    between atoms: C_24  and  N_25 
REMARK       I    between atoms: N_25  and  C_26 
REMARK       I    between atoms: C_26  and  N_28 
ROOT
HETATM    1  C   UNK N   1      36.137  14.061   9.603  0.00  0.00     0.025 A 
HETATM    2  C   UNK N   1      37.526  13.891   9.556  0.00  0.00     0.016 A 
HETATM    3  C   UNK N   1      38.181  13.149  10.551  0.00  0.00     0.002 A 
HETATM    4  C   UNK N   1      37.460  12.568  11.606  0.00  0.00     0.015 A 
HETATM    5  C   UNK N   1      36.069  12.722  11.680  0.00  0.00     0.008 A 
HETATM    6  C   UNK N   1      35.416  13.479  10.662  0.00  0.00     0.089 A 
ENDROOT
BRANCH   5   7
HETATM    7  C   UNK N   1      35.270  12.108  12.798  0.00  0.00    -0.023 A 
HETATM    8  C   UNK N   1      34.528  10.918  12.703  0.00  0.00     0.012 A 
HETATM    9  C   UNK N   1      33.817  10.448  13.836  0.00  0.00     0.001 A 
HETATM   10  C   UNK N   1      33.849  11.166  15.056  0.00  0.00     0.009 A 
HETATM   11  C   UNK N   1      34.596  12.349  15.125  0.00  0.00    -0.040 A 
HETATM   12  C   UNK N   1      35.265  12.768  14.014  0.00  0.00     0.021 A 
BRANCH  11  13
HETATM   13  C   UNK N   1      34.774  13.262  16.292  0.00  0.00     0.162 C 
BRANCH  13  14
HETATM   14  N   UNK N   1      35.008  12.675  17.580  0.00  0.00    -0.339 N 
HETATM   15  C   UNK N   1      35.285  13.498  18.624  0.00  0.00     0.314 C 
HETATM   16  O   UNK N   1      35.488  13.024  19.731  0.00  0.00    -0.248 OA
HETATM   17  N   UNK N   1      35.342  14.838  18.457  0.00  0.00    -0.352 N 
HETATM   18  H   UNK N   1      35.182  15.230  17.567  0.00  0.00     0.160 HD
HETATM   19  H   UNK N   1      35.544  15.422  19.223  0.00  0.00     0.160 HD
HETATM   20  H   UNK N   1      34.967  11.700  17.705  0.00  0.00     0.164 HD
ENDBRANCH  13  14
ENDBRANCH  11  13
ENDBRANCH   5   7
BRANCH   6  21
HETATM   21  O   UNK N   1      34.083  13.650  10.698  0.00  0.00    -0.359 OA
HETATM   22  H   UNK N   1      33.518  12.907  10.782  0.00  0.00     0.217 HD
ENDBRANCH   6  21
BRANCH   1  23
HETATM   23  C   UNK N   1      35.407  14.846   8.556  0.00  0.00     0.046 A 
HETATM   24  N   UNK N   1      34.638  15.940   8.789  0.00  0.00    -0.355 N 
HETATM   25  C   UNK N   1      34.186  16.314   7.572  0.00  0.00     0.045 A 
HETATM   26  H   UNK N   1      34.449  16.367   9.656  0.00  0.00     0.166 HD
HETATM   27  C   UNK N   1      33.354  17.383   7.262  0.00  0.00     0.047 A 
HETATM   28  C   UNK N   1      34.654  15.487   6.601  0.00  0.00     0.008 A 
HETATM   29  C   UNK N   1      33.023  17.565   5.902  0.00  0.00     0.090 A 
HETATM   30  N   UNK N   1      33.511  16.714   4.942  0.00  0.00    -0.374 N 
HETATM   31  C   UNK N   1      34.327  15.668   5.264  0.00  0.00     0.101 A 
ATOM     32  HN  UNK N   1      33.258  16.865   3.965  1.00  0.00     0.164 HD
HETATM   33  C   UNK N   1      35.432  14.544   7.190  0.00  0.00     0.045 A 
ENDBRANCH   1  23
TORSDOF 5
ENDMDL
MODEL 4
REMARK VINA RESULT:      -8.3     11.081     14.153
REMARK  5 active torsions:
REMARK  status: ('A' for Active; 'I' for Inactive)
REMARK    1  A    between atoms: C_10  and  C_11 
REMARK    2  A    between atoms: C_15  and  C_18 
REMARK    3  A    between atoms: C_16  and  O_17 
REMARK    4  A    between atoms: C_22  and  C_24 
REMARK    5  A    between atoms: C_24  and  N_25 
REMARK       I    between atoms: N_25  and  C_26 
REMARK       I    between atoms: C_26  and  N_28 
ROOT
HETATM    1  C   UNK N   1      26.482  22.947  -6.797  0.00  0.00     0.025 A 
HETATM    2  C   UNK N   1      25.433  22.290  -7.452  0.00  0.00     0.016 A 
HETATM    3  C   UNK N   1      25.678  21.108  -8.170  0.00  0.00     0.002 A 
HETATM    4  C   UNK N   1      26.971  20.567  -8.242  0.00  0.00     0.015 A 
HETATM    5  C   UNK N   1      28.040  21.202  -7.597  0.00  0.00     0.008 A 
HETATM    6  C   UNK N   1      27.777  22.403  -6.872  0.00  0.00     0.089 A 
ENDROOT
BRANCH   5   7
HETATM    7  C   UNK N   1      29.436  20.643  -7.657  0.00  0.00    -0.023 A 
HETATM    8  C   UNK N   1      30.067  20.167  -8.819  0.00  0.00     0.012 A 
HETATM    9  C   UNK N   1      31.389  19.664  -8.737  0.00  0.00     0.001 A 
HETATM   10  C   UNK N   1      32.077  19.640  -7.500  0.00  0.00     0.009 A 
HETATM   11  C   UNK N   1      31.427  20.121  -6.356  0.00  0.00    -0.040 A 
HETATM   12  C   UNK N   1      30.154  20.595  -6.476  0.00  0.00     0.021 A 
BRANCH  11  13
HETATM   13  C   UNK N   1      31.948  20.193  -4.960  0.00  0.00     0.162 C 
BRANCH  13  14
HETATM   14  N   UNK N   1      31.365  21.155  -4.070  0.00  0.00    -0.339 N 
HETATM   15  C   UNK N   1      32.016  21.443  -2.913  0.00  0.00     0.314 C 
HETATM   16  O   UNK N   1      31.542  22.259  -2.138  0.00  0.00    -0.248 OA
HETATM   17  N   UNK N   1      33.185  20.838  -2.604  0.00  0.00    -0.352 N 
HETATM   18  H   UNK N   1      33.575  20.176  -3.222  0.00  0.00     0.160 HD
HETATM   19  H   UNK N   1      33.646  21.057  -1.763  0.00  0.00     0.160 HD
HETATM   20  H   UNK N   1      30.515  21.598  -4.292  0.00  0.00     0.164 HD
ENDBRANCH  13  14
ENDBRANCH  11  13
ENDBRANCH   5   7
BRANCH   6  21
HETATM   21  O   UNK N   1      28.776  23.043  -6.240  0.00  0.00    -0.359 OA
HETATM   22  H   UNK N   1      29.235  22.620  -5.541  0.00  0.00     0.217 HD
ENDBRANCH   6  21
BRANCH   1  23
HETATM   23  C   UNK N   1      26.254  24.209  -6.023  0.00  0.00     0.046 A 
HETATM   24  N   UNK N   1      26.687  24.442  -4.758  0.00  0.00    -0.355 N 
HETATM   25  C   UNK N   1      26.260  25.690  -4.468  0.00  0.00     0.045 A 
HETATM   26  H   UNK N   1      27.200  23.835  -4.178  0.00  0.00     0.166 HD
HETATM   27  C   UNK N   1      26.444  26.404  -3.289  0.00  0.00     0.047 A 
HETATM   28  C   UNK N   1      25.580  26.231  -5.513  0.00  0.00     0.008 A 
HETATM   29  C   UNK N   1      25.896  27.703  -3.232  0.00  0.00     0.090 A 
HETATM   30  N   UNK N   1      25.214  28.223  -4.305  0.00  0.00    -0.374 N 
HETATM   31  C   UNK N   1      25.042  27.509  -5.455  0.00  0.00     0.101 A 
ATOM     32  HN  UNK N   1      24.826  29.165  -4.241  1.00  0.00     0.164 HD
HETATM   33  C   UNK N   1      25.557  25.318  -6.516  0.00  0.00     0.045 A 
ENDBRANCH   1  23
TORSDOF 5
ENDMDL
MODEL 5
REMARK VINA RESULT:      -8.2      4.894      8.547
REMARK  5 active torsions:
REMARK  status: ('A' for Active; 'I' for Inactive)
REMARK    1  A    between atoms: C_10  and  C_11 
REMARK    2  A    between atoms: C_15  and  C_18 
REMARK    3  A    between atoms: C_16  and  O_17 
REMARK    4  A    between atoms: C_22  and  C_24 
REMARK    5  A    between atoms: C_24  and  N_25 
REMARK       I    between atoms: N_25  and  C_26 
REMARK       I    between atoms: C_26  and  N_28 
ROOT
HETATM    1  C   UNK N   1      34.135  16.161   9.492  0.00  0.00     0.025 A 
HETATM    2  C   UNK N   1      34.916  17.259   9.112  0.00  0.00     0.016 A 
HETATM    3  C   UNK N   1      34.467  18.133   8.109  0.00  0.00     0.002 A 
HETATM    4  C   UNK N   1      33.234  17.923   7.473  0.00  0.00     0.015 A 
HETATM    5  C   UNK N   1      32.431  16.833   7.832  0.00  0.00     0.008 A 
HETATM    6  C   UNK N   1      32.899  15.952   8.852  0.00  0.00     0.089 A 
ENDROOT
BRANCH   5   7
HETATM    7  C   UNK N   1      31.103  16.584   7.167  0.00  0.00    -0.023 A 
HETATM    8  C   UNK N   1      30.851  15.579   6.216  0.00  0.00     0.012 A 
HETATM    9  C   UNK N   1      29.552  15.452   5.665  0.00  0.00     0.001 A 
HETATM   10  C   UNK N   1      28.510  16.325   6.064  0.00  0.00     0.009 A 
HETATM   11  C   UNK N   1      28.787  17.317   7.013  0.00  0.00    -0.040 A 
HETATM   12  C   UNK N   1      30.050  17.407   7.519  0.00  0.00     0.021 A 
BRANCH  11  13
HETATM   13  C   UNK N   1      27.858  18.339   7.578  0.00  0.00     0.162 C 
BRANCH  13  14
HETATM   14  N   UNK N   1      28.006  19.699   7.148  0.00  0.00    -0.339 N 
HETATM   15  C   UNK N   1      27.101  20.201   6.268  0.00  0.00     0.314 C 
HETATM   16  O   UNK N   1      27.205  21.356   5.886  0.00  0.00    -0.248 OA
HETATM   17  N   UNK N   1      26.085  19.438   5.805  0.00  0.00    -0.352 N 
HETATM   18  H   UNK N   1      25.994  18.504   6.106  0.00  0.00     0.160 HD
HETATM   19  H   UNK N   1      25.437  19.816   5.168  0.00  0.00     0.160 HD
HETATM   20  H   UNK N   1      28.744  20.256   7.484  0.00  0.00     0.164 HD
ENDBRANCH  13  14
ENDBRANCH  11  13
ENDBRANCH   5   7
BRANCH   6  21
HETATM   21  O   UNK N   1      32.158  14.894   9.223  0.00  0.00    -0.359 OA
HETATM   22  H   UNK N   1      32.317  14.477  10.048  0.00  0.00     0.217 HD
ENDBRANCH   6  21
BRANCH   1  23
HETATM   23  C   UNK N   1      34.584  15.211  10.559  0.00  0.00     0.046 A 
HETATM   24  N   UNK N   1      34.360  13.873  10.563  0.00  0.00    -0.355 N 
HETATM   25  C   UNK N   1      34.936  13.426  11.701  0.00  0.00     0.045 A 
HETATM   26  H   UNK N   1      33.882  13.342   9.886  0.00  0.00     0.166 HD
HETATM   27  C   UNK N   1      34.986  12.121  12.177  0.00  0.00     0.047 A 
HETATM   28  C   UNK N   1      35.506  14.446  12.394  0.00  0.00     0.008 A 
HETATM   29  C   UNK N   1      35.653  11.911  13.403  0.00  0.00     0.090 A 
HETATM   30  N   UNK N   1      36.221  12.961  14.081  0.00  0.00    -0.374 N 
HETATM   31  C   UNK N   1      36.162  14.236  13.599  0.00  0.00     0.101 A 
ATOM     32  HN  UNK N   1      36.698  12.785  14.966  1.00  0.00     0.164 HD
HETATM   33  C   UNK N   1      35.303  15.593  11.698  0.00  0.00     0.045 A 
ENDBRANCH   1  23
TORSDOF 5
ENDMDL
MODEL 6
REMARK VINA RESULT:      -8.2      6.243      9.074
REMARK  5 active torsions:
REMARK  status: ('A' for Active; 'I' for Inactive)
REMARK    1  A    between atoms: C_10  and  C_11 
REMARK    2  A    between atoms: C_15  and  C_18 
REMARK    3  A    between atoms: C_16  and  O_17 
REMARK    4  A    between atoms: C_22  and  C_24 
REMARK    5  A    between atoms: C_24  and  N_25 
REMARK       I    between atoms: N_25  and  C_26 
REMARK       I    between atoms: C_26  and  N_28 
ROOT
HETATM    1  C   UNK N   1      34.041  16.209   9.711  0.00  0.00     0.025 A 
HETATM    2  C   UNK N   1      34.893  17.144   9.111  0.00  0.00     0.016 A 
HETATM    3  C   UNK N   1      34.382  18.085   8.202  0.00  0.00     0.002 A 
HETATM    4  C   UNK N   1      33.015  18.105   7.883  0.00  0.00     0.015 A 
HETATM    5  C   UNK N   1      32.139  17.182   8.468  0.00  0.00     0.008 A 
HETATM    6  C   UNK N   1      32.672  16.231   9.388  0.00  0.00     0.089 A 
ENDROOT
BRANCH   5   7
HETATM    7  C   UNK N   1      30.669  17.181   8.144  0.00  0.00    -0.023 A 
HETATM    8  C   UNK N   1      29.653  17.643   8.999  0.00  0.00     0.012 A 
HETATM    9  C   UNK N   1      28.303  17.586   8.570  0.00  0.00     0.001 A 
HETATM   10  C   UNK N   1      27.972  17.070   7.294  0.00  0.00     0.009 A 
HETATM   11  C   UNK N   1      29.003  16.616   6.461  0.00  0.00    -0.040 A 
HETATM   12  C   UNK N   1      30.288  16.687   6.910  0.00  0.00     0.021 A 
BRANCH  11  13
HETATM   13  C   UNK N   1      28.895  16.038   5.089  0.00  0.00     0.162 C 
BRANCH  13  14
HETATM   14  N   UNK N   1      30.012  15.297   4.578  0.00  0.00    -0.339 N 
HETATM   15  C   UNK N   1      30.555  15.683   3.394  0.00  0.00     0.314 C 
HETATM   16  O   UNK N   1      31.506  15.069   2.937  0.00  0.00    -0.248 OA
HETATM   17  N   UNK N   1      30.058  16.738   2.712  0.00  0.00    -0.352 N 
HETATM   18  H   UNK N   1      29.289  17.239   3.072  0.00  0.00     0.160 HD
HETATM   19  H   UNK N   1      30.463  17.007   1.856  0.00  0.00     0.160 HD
HETATM   20  H   UNK N   1      30.376  14.529   5.072  0.00  0.00     0.164 HD
ENDBRANCH  13  14
ENDBRANCH  11  13
ENDBRANCH   5   7
BRANCH   6  21
HETATM   21  O   UNK N   1      31.864  15.327   9.970  0.00  0.00    -0.359 OA
HETATM   22  H   UNK N   1      32.228  14.562  10.370  0.00  0.00     0.217 HD
ENDBRANCH   6  21
BRANCH   1  23
HETATM   23  C   UNK N   1      34.555  15.193  10.685  0.00  0.00     0.046 A 
HETATM   24  N   UNK N   1      34.265  13.867  10.661  0.00  0.00    -0.355 N 
HETATM   25  C   UNK N   1      34.936  13.345  11.711  0.00  0.00     0.045 A 
HETATM   26  H   UNK N   1      33.691  13.390  10.020  0.00  0.00     0.166 HD
HETATM   27  C   UNK N   1      34.973  12.019  12.128  0.00  0.00     0.047 A 
HETATM   28  C   UNK N   1      35.629  14.306  12.377  0.00  0.00     0.008 A 
HETATM   29  C   UNK N   1      35.756  11.725  13.264  0.00  0.00     0.090 A 
HETATM   30  N   UNK N   1      36.445  12.717  13.917  0.00  0.00    -0.374 N 
HETATM   31  C   UNK N   1      36.399  14.014  13.494  0.00  0.00     0.101 A 
ATOM     32  HN  UNK N   1      37.005  12.480  14.737  1.00  0.00     0.164 HD
HETATM   33  C   UNK N   1      35.409  15.491  11.753  0.00  0.00     0.045 A 
ENDBRANCH   1  23
TORSDOF 5
ENDMDL
MODEL 7
REMARK VINA RESULT:      -8.1      3.187      3.914
REMARK  5 active torsions:
REMARK  status: ('A' for Active; 'I' for Inactive)
REMARK    1  A    between atoms: C_10  and  C_11 
REMARK    2  A    between atoms: C_15  and  C_18 
REMARK    3  A    between atoms: C_16  and  O_17 
REMARK    4  A    between atoms: C_22  and  C_24 
REMARK    5  A    between atoms: C_24  and  N_25 
REMARK       I    between atoms: N_25  and  C_26 
REMARK       I    between atoms: C_26  and  N_28 
ROOT
HETATM    1  C   UNK N   1      26.251  18.920   4.728  0.00  0.00     0.025 A 
HETATM    2  C   UNK N   1      26.291  20.046   3.896  0.00  0.00     0.016 A 
HETATM    3  C   UNK N   1      25.132  20.472   3.227  0.00  0.00     0.002 A 
HETATM    4  C   UNK N   1      23.919  19.781   3.380  0.00  0.00     0.015 A 
HETATM    5  C   UNK N   1      23.849  18.652   4.206  0.00  0.00     0.008 A 
HETATM    6  C   UNK N   1      25.035  18.229   4.879  0.00  0.00     0.089 A 
ENDROOT
BRANCH   5   7
HETATM    7  C   UNK N   1      22.562  17.893   4.390  0.00  0.00    -0.023 A 
HETATM    8  C   UNK N   1      21.864  17.228   3.367  0.00  0.00     0.012 A 
HETATM    9  C   UNK N   1      20.659  16.548   3.675  0.00  0.00     0.001 A 
HETATM   10  C   UNK N   1      20.157  16.534   4.999  0.00  0.00     0.009 A 
HETATM   11  C   UNK N   1      20.872  17.204   6.000  0.00  0.00    -0.040 A 
HETATM   12  C   UNK N   1      22.026  17.846   5.663  0.00  0.00     0.021 A 
BRANCH  11  13
HETATM   13  C   UNK N   1      20.539  17.323   7.450  0.00  0.00     0.162 C 
BRANCH  13  14
HETATM   14  N   UNK N   1      19.578  16.412   8.000  0.00  0.00    -0.339 N 
HETATM   15  C   UNK N   1      18.690  16.884   8.914  0.00  0.00     0.314 C 
HETATM   16  O   UNK N   1      17.861  16.130   9.398  0.00  0.00    -0.248 OA
HETATM   17  N   UNK N   1      18.710  18.180   9.298  0.00  0.00    -0.352 N 
HETATM   18  H   UNK N   1      19.376  18.797   8.914  0.00  0.00     0.160 HD
HETATM   19  H   UNK N   1      18.060  18.508   9.960  0.00  0.00     0.160 HD
HETATM   20  H   UNK N   1      19.560  15.469   7.723  0.00  0.00     0.164 HD
ENDBRANCH  13  14
ENDBRANCH  11  13
ENDBRANCH   5   7
BRANCH   6  21
HETATM   21  O   UNK N   1      25.008  17.149   5.679  0.00  0.00    -0.359 OA
HETATM   22  H   UNK N   1      25.066  17.254   6.609  0.00  0.00     0.217 HD
ENDBRANCH   6  21
BRANCH   1  23
HETATM   23  C   UNK N   1      27.469  18.441   5.456  0.00  0.00     0.046 A 
HETATM   24  N   UNK N   1      27.609  18.395   6.805  0.00  0.00    -0.355 N 
HETATM   25  C   UNK N   1      28.850  17.902   7.011  0.00  0.00     0.045 A 
HETATM   26  H   UNK N   1      26.951  18.664   7.486  0.00  0.00     0.166 HD
HETATM   27  C   UNK N   1      29.483  17.660   8.225  0.00  0.00     0.047 A 
HETATM   28  C   UNK N   1      29.475  17.643   5.832  0.00  0.00     0.008 A 
HETATM   29  C   UNK N   1      30.793  17.138   8.172  0.00  0.00     0.090 A 
HETATM   30  N   UNK N   1      31.399  16.885   6.967  0.00  0.00    -0.374 N 
HETATM   31  C   UNK N   1      30.763  17.128   5.784  0.00  0.00     0.101 A 
ATOM     32  HN  UNK N   1      32.347  16.507   6.954  1.00  0.00     0.164 HD
HETATM   33  C   UNK N   1      28.627  17.973   4.825  0.00  0.00     0.045 A 
ENDBRANCH   1  23
TORSDOF 5
ENDMDL
MODEL 8
REMARK VINA RESULT:      -8.0      4.469      8.494
REMARK  5 active torsions:
REMARK  status: ('A' for Active; 'I' for Inactive)
REMARK    1  A    between atoms: C_10  and  C_11 
REMARK    2  A    between atoms: C_15  and  C_18 
REMARK    3  A    between atoms: C_16  and  O_17 
REMARK    4  A    between atoms: C_22  and  C_24 
REMARK    5  A    between atoms: C_24  and  N_25 
REMARK       I    between atoms: N_25  and  C_26 
REMARK       I    between atoms: C_26  and  N_28 
ROOT
HETATM    1  C   UNK N   1      34.014  16.067   9.653  0.00  0.00     0.025 A 
HETATM    2  C   UNK N   1      34.869  16.960   8.995  0.00  0.00     0.016 A 
HETATM    3  C   UNK N   1      34.346  17.916   8.109  0.00  0.00     0.002 A 
HETATM    4  C   UNK N   1      32.965  17.994   7.870  0.00  0.00     0.015 A 
HETATM    5  C   UNK N   1      32.086  17.115   8.515  0.00  0.00     0.008 A 
HETATM    6  C   UNK N   1      32.630  16.147   9.411  0.00  0.00     0.089 A 
ENDROOT
BRANCH   5   7
HETATM    7  C   UNK N   1      30.601  17.177   8.278  0.00  0.00    -0.023 A 
HETATM    8  C   UNK N   1      29.644  17.549   9.238  0.00  0.00     0.012 A 
HETATM    9  C   UNK N   1      28.272  17.565   8.885  0.00  0.00     0.001 A 
HETATM   10  C   UNK N   1      27.860  17.212   7.577  0.00  0.00     0.009 A 
HETATM   11  C   UNK N   1      28.832  16.845   6.638  0.00  0.00    -0.040 A 
HETATM   12  C   UNK N   1      30.141  16.841   7.018  0.00  0.00     0.021 A 
BRANCH  11  13
HETATM   13  C   UNK N   1      28.635  16.438   5.216  0.00  0.00     0.162 C 
BRANCH  13  14
HETATM   14  N   UNK N   1      27.350  16.662   4.620  0.00  0.00    -0.339 N 
HETATM   15  C   UNK N   1      27.143  17.825   3.949  0.00  0.00     0.314 C 
HETATM   16  O   UNK N   1      26.058  18.040   3.433  0.00  0.00    -0.248 OA
HETATM   17  N   UNK N   1      28.121  18.752   3.846  0.00  0.00    -0.352 N 
HETATM   18  H   UNK N   1      29.000  18.588   4.261  0.00  0.00     0.160 HD
HETATM   19  H   UNK N   1      27.957  19.589   3.357  0.00  0.00     0.160 HD
HETATM   20  H   UNK N   1      26.636  15.989   4.693  0.00  0.00     0.164 HD
ENDBRANCH  13  14
ENDBRANCH  11  13
ENDBRANCH   5   7
BRANCH   6  21
HETATM   21  O   UNK N   1      31.819  15.285  10.048  0.00  0.00    -0.359 OA
HETATM   22  H   UNK N   1      32.090  14.397  10.177  0.00  0.00     0.217 HD
ENDBRANCH   6  21
BRANCH   1  23
HETATM   23  C   UNK N   1      34.540  15.037  10.605  0.00  0.00     0.046 A 
HETATM   24  N   UNK N   1      34.279  13.706  10.542  0.00  0.00    -0.355 N 
HETATM   25  C   UNK N   1      34.951  13.170  11.585  0.00  0.00     0.045 A 
HETATM   26  H   UNK N   1      33.722  13.234   9.883  0.00  0.00     0.166 HD
HETATM   27  C   UNK N   1      35.012  11.835  11.966  0.00  0.00     0.047 A 
HETATM   28  C   UNK N   1      35.616  14.128  12.284  0.00  0.00     0.008 A 
HETATM   29  C   UNK N   1      35.789  11.526  13.102  0.00  0.00     0.090 A 
HETATM   30  N   UNK N   1      36.451  12.515  13.788  0.00  0.00    -0.374 N 
HETATM   31  C   UNK N   1      36.380  13.822  13.400  0.00  0.00     0.101 A 
ATOM     32  HN  UNK N   1      37.007  12.268  14.608  1.00  0.00     0.164 HD
HETATM   33  C   UNK N   1      35.377  15.324  11.689  0.00  0.00     0.045 A 
ENDBRANCH   1  23
TORSDOF 5
ENDMDL
MODEL 9
REMARK VINA RESULT:      -7.9     12.267     17.434
REMARK  5 active torsions:
REMARK  status: ('A' for Active; 'I' for Inactive)
REMARK    1  A    between atoms: C_10  and  C_11 
REMARK    2  A    between atoms: C_15  and  C_18 
REMARK    3  A    between atoms: C_16  and  O_17 
REMARK    4  A    between atoms: C_22  and  C_24 
REMARK    5  A    between atoms: C_24  and  N_25 
REMARK       I    between atoms: N_25  and  C_26 
REMARK       I    between atoms: C_26  and  N_28 
ROOT
HETATM    1  C   UNK N   1      35.222  11.547  18.350  0.00  0.00     0.025 A 
HETATM    2  C   UNK N   1      35.080  12.790  18.979  0.00  0.00     0.016 A 
HETATM    3  C   UNK N   1      35.340  13.974  18.271  0.00  0.00     0.002 A 
HETATM    4  C   UNK N   1      35.744  13.934  16.927  0.00  0.00     0.015 A 
HETATM    5  C   UNK N   1      35.895  12.704  16.272  0.00  0.00     0.008 A 
HETATM    6  C   UNK N   1      35.628  11.509  17.004  0.00  0.00     0.089 A 
ENDROOT
BRANCH   5   7
HETATM    7  C   UNK N   1      36.326  12.631  14.831  0.00  0.00    -0.023 A 
HETATM    8  C   UNK N   1      37.311  11.766  14.326  0.00  0.00     0.012 A 
HETATM    9  C   UNK N   1      37.624  11.798  12.944  0.00  0.00     0.001 A 
HETATM   10  C   UNK N   1      36.952  12.690  12.073  0.00  0.00     0.009 A 
HETATM   11  C   UNK N   1      35.974  13.542  12.601  0.00  0.00    -0.040 A 
HETATM   12  C   UNK N   1      35.703  13.482  13.936  0.00  0.00     0.021 A 
BRANCH  11  13
HETATM   13  C   UNK N   1      35.146  14.555  11.883  0.00  0.00     0.162 C 
BRANCH  13  14
HETATM   14  N   UNK N   1      35.765  15.795  11.513  0.00  0.00    -0.339 N 
HETATM   15  C   UNK N   1      35.154  16.568  10.578  0.00  0.00     0.314 C 
HETATM   16  O   UNK N   1      35.660  17.628  10.245  0.00  0.00    -0.248 OA
HETATM   17  N   UNK N   1      33.991  16.181  10.008  0.00  0.00    -0.352 N 
HETATM   18  H   UNK N   1      33.576  15.326  10.268  0.00  0.00     0.160 HD
HETATM   19  H   UNK N   1      33.560  16.751   9.333  0.00  0.00     0.160 HD
HETATM   20  H   UNK N   1      36.611  16.079  11.927  0.00  0.00     0.164 HD
ENDBRANCH  13  14
ENDBRANCH  11  13
ENDBRANCH   5   7
BRANCH   6  21
HETATM   21  O   UNK N   1      35.762  10.310  16.410  0.00  0.00    -0.359 OA
HETATM   22  H   UNK N   1      35.209  10.080  15.689  0.00  0.00     0.217 HD
ENDBRANCH   6  21
BRANCH   1  23
HETATM   23  C   UNK N   1      34.951  10.265  19.077  0.00  0.00     0.046 A 
HETATM   24  N   UNK N   1      34.107   9.289  18.658  0.00  0.00    -0.355 N 
HETATM   25  C   UNK N   1      34.176   8.335  19.612  0.00  0.00     0.045 A 
HETATM   26  H   UNK N   1      33.562   9.278  17.838  0.00  0.00     0.166 HD
HETATM   27  C   UNK N   1      33.498   7.122  19.657  0.00  0.00     0.047 A 
HETATM   28  C   UNK N   1      35.035   8.693  20.602  0.00  0.00     0.008 A 
HETATM   29  C   UNK N   1      33.744   6.291  20.771  0.00  0.00     0.090 A 
HETATM   30  N   UNK N   1      34.618   6.679  21.756  0.00  0.00    -0.374 N 
HETATM   31  C   UNK N   1      35.276   7.874  21.695  0.00  0.00     0.101 A 
ATOM     32  HN  UNK N   1      34.780   6.062  22.552  1.00  0.00     0.164 HD
HETATM   33  C   UNK N   1      35.545   9.913  20.294  0.00  0.00     0.045 A 
ENDBRANCH   1  23
TORSDOF 5
ENDMDL
