MODEL 1
REMARK VINA RESULT:      -7.1      0.000      0.000
REMARK  5 active torsions:
REMARK  status: ('A' for Active; 'I' for Inactive)
REMARK    1  A    between atoms: O_2  and  C_3 
REMARK    2  A    between atoms: C_5  and  O_6 
REMARK    3  A    between atoms: C_8  and  O_9 
REMARK    4  A    between atoms: C_12  and  N_13 
REMARK       I    between atoms: N_13  and  C_14 
REMARK    5  A    between atoms: N_24  and  C_25 
ROOT
HETATM    1  N   UNK N   1      33.815  14.042  10.949  0.00  0.00    -0.191 N 
HETATM    2  C   UNK N   1      33.932  14.730   9.706  0.00  0.00     0.684 A 
HETATM    3  N   UNK N   1      32.927  15.561   9.303  0.00  0.00    -0.175 N 
ATOM      4  HN  UNK N   1      32.077  15.658   9.857  1.00  0.00     0.186 HD
HETATM    5  C   UNK N   1      33.087  16.254   8.149  0.00  0.00     0.140 A 
HETATM    6  N   UNK N   1      35.062  14.599   8.930  0.00  0.00    -0.201 N 
ATOM      7  HN  UNK N   1      35.802  13.967   9.235  1.00  0.00     0.183 HD
HETATM    8  C   UNK N   1      35.217  15.290   7.765  0.00  0.00     0.121 A 
HETATM    9  C   UNK N   1      34.199  16.140   7.385  0.00  0.00     0.026 A 
HETATM   10  C   UNK N   1      34.055  16.970   6.294  0.00  0.00     0.034 A 
HETATM   11  C   UNK N   1      32.802  17.573   6.458  0.00  0.00     0.101 A 
HETATM   12  N   UNK N   1      32.224  17.122   7.600  0.00  0.00    -0.293 N 
HETATM   13  H   UNK N   1      32.923  13.987  11.364  0.00  0.00     0.184 HD
ENDROOT
BRANCH   1  14
HETATM   14  C   UNK N   1      34.907  13.431  11.625  0.00  0.00     0.054 A 
HETATM   15  C   UNK N   1      35.441  12.237  11.148  0.00  0.00     0.069 A 
HETATM   16  C   UNK N   1      36.495  11.597  11.814  0.00  0.00     0.106 A 
HETATM   17  C   UNK N   1      37.036  12.180  13.001  0.00  0.00     0.135 A 
HETATM   18  C   UNK N   1      36.469  13.388  13.492  0.00  0.00     0.106 A 
HETATM   19  C   UNK N   1      35.419  13.980  12.796  0.00  0.00     0.069 A 
BRANCH  16  20
HETATM   20  O   UNK N   1      36.951  10.433  11.278  0.00  0.00    -0.353 OA
HETATM   21  C   UNK N   1      36.406   9.185  11.480  0.00  0.00     0.210 C 
ENDBRANCH  16  20
BRANCH  17  22
HETATM   22  O   UNK N   1      38.075  11.564  13.631  0.00  0.00    -0.351 OA
HETATM   23  C   UNK N   1      37.973  10.593  14.600  0.00  0.00     0.210 C 
ENDBRANCH  17  22
BRANCH  18  24
HETATM   24  O   UNK N   1      36.928  13.966  14.631  0.00  0.00    -0.353 OA
HETATM   25  C   UNK N   1      36.352  13.767  15.868  0.00  0.00     0.210 C 
ENDBRANCH  18  24
ENDBRANCH   1  14
BRANCH  12  26
HETATM   26  C   UNK N   1      30.928  17.506   8.089  0.00  0.00     0.112 A 
HETATM   27  C   UNK N   1      29.765  17.168   7.381  0.00  0.00     0.049 A 
HETATM   28  C   UNK N   1      28.521  17.570   7.863  0.00  0.00     0.005 A 
HETATM   29  C   UNK N   1      28.444  18.309   9.043  0.00  0.00     0.017 A 
HETATM   30  C   UNK N   1      29.618  18.629   9.727  0.00  0.00     0.089 A 
HETATM   31  N   UNK N   1      30.824  18.225   9.243  0.00  0.00    -0.352 N 
ATOM     32  HN  UNK N   1      31.672  18.466   9.757  1.00  0.00     0.166 HD
ENDBRANCH  12  26
TORSDOF 5
ENDMDL
MODEL 2
REMARK VINA RESULT:      -7.0      4.061      8.772
REMARK  5 active torsions:
REMARK  status: ('A' for Active; 'I' for Inactive)
REMARK    1  A    between atoms: O_2  and  C_3 
REMARK    2  A    between atoms: C_5  and  O_6 
REMARK    3  A    between atoms: C_8  and  O_9 
REMARK    4  A    between atoms: C_12  and  N_13 
REMARK       I    between atoms: N_13  and  C_14 
REMARK    5  A    between atoms: N_24  and  C_25 
ROOT
HETATM    1  N   UNK N   1      32.173  15.271   9.858  0.00  0.00    -0.191 N 
HETATM    2  C   UNK N   1      33.555  14.964  10.023  0.00  0.00     0.684 A 
HETATM    3  N   UNK N   1      33.937  14.112  11.018  0.00  0.00    -0.175 N 
ATOM      4  HN  UNK N   1      33.252  13.732  11.671  1.00  0.00     0.186 HD
HETATM    5  C   UNK N   1      35.248  13.783  11.118  0.00  0.00     0.140 A 
HETATM    6  N   UNK N   1      34.500  15.482   9.167  0.00  0.00    -0.201 N 
ATOM      7  HN  UNK N   1      34.206  16.126   8.434  1.00  0.00     0.183 HD
HETATM    8  C   UNK N   1      35.820  15.157   9.274  0.00  0.00     0.121 A 
HETATM    9  C   UNK N   1      36.184  14.278  10.274  0.00  0.00     0.026 A 
HETATM   10  C   UNK N   1      37.406  13.753  10.635  0.00  0.00     0.034 A 
HETATM   11  C   UNK N   1      37.137  12.926  11.733  0.00  0.00     0.101 A 
HETATM   12  N   UNK N   1      35.810  12.959  12.014  0.00  0.00    -0.293 N 
HETATM   13  H   UNK N   1      31.561  15.066  10.602  0.00  0.00     0.184 HD
ENDROOT
BRANCH   1  14
HETATM   14  C   UNK N   1      31.624  15.858   8.684  0.00  0.00     0.054 A 
HETATM   15  C   UNK N   1      30.732  16.923   8.789  0.00  0.00     0.069 A 
HETATM   16  C   UNK N   1      30.152  17.497   7.649  0.00  0.00     0.106 A 
HETATM   17  C   UNK N   1      30.481  16.986   6.356  0.00  0.00     0.135 A 
HETATM   18  C   UNK N   1      31.375  15.885   6.262  0.00  0.00     0.106 A 
HETATM   19  C   UNK N   1      31.920  15.347   7.425  0.00  0.00     0.069 A 
BRANCH  16  20
HETATM   20  O   UNK N   1      29.290  18.531   7.848  0.00  0.00    -0.353 OA
HETATM   21  C   UNK N   1      28.240  18.545   8.737  0.00  0.00     0.210 C 
ENDBRANCH  16  20
BRANCH  17  22
HETATM   22  O   UNK N   1      29.931  17.563   5.253  0.00  0.00    -0.351 OA
HETATM   23  C   UNK N   1      28.744  17.202   4.658  0.00  0.00     0.210 C 
ENDBRANCH  17  22
BRANCH  18  24
HETATM   24  O   UNK N   1      31.698  15.344   5.059  0.00  0.00    -0.353 OA
HETATM   25  C   UNK N   1      32.829  15.691   4.351  0.00  0.00     0.210 C 
ENDBRANCH  18  24
ENDBRANCH   1  14
BRANCH  12  26
HETATM   26  C   UNK N   1      35.165  12.247  13.085  0.00  0.00     0.112 A 
HETATM   27  C   UNK N   1      34.538  11.014  12.851  0.00  0.00     0.049 A 
HETATM   28  C   UNK N   1      33.902  10.354  13.900  0.00  0.00     0.005 A 
HETATM   29  C   UNK N   1      33.890  10.927  15.171  0.00  0.00     0.017 A 
HETATM   30  C   UNK N   1      34.524  12.154  15.374  0.00  0.00     0.089 A 
HETATM   31  N   UNK N   1      35.144  12.783  14.338  0.00  0.00    -0.352 N 
ATOM     32  HN  UNK N   1      35.604  13.678  14.504  1.00  0.00     0.166 HD
ENDBRANCH  12  26
TORSDOF 5
ENDMDL
MODEL 3
REMARK VINA RESULT:      -6.9      4.038      8.498
REMARK  5 active torsions:
REMARK  status: ('A' for Active; 'I' for Inactive)
REMARK    1  A    between atoms: O_2  and  C_3 
REMARK    2  A    between atoms: C_5  and  O_6 
REMARK    3  A    between atoms: C_8  and  O_9 
REMARK    4  A    between atoms: C_12  and  N_13 
REMARK       I    between atoms: N_13  and  C_14 
REMARK    5  A    between atoms: N_24  and  C_25 
ROOT
HETATM    1  N   UNK N   1      32.167  15.275   9.921  0.00  0.00    -0.191 N 
HETATM    2  C   UNK N   1      33.550  14.960  10.065  0.00  0.00     0.684 A 
HETATM    3  N   UNK N   1      33.942  14.108  11.056  0.00  0.00    -0.175 N 
ATOM      4  HN  UNK N   1      33.266  13.732  11.721  1.00  0.00     0.186 HD
HETATM    5  C   UNK N   1      35.253  13.771  11.136  0.00  0.00     0.140 A 
HETATM    6  N   UNK N   1      34.485  15.470   9.194  0.00  0.00    -0.201 N 
ATOM      7  HN  UNK N   1      34.183  16.115   8.464  1.00  0.00     0.183 HD
HETATM    8  C   UNK N   1      35.805  15.138   9.281  0.00  0.00     0.121 A 
HETATM    9  C   UNK N   1      36.179  14.259  10.277  0.00  0.00     0.026 A 
HETATM   10  C   UNK N   1      37.403  13.727  10.619  0.00  0.00     0.034 A 
HETATM   11  C   UNK N   1      37.146  12.904  11.723  0.00  0.00     0.101 A 
HETATM   12  N   UNK N   1      35.824  12.945  12.025  0.00  0.00    -0.293 N 
HETATM   13  H   UNK N   1      31.566  15.075  10.675  0.00  0.00     0.184 HD
ENDROOT
BRANCH   1  14
HETATM   14  C   UNK N   1      31.603  15.862   8.755  0.00  0.00     0.054 A 
HETATM   15  C   UNK N   1      31.973  15.400   7.494  0.00  0.00     0.069 A 
HETATM   16  C   UNK N   1      31.457  15.983   6.329  0.00  0.00     0.106 A 
HETATM   17  C   UNK N   1      30.533  17.067   6.432  0.00  0.00     0.135 A 
HETATM   18  C   UNK N   1      30.179  17.546   7.723  0.00  0.00     0.106 A 
HETATM   19  C   UNK N   1      30.724  16.935   8.849  0.00  0.00     0.069 A 
BRANCH  16  20
HETATM   20  O   UNK N   1      31.878  15.469   5.141  0.00  0.00    -0.353 OA
HETATM   21  C   UNK N   1      33.109  15.678   4.563  0.00  0.00     0.210 C 
ENDBRANCH  16  20
BRANCH  17  22
HETATM   22  O   UNK N   1      30.019  17.614   5.295  0.00  0.00    -0.351 OA
HETATM   23  C   UNK N   1      28.846  17.244   4.679  0.00  0.00     0.210 C 
ENDBRANCH  17  22
BRANCH  18  24
HETATM   24  O   UNK N   1      29.327  18.592   7.874  0.00  0.00    -0.353 OA
HETATM   25  C   UNK N   1      28.167  18.524   8.617  0.00  0.00     0.210 C 
ENDBRANCH  18  24
ENDBRANCH   1  14
BRANCH  12  26
HETATM   26  C   UNK N   1      35.192  12.240  13.107  0.00  0.00     0.112 A 
HETATM   27  C   UNK N   1      34.551  11.012  12.885  0.00  0.00     0.049 A 
HETATM   28  C   UNK N   1      33.928  10.357  13.946  0.00  0.00     0.005 A 
HETATM   29  C   UNK N   1      33.942  10.931  15.216  0.00  0.00     0.017 A 
HETATM   30  C   UNK N   1      34.590  12.153  15.407  0.00  0.00     0.089 A 
HETATM   31  N   UNK N   1      35.197  12.776  14.360  0.00  0.00    -0.352 N 
ATOM     32  HN  UNK N   1      35.667  13.668  14.518  1.00  0.00     0.166 HD
ENDBRANCH  12  26
TORSDOF 5
ENDMDL
MODEL 4
REMARK VINA RESULT:      -6.9      0.098      2.335
REMARK  5 active torsions:
REMARK  status: ('A' for Active; 'I' for Inactive)
REMARK    1  A    between atoms: O_2  and  C_3 
REMARK    2  A    between atoms: C_5  and  O_6 
REMARK    3  A    between atoms: C_8  and  O_9 
REMARK    4  A    between atoms: C_12  and  N_13 
REMARK       I    between atoms: N_13  and  C_14 
REMARK    5  A    between atoms: N_24  and  C_25 
ROOT
HETATM    1  N   UNK N   1      33.802  13.957  10.941  0.00  0.00    -0.191 N 
HETATM    2  C   UNK N   1      33.932  14.678   9.719  0.00  0.00     0.684 A 
HETATM    3  N   UNK N   1      32.929  15.517   9.328  0.00  0.00    -0.175 N 
ATOM      4  HN  UNK N   1      32.072  15.597   9.874  1.00  0.00     0.186 HD
HETATM    5  C   UNK N   1      33.100  16.242   8.195  0.00  0.00     0.140 A 
HETATM    6  N   UNK N   1      35.071  14.571   8.953  0.00  0.00    -0.201 N 
ATOM      7  HN  UNK N   1      35.809  13.933   9.249  1.00  0.00     0.183 HD
HETATM    8  C   UNK N   1      35.237  15.295   7.809  0.00  0.00     0.121 A 
HETATM    9  C   UNK N   1      34.220  16.152   7.441  0.00  0.00     0.026 A 
HETATM   10  C   UNK N   1      34.086  17.011   6.371  0.00  0.00     0.034 A 
HETATM   11  C   UNK N   1      32.830  17.606   6.537  0.00  0.00     0.101 A 
HETATM   12  N   UNK N   1      32.240  17.122   7.660  0.00  0.00    -0.293 N 
HETATM   13  H   UNK N   1      32.906  13.887  11.345  0.00  0.00     0.184 HD
ENDROOT
BRANCH   1  14
HETATM   14  C   UNK N   1      34.888  13.330  11.613  0.00  0.00     0.054 A 
HETATM   15  C   UNK N   1      35.398  13.887  12.784  0.00  0.00     0.069 A 
HETATM   16  C   UNK N   1      36.488  13.308  13.447  0.00  0.00     0.106 A 
HETATM   17  C   UNK N   1      37.087  12.123  12.918  0.00  0.00     0.135 A 
HETATM   18  C   UNK N   1      36.573  11.575  11.712  0.00  0.00     0.106 A 
HETATM   19  C   UNK N   1      35.491  12.192  11.089  0.00  0.00     0.069 A 
BRANCH  16  20
HETATM   20  O   UNK N   1      36.921  13.923  14.581  0.00  0.00    -0.353 OA
HETATM   21  C   UNK N   1      36.381  13.770  15.837  0.00  0.00     0.210 C 
ENDBRANCH  16  20
BRANCH  17  22
HETATM   22  O   UNK N   1      38.132  11.553  13.580  0.00  0.00    -0.351 OA
HETATM   23  C   UNK N   1      38.042  10.580  14.549  0.00  0.00     0.210 C 
ENDBRANCH  17  22
BRANCH  18  24
HETATM   24  O   UNK N   1      37.124  10.467  11.154  0.00  0.00    -0.353 OA
HETATM   25  C   UNK N   1      36.618   9.197  11.330  0.00  0.00     0.210 C 
ENDBRANCH  18  24
ENDBRANCH   1  14
BRANCH  12  26
HETATM   26  C   UNK N   1      30.938  17.490   8.144  0.00  0.00     0.112 A 
HETATM   27  C   UNK N   1      29.781  17.126   7.438  0.00  0.00     0.049 A 
HETATM   28  C   UNK N   1      28.531  17.512   7.916  0.00  0.00     0.005 A 
HETATM   29  C   UNK N   1      28.440  18.260   9.089  0.00  0.00     0.017 A 
HETATM   30  C   UNK N   1      29.608  18.606   9.771  0.00  0.00     0.089 A 
HETATM   31  N   UNK N   1      30.821  18.217   9.292  0.00  0.00    -0.352 N 
ATOM     32  HN  UNK N   1      31.664  18.477   9.803  1.00  0.00     0.166 HD
ENDBRANCH  12  26
TORSDOF 5
ENDMDL
MODEL 5
REMARK VINA RESULT:      -6.9      6.524      9.495
REMARK  5 active torsions:
REMARK  status: ('A' for Active; 'I' for Inactive)
REMARK    1  A    between atoms: O_2  and  C_3 
REMARK    2  A    between atoms: C_5  and  O_6 
REMARK    3  A    between atoms: C_8  and  O_9 
REMARK    4  A    between atoms: C_12  and  N_13 
REMARK       I    between atoms: N_13  and  C_14 
REMARK    5  A    between atoms: N_24  and  C_25 
ROOT
HETATM    1  N   UNK N   1      27.470  16.766   5.757  0.00  0.00    -0.191 N 
HETATM    2  C   UNK N   1      26.862  17.778   4.959  0.00  0.00     0.684 A 
HETATM    3  N   UNK N   1      25.503  17.817   4.847  0.00  0.00    -0.175 N 
ATOM      4  HN  UNK N   1      24.922  17.104   5.289  1.00  0.00     0.186 HD
HETATM    5  C   UNK N   1      24.942  18.825   4.135  0.00  0.00     0.140 A 
HETATM    6  N   UNK N   1      27.626  18.739   4.335  0.00  0.00    -0.201 N 
ATOM      7  HN  UNK N   1      28.642  18.694   4.416  1.00  0.00     0.183 HD
HETATM    8  C   UNK N   1      27.061  19.748   3.612  0.00  0.00     0.121 A 
HETATM    9  C   UNK N   1      25.684  19.781   3.527  0.00  0.00     0.026 A 
HETATM   10  C   UNK N   1      24.824  20.654   2.896  0.00  0.00     0.034 A 
HETATM   11  C   UNK N   1      23.542  20.159   3.165  0.00  0.00     0.101 A 
HETATM   12  N   UNK N   1      23.635  19.038   3.924  0.00  0.00    -0.293 N 
HETATM   13  H   UNK N   1      26.925  15.983   6.004  0.00  0.00     0.184 HD
ENDROOT
BRANCH   1  14
HETATM   14  C   UNK N   1      28.814  16.818   6.219  0.00  0.00     0.054 A 
HETATM   15  C   UNK N   1      29.811  16.123   5.538  0.00  0.00     0.069 A 
HETATM   16  C   UNK N   1      31.138  16.131   5.990  0.00  0.00     0.106 A 
HETATM   17  C   UNK N   1      31.478  16.866   7.167  0.00  0.00     0.135 A 
HETATM   18  C   UNK N   1      30.449  17.555   7.866  0.00  0.00     0.106 A 
HETATM   19  C   UNK N   1      29.146  17.510   7.378  0.00  0.00     0.069 A 
BRANCH  16  20
HETATM   20  O   UNK N   1      32.044  15.421   5.265  0.00  0.00    -0.353 OA
HETATM   21  C   UNK N   1      32.717  15.871   4.153  0.00  0.00     0.210 C 
ENDBRANCH  16  20
BRANCH  17  22
HETATM   22  O   UNK N   1      32.773  16.887   7.588  0.00  0.00    -0.351 OA
HETATM   23  C   UNK N   1      33.719  17.825   7.245  0.00  0.00     0.210 C 
ENDBRANCH  17  22
BRANCH  18  24
HETATM   24  O   UNK N   1      30.714  18.244   9.005  0.00  0.00    -0.353 OA
HETATM   25  C   UNK N   1      29.734  18.752   9.830  0.00  0.00     0.210 C 
ENDBRANCH  18  24
ENDBRANCH   1  14
BRANCH  12  26
HETATM   26  C   UNK N   1      22.527  18.246   4.383  0.00  0.00     0.112 A 
HETATM   27  C   UNK N   1      21.703  17.568   3.471  0.00  0.00     0.049 A 
HETATM   28  C   UNK N   1      20.623  16.823   3.938  0.00  0.00     0.005 A 
HETATM   29  C   UNK N   1      20.366  16.762   5.307  0.00  0.00     0.017 A 
HETATM   30  C   UNK N   1      21.203  17.445   6.190  0.00  0.00     0.089 A 
HETATM   31  N   UNK N   1      22.257  18.165   5.717  0.00  0.00    -0.352 N 
ATOM     32  HN  UNK N   1      22.860  18.656   6.377  1.00  0.00     0.166 HD
ENDBRANCH  12  26
TORSDOF 5
ENDMDL
MODEL 6
REMARK VINA RESULT:      -6.9      6.535      9.746
REMARK  5 active torsions:
REMARK  status: ('A' for Active; 'I' for Inactive)
REMARK    1  A    between atoms: O_2  and  C_3 
REMARK    2  A    between atoms: C_5  and  O_6 
REMARK    3  A    between atoms: C_8  and  O_9 
REMARK    4  A    between atoms: C_12  and  N_13 
REMARK       I    between atoms: N_13  and  C_14 
REMARK    5  A    between atoms: N_24  and  C_25 
ROOT
HETATM    1  N   UNK N   1      27.488  16.685   5.761  0.00  0.00    -0.191 N 
HETATM    2  C   UNK N   1      26.887  17.709   4.972  0.00  0.00     0.684 A 
HETATM    3  N   UNK N   1      25.528  17.759   4.863  0.00  0.00    -0.175 N 
ATOM      4  HN  UNK N   1      24.943  17.047   5.299  1.00  0.00     0.186 HD
HETATM    5  C   UNK N   1      24.974  18.778   4.160  0.00  0.00     0.140 A 
HETATM    6  N   UNK N   1      27.658  18.669   4.356  0.00  0.00    -0.201 N 
ATOM      7  HN  UNK N   1      28.673  18.616   4.435  1.00  0.00     0.183 HD
HETATM    8  C   UNK N   1      27.100  19.688   3.642  0.00  0.00     0.121 A 
HETATM    9  C   UNK N   1      25.723  19.733   3.560  0.00  0.00     0.026 A 
HETATM   10  C   UNK N   1      24.868  20.618   2.937  0.00  0.00     0.034 A 
HETATM   11  C   UNK N   1      23.583  20.130   3.204  0.00  0.00     0.101 A 
HETATM   12  N   UNK N   1      23.668  19.002   3.953  0.00  0.00    -0.293 N 
HETATM   13  H   UNK N   1      26.938  15.904   6.002  0.00  0.00     0.184 HD
ENDROOT
BRANCH   1  14
HETATM   14  C   UNK N   1      28.834  16.723   6.221  0.00  0.00     0.054 A 
HETATM   15  C   UNK N   1      29.145  17.378   7.410  0.00  0.00     0.069 A 
HETATM   16  C   UNK N   1      30.467  17.457   7.868  0.00  0.00     0.106 A 
HETATM   17  C   UNK N   1      31.516  16.854   7.107  0.00  0.00     0.135 A 
HETATM   18  C   UNK N   1      31.189  16.206   5.885  0.00  0.00     0.106 A 
HETATM   19  C   UNK N   1      29.861  16.160   5.471  0.00  0.00     0.069 A 
BRANCH  16  20
HETATM   20  O   UNK N   1      30.679  18.120   9.038  0.00  0.00    -0.353 OA
HETATM   21  C   UNK N   1      29.716  18.749   9.793  0.00  0.00     0.210 C 
ENDBRANCH  16  20
BRANCH  17  22
HETATM   22  O   UNK N   1      32.795  16.916   7.570  0.00  0.00    -0.351 OA
HETATM   23  C   UNK N   1      33.699  17.922   7.316  0.00  0.00     0.210 C 
ENDBRANCH  17  22
BRANCH  18  24
HETATM   24  O   UNK N   1      32.152  15.643   5.111  0.00  0.00    -0.353 OA
HETATM   25  C   UNK N   1      32.743  16.288   4.045  0.00  0.00     0.210 C 
ENDBRANCH  18  24
ENDBRANCH   1  14
BRANCH  12  26
HETATM   26  C   UNK N   1      22.555  18.214   4.406  0.00  0.00     0.112 A 
HETATM   27  C   UNK N   1      21.764  17.498   3.495  0.00  0.00     0.049 A 
HETATM   28  C   UNK N   1      20.677  16.759   3.956  0.00  0.00     0.005 A 
HETATM   29  C   UNK N   1      20.382  16.741   5.318  0.00  0.00     0.017 A 
HETATM   30  C   UNK N   1      21.188  17.461   6.202  0.00  0.00     0.089 A 
HETATM   31  N   UNK N   1      22.248  18.175   5.734  0.00  0.00    -0.352 N 
ATOM     32  HN  UNK N   1      22.827  18.694   6.394  1.00  0.00     0.166 HD
ENDBRANCH  12  26
TORSDOF 5
ENDMDL
MODEL 7
REMARK VINA RESULT:      -6.8      7.522     11.900
REMARK  5 active torsions:
REMARK  status: ('A' for Active; 'I' for Inactive)
REMARK    1  A    between atoms: O_2  and  C_3 
REMARK    2  A    between atoms: C_5  and  O_6 
REMARK    3  A    between atoms: C_8  and  O_9 
REMARK    4  A    between atoms: C_12  and  N_13 
REMARK       I    between atoms: N_13  and  C_14 
REMARK    5  A    between atoms: N_24  and  C_25 
ROOT
HETATM    1  N   UNK N   1      26.986  16.646   5.278  0.00  0.00    -0.191 N 
HETATM    2  C   UNK N   1      27.848  17.105   6.316  0.00  0.00     0.684 A 
HETATM    3  N   UNK N   1      29.186  16.849   6.239  0.00  0.00    -0.175 N 
ATOM      4  HN  UNK N   1      29.568  16.295   5.472  1.00  0.00     0.186 HD
HETATM    5  C   UNK N   1      29.996  17.348   7.204  0.00  0.00     0.140 A 
HETATM    6  N   UNK N   1      27.353  17.837   7.372  0.00  0.00    -0.201 N 
ATOM      7  HN  UNK N   1      26.350  18.013   7.427  1.00  0.00     0.183 HD
HETATM    8  C   UNK N   1      28.168  18.331   8.348  0.00  0.00     0.121 A 
HETATM    9  C   UNK N   1      29.520  18.078   8.241  0.00  0.00     0.026 A 
HETATM   10  C   UNK N   1      30.587  18.437   9.036  0.00  0.00     0.034 A 
HETATM   11  C   UNK N   1      31.710  17.879   8.413  0.00  0.00     0.101 A 
HETATM   12  N   UNK N   1      31.327  17.215   7.292  0.00  0.00    -0.293 N 
HETATM   13  H   UNK N   1      27.328  15.955   4.665  0.00  0.00     0.184 HD
ENDROOT
BRANCH   1  14
HETATM   14  C   UNK N   1      25.663  17.127   5.072  0.00  0.00     0.054 A 
HETATM   15  C   UNK N   1      24.574  16.371   5.501  0.00  0.00     0.069 A 
HETATM   16  C   UNK N   1      23.260  16.806   5.282  0.00  0.00     0.106 A 
HETATM   17  C   UNK N   1      23.030  18.047   4.611  0.00  0.00     0.135 A 
HETATM   18  C   UNK N   1      24.148  18.800   4.159  0.00  0.00     0.106 A 
HETATM   19  C   UNK N   1      25.433  18.320   4.397  0.00  0.00     0.069 A 
BRANCH  16  20
HETATM   20  O   UNK N   1      22.258  16.002   5.730  0.00  0.00    -0.353 OA
HETATM   21  C   UNK N   1      21.726  16.010   6.999  0.00  0.00     0.210 C 
ENDBRANCH  16  20
BRANCH  17  22
HETATM   22  O   UNK N   1      21.751  18.474   4.422  0.00  0.00    -0.351 OA
HETATM   23  C   UNK N   1      20.959  18.197   3.331  0.00  0.00     0.210 C 
ENDBRANCH  17  22
BRANCH  18  24
HETATM   24  O   UNK N   1      23.982  19.970   3.493  0.00  0.00    -0.353 OA
HETATM   25  C   UNK N   1      24.951  20.526   2.684  0.00  0.00     0.210 C 
ENDBRANCH  18  24
ENDBRANCH   1  14
BRANCH  12  26
HETATM   26  C   UNK N   1      32.204  16.502   6.404  0.00  0.00     0.112 A 
HETATM   27  C   UNK N   1      32.679  17.104   5.229  0.00  0.00     0.049 A 
HETATM   28  C   UNK N   1      33.510  16.386   4.372  0.00  0.00     0.005 A 
HETATM   29  C   UNK N   1      33.859  15.074   4.688  0.00  0.00     0.017 A 
HETATM   30  C   UNK N   1      33.374  14.502   5.865  0.00  0.00     0.089 A 
HETATM   31  N   UNK N   1      32.565  15.219   6.692  0.00  0.00    -0.352 N 
ATOM     32  HN  UNK N   1      32.221  14.786   7.549  1.00  0.00     0.166 HD
ENDBRANCH  12  26
TORSDOF 5
ENDMDL
MODEL 8
REMARK VINA RESULT:      -6.8      7.507     11.926
REMARK  5 active torsions:
REMARK  status: ('A' for Active; 'I' for Inactive)
REMARK    1  A    between atoms: O_2  and  C_3 
REMARK    2  A    between atoms: C_5  and  O_6 
REMARK    3  A    between atoms: C_8  and  O_9 
REMARK    4  A    between atoms: C_12  and  N_13 
REMARK       I    between atoms: N_13  and  C_14 
REMARK    5  A    between atoms: N_24  and  C_25 
ROOT
HETATM    1  N   UNK N   1      27.020  16.631   5.193  0.00  0.00    -0.191 N 
HETATM    2  C   UNK N   1      27.853  17.084   6.257  0.00  0.00     0.684 A 
HETATM    3  N   UNK N   1      29.200  16.876   6.188  0.00  0.00    -0.175 N 
ATOM      4  HN  UNK N   1      29.609  16.361   5.408  1.00  0.00     0.186 HD
HETATM    5  C   UNK N   1      29.981  17.370   7.179  0.00  0.00     0.140 A 
HETATM    6  N   UNK N   1      27.322  17.763   7.331  0.00  0.00    -0.201 N 
ATOM      7  HN  UNK N   1      26.313  17.903   7.378  1.00  0.00     0.183 HD
HETATM    8  C   UNK N   1      28.108  18.252   8.332  0.00  0.00     0.121 A 
HETATM    9  C   UNK N   1      29.470  18.049   8.233  0.00  0.00     0.026 A 
HETATM   10  C   UNK N   1      30.514  18.417   9.053  0.00  0.00     0.034 A 
HETATM   11  C   UNK N   1      31.663  17.918   8.425  0.00  0.00     0.101 A 
HETATM   12  N   UNK N   1      31.316  17.280   7.279  0.00  0.00    -0.293 N 
HETATM   13  H   UNK N   1      27.392  15.973   4.563  0.00  0.00     0.184 HD
ENDROOT
BRANCH   1  14
HETATM   14  C   UNK N   1      25.683  17.073   4.988  0.00  0.00     0.054 A 
HETATM   15  C   UNK N   1      25.442  18.300   4.374  0.00  0.00     0.069 A 
HETATM   16  C   UNK N   1      24.135  18.773   4.189  0.00  0.00     0.106 A 
HETATM   17  C   UNK N   1      23.030  17.984   4.633  0.00  0.00     0.135 A 
HETATM   18  C   UNK N   1      23.288  16.743   5.277  0.00  0.00     0.106 A 
HETATM   19  C   UNK N   1      24.605  16.321   5.441  0.00  0.00     0.069 A 
BRANCH  16  20
HETATM   20  O   UNK N   1      23.995  19.983   3.584  0.00  0.00    -0.353 OA
HETATM   21  C   UNK N   1      24.869  20.538   2.678  0.00  0.00     0.210 C 
ENDBRANCH  16  20
BRANCH  17  22
HETATM   22  O   UNK N   1      21.763  18.440   4.430  0.00  0.00    -0.351 OA
HETATM   23  C   UNK N   1      20.962  18.149   3.349  0.00  0.00     0.210 C 
ENDBRANCH  17  22
BRANCH  18  24
HETATM   24  O   UNK N   1      22.274  15.970   5.742  0.00  0.00    -0.353 OA
HETATM   25  C   UNK N   1      21.763  16.076   7.018  0.00  0.00     0.210 C 
ENDBRANCH  18  24
ENDBRANCH   1  14
BRANCH  12  26
HETATM   26  C   UNK N   1      32.226  16.627   6.378  0.00  0.00     0.112 A 
HETATM   27  C   UNK N   1      32.546  17.203   5.140  0.00  0.00     0.049 A 
HETATM   28  C   UNK N   1      33.415  16.542   4.274  0.00  0.00     0.005 A 
HETATM   29  C   UNK N   1      33.954  15.311   4.645  0.00  0.00     0.017 A 
HETATM   30  C   UNK N   1      33.620  14.763   5.885  0.00  0.00     0.089 A 
HETATM   31  N   UNK N   1      32.773  15.425   6.719  0.00  0.00    -0.352 N 
ATOM     32  HN  UNK N   1      32.540  15.012   7.622  1.00  0.00     0.166 HD
ENDBRANCH  12  26
TORSDOF 5
ENDMDL
MODEL 9
REMARK VINA RESULT:      -6.7      9.092     13.745
REMARK  5 active torsions:
REMARK  status: ('A' for Active; 'I' for Inactive)
REMARK    1  A    between atoms: O_2  and  C_3 
REMARK    2  A    between atoms: C_5  and  O_6 
REMARK    3  A    between atoms: C_8  and  O_9 
REMARK    4  A    between atoms: C_12  and  N_13 
REMARK       I    between atoms: N_13  and  C_14 
REMARK    5  A    between atoms: N_24  and  C_25 
ROOT
HETATM    1  N   UNK N   1      23.716  16.309   5.031  0.00  0.00    -0.191 N 
HETATM    2  C   UNK N   1      24.416  17.536   4.842  0.00  0.00     0.684 A 
HETATM    3  N   UNK N   1      25.547  17.779   5.566  0.00  0.00    -0.175 N 
ATOM      4  HN  UNK N   1      25.869  17.116   6.271  1.00  0.00     0.186 HD
HETATM    5  C   UNK N   1      26.234  18.924   5.326  0.00  0.00     0.140 A 
HETATM    6  N   UNK N   1      23.990  18.457   3.912  0.00  0.00    -0.201 N 
ATOM      7  HN  UNK N   1      23.138  18.271   3.384  1.00  0.00     0.183 HD
HETATM    8  C   UNK N   1      24.677  19.612   3.678  0.00  0.00     0.121 A 
HETATM    9  C   UNK N   1      25.829  19.830   4.406  0.00  0.00     0.026 A 
HETATM   10  C   UNK N   1      26.735  20.868   4.400  0.00  0.00     0.034 A 
HETATM   11  C   UNK N   1      27.690  20.523   5.365  0.00  0.00     0.101 A 
HETATM   12  N   UNK N   1      27.365  19.329   5.922  0.00  0.00    -0.293 N 
HETATM   13  H   UNK N   1      23.915  15.783   5.839  0.00  0.00     0.184 HD
ENDROOT
BRANCH   1  14
HETATM   14  C   UNK N   1      22.746  15.800   4.123  0.00  0.00     0.054 A 
HETATM   15  C   UNK N   1      23.133  15.387   2.850  0.00  0.00     0.069 A 
HETATM   16  C   UNK N   1      22.193  14.912   1.926  0.00  0.00     0.106 A 
HETATM   17  C   UNK N   1      20.813  14.847   2.293  0.00  0.00     0.135 A 
HETATM   18  C   UNK N   1      20.426  15.291   3.587  0.00  0.00     0.106 A 
HETATM   19  C   UNK N   1      21.399  15.759   4.466  0.00  0.00     0.069 A 
BRANCH  16  20
HETATM   20  O   UNK N   1      22.660  14.534   0.705  0.00  0.00    -0.353 OA
HETATM   21  C   UNK N   1      23.824  13.838   0.468  0.00  0.00     0.210 C 
ENDBRANCH  16  20
BRANCH  17  22
HETATM   22  O   UNK N   1      19.909  14.364   1.397  0.00  0.00    -0.351 OA
HETATM   23  C   UNK N   1      19.207  15.107   0.475  0.00  0.00     0.210 C 
ENDBRANCH  17  22
BRANCH  18  24
HETATM   24  O   UNK N   1      19.126  15.275   3.973  0.00  0.00    -0.353 OA
HETATM   25  C   UNK N   1      18.702  15.666   5.226  0.00  0.00     0.210 C 
ENDBRANCH  18  24
ENDBRANCH   1  14
BRANCH  12  26
HETATM   26  C   UNK N   1      28.103  18.663   6.961  0.00  0.00     0.112 A 
HETATM   27  C   UNK N   1      29.137  17.769   6.645  0.00  0.00     0.049 A 
HETATM   28  C   UNK N   1      29.825  17.120   7.668  0.00  0.00     0.005 A 
HETATM   29  C   UNK N   1      29.475  17.360   8.996  0.00  0.00     0.017 A 
HETATM   30  C   UNK N   1      28.443  18.257   9.280  0.00  0.00     0.089 A 
HETATM   31  N   UNK N   1      27.785  18.885   8.268  0.00  0.00    -0.352 N 
ATOM     32  HN  UNK N   1      27.034  19.538   8.493  1.00  0.00     0.166 HD
ENDBRANCH  12  26
TORSDOF 5
ENDMDL
