REMARK  5 active torsions:
REMARK  status: ('A' for Active; 'I' for Inactive)
REMARK    1  A    between atoms: O_2  and  C_3 
REMARK    2  A    between atoms: C_5  and  O_6 
REMARK    3  A    between atoms: C_8  and  O_9 
REMARK    4  A    between atoms: C_12  and  N_13 
REMARK       I    between atoms: N_13  and  C_14 
REMARK    5  A    between atoms: N_24  and  C_25 
ROOT
HETATM    1  N   UNK N   1       0.451  -0.783  -0.413  0.00  0.00    -0.191 N 
HETATM    2  C   UNK N   1      -0.807  -0.117  -0.339  0.00  0.00     0.684 A 
HETATM    3  N   UNK N   1      -1.946  -0.853  -0.186  0.00  0.00    -0.175 N 
ATOM      4  HN  UNK N   1      -1.911  -1.872  -0.171  1.00  0.00     0.186 HD
HETATM    5  C   UNK N   1      -3.125  -0.197  -0.054  0.00  0.00     0.140 A 
HETATM    6  N   UNK N   1      -0.882   1.257  -0.378  0.00  0.00    -0.201 N 
ATOM      7  HN  UNK N   1      -0.026   1.797  -0.504  1.00  0.00     0.183 HD
HETATM    8  C   UNK N   1      -2.070   1.915  -0.254  0.00  0.00     0.121 A 
HETATM    9  C   UNK N   1      -3.208   1.154  -0.080  0.00  0.00     0.026 A 
HETATM   10  C   UNK N   1      -4.531   1.505   0.083  0.00  0.00     0.034 A 
HETATM   11  C   UNK N   1      -5.217   0.290   0.204  0.00  0.00     0.101 A 
HETATM   12  N   UNK N   1      -4.339  -0.741   0.117  0.00  0.00    -0.293 N 
HETATM   13  H   UNK N   1       0.452  -1.750  -0.599  0.00  0.00     0.184 HD
ENDROOT
BRANCH   1  14
HETATM   14  C   UNK N   1       1.705  -0.135  -0.235  0.00  0.00     0.054 A 
HETATM   15  C   UNK N   1       2.888  -0.857  -0.376  0.00  0.00     0.069 A 
HETATM   16  C   UNK N   1       4.135  -0.250  -0.174  0.00  0.00     0.106 A 
HETATM   17  C   UNK N   1       4.198   1.133   0.179  0.00  0.00     0.135 A 
HETATM   18  C   UNK N   1       2.984   1.855   0.341  0.00  0.00     0.106 A 
HETATM   19  C   UNK N   1       1.771   1.204   0.134  0.00  0.00     0.069 A 
BRANCH  16  20
HETATM   20  O   UNK N   1       5.237  -1.033  -0.329  0.00  0.00    -0.353 OA
HETATM   21  C   UNK N   1       6.539  -0.644  -0.112  0.00  0.00     0.210 C 
ENDBRANCH  16  20
BRANCH  17  22
HETATM   22  O   UNK N   1       5.414   1.721   0.352  0.00  0.00    -0.351 OA
HETATM   23  C   UNK N   1       5.640   3.058   0.587  0.00  0.00     0.210 C 
ENDBRANCH  17  22
BRANCH  18  24
HETATM   24  O   UNK N   1       2.989   3.163   0.703  0.00  0.00    -0.353 OA
HETATM   25  C   UNK N   1       1.840   3.898   0.907  0.00  0.00     0.210 C 
ENDBRANCH  18  24
ENDBRANCH   1  14
BRANCH  12  26
HETATM   26  C   UNK N   1      -4.680  -2.136   0.182  0.00  0.00     0.112 A 
HETATM   27  C   UNK N   1      -3.685  -3.122   0.105  0.00  0.00     0.049 A 
HETATM   28  C   UNK N   1      -4.042  -4.468   0.149  0.00  0.00     0.005 A 
HETATM   29  C   UNK N   1      -5.385  -4.823   0.264  0.00  0.00     0.017 A 
HETATM   30  C   UNK N   1      -6.353  -3.820   0.341  0.00  0.00     0.089 A 
HETATM   31  N   UNK N   1      -5.986  -2.510   0.300  0.00  0.00    -0.352 N 
ATOM     32  HN  UNK N   1      -6.706  -1.790   0.359  1.00  0.00     0.166 HD
ENDBRANCH  12  26
TORSDOF 5
