MODEL 1
REMARK VINA RESULT:      -7.9      0.000      0.000
REMARK  8 active torsions:
REMARK  status: ('A' for Active; 'I' for Inactive)
REMARK    1  A    between atoms: O_2  and  C_3 
REMARK    2  A    between atoms: C_6  and  N_7 
REMARK    3  A    between atoms: N_7  and  C_8 
REMARK    4  A    between atoms: C_25  and  O_26 
REMARK    5  A    between atoms: O_26  and  C_27 
REMARK    6  A    between atoms: C_27  and  C_28 
REMARK    7  A    between atoms: C_28  and  C_29 
REMARK    8  A    between atoms: C_29  and  N_30 
ROOT
HETATM    1  C   UNK N   1      23.474  16.269   4.936  0.00  0.00     0.102 A 
HETATM    2  C   UNK N   1      22.931  15.475   5.941  0.00  0.00     0.057 A 
HETATM    3  C   UNK N   1      21.924  15.961   6.782  0.00  0.00     0.038 A 
HETATM    4  C   UNK N   1      21.424  15.177   7.817  0.00  0.00     0.119 A 
HETATM    5  N   UNK N   1      20.498  15.703   8.663  0.00  0.00    -0.338 N 
ATOM      6  HN  UNK N   1      20.157  15.146   9.445  1.00  0.00     0.168 HD
HETATM    7  C   UNK N   1      20.020  16.965   8.480  0.00  0.00     0.182 A 
HETATM    8  N   UNK N   1      20.484  17.735   7.460  0.00  0.00    -0.351 N 
ATOM      9  HN  UNK N   1      20.117  18.678   7.329  1.00  0.00     0.166 HD
HETATM   10  C   UNK N   1      21.436  17.258   6.615  0.00  0.00     0.050 A 
HETATM   11  C   UNK N   1      21.947  18.059   5.602  0.00  0.00     0.070 A 
HETATM   12  C   UNK N   1      22.971  17.583   4.754  0.00  0.00     0.104 A 
ENDROOT
BRANCH   4  13
HETATM   13  N   UNK N   1      21.976  13.884   7.996  0.00  0.00    -0.338 N 
HETATM   14  H   UNK N   1      21.823  13.285   7.231  0.00  0.00     0.167 HD
BRANCH  13  15
HETATM   15  C   UNK N   1      22.704  13.275   9.049  0.00  0.00     0.092 A 
HETATM   16  C   UNK N   1      21.953  12.793  10.115  0.00  0.00     0.133 A 
HETATM   17  O   UNK N   1      20.626  12.830  10.256  0.00  0.00    -0.321 OA
HETATM   18  C   UNK N   1      22.491  12.201  11.180  0.00  0.00     0.107 A 
HETATM   19  C   UNK N   1      20.294  12.233  11.474  0.00  0.00     0.352 A 
HETATM   20  O   UNK N   1      21.523  11.847  12.022  0.00  0.00    -0.323 OA
HETATM   21  C   UNK N   1      23.862  12.023  11.311  0.00  0.00     0.041 A 
HETATM   22  C   UNK N   1      24.683  12.512  10.280  0.00  0.00     0.029 A 
HETATM   23  C   UNK N   1      24.125  13.145   9.142  0.00  0.00     0.063 A 
HETATM   24 Cl   UNK N   1      25.259  13.801   7.976  0.00  0.00    -0.082 Cl
ENDBRANCH  13  15
ENDBRANCH   4  13
BRANCH   1  25
HETATM   25  O   UNK N   1      24.486  15.739   4.197  0.00  0.00    -0.353 OA
HETATM   26  C   UNK N   1      25.763  15.501   4.648  0.00  0.00     0.210 C 
ENDBRANCH   1  25
BRANCH  12  27
HETATM   27  O   UNK N   1      23.472  18.382   3.784  0.00  0.00    -0.348 OA
BRANCH  27  28
HETATM   28  C   UNK N   1      22.986  19.642   3.529  0.00  0.00     0.177 C 
BRANCH  28  29
HETATM   29  C   UNK N   1      24.125  20.539   3.061  0.00  0.00     0.057 C 
BRANCH  29  30
HETATM   30  C   UNK N   1      25.431  19.767   2.835  0.00  0.00     0.274 C 
BRANCH  30  31
HETATM   31  N   UNK N   1      26.500  20.061   3.800  0.00  0.00     0.088 N 
HETATM   32  C   UNK N   1      27.268  18.833   4.020  0.00  0.00     0.272 C 
HETATM   33  C   UNK N   1      28.429  19.089   4.971  0.00  0.00     0.030 C 
HETATM   34  C   UNK N   1      27.884  19.597   6.297  0.00  0.00     0.003 C 
HETATM   35  C   UNK N   1      27.076  20.867   6.064  0.00  0.00     0.030 C 
HETATM   36  C   UNK N   1      25.961  20.592   5.063  0.00  0.00     0.272 C 
ENDBRANCH  30  31
ENDBRANCH  29  30
ENDBRANCH  28  29
ENDBRANCH  27  28
ENDBRANCH  12  27
TORSDOF 8
ENDMDL
MODEL 2
REMARK VINA RESULT:      -7.5      2.314      3.971
REMARK  8 active torsions:
REMARK  status: ('A' for Active; 'I' for Inactive)
REMARK    1  A    between atoms: O_2  and  C_3 
REMARK    2  A    between atoms: C_6  and  N_7 
REMARK    3  A    between atoms: N_7  and  C_8 
REMARK    4  A    between atoms: C_25  and  O_26 
REMARK    5  A    between atoms: O_26  and  C_27 
REMARK    6  A    between atoms: C_27  and  C_28 
REMARK    7  A    between atoms: C_28  and  C_29 
REMARK    8  A    between atoms: C_29  and  N_30 
ROOT
HETATM    1  C   UNK N   1      22.901  16.643   5.468  0.00  0.00     0.102 A 
HETATM    2  C   UNK N   1      22.544  15.667   6.394  0.00  0.00     0.057 A 
HETATM    3  C   UNK N   1      21.478  15.864   7.277  0.00  0.00     0.038 A 
HETATM    4  C   UNK N   1      21.162  14.905   8.234  0.00  0.00     0.119 A 
HETATM    5  N   UNK N   1      20.167  15.158   9.127  0.00  0.00    -0.338 N 
ATOM      6  HN  UNK N   1      19.958  14.474   9.853  1.00  0.00     0.168 HD
HETATM    7  C   UNK N   1      19.447  16.311   9.065  0.00  0.00     0.182 A 
HETATM    8  N   UNK N   1      19.731  17.250   8.123  0.00  0.00    -0.351 N 
ATOM      9  HN  UNK N   1      19.184  18.109   8.082  1.00  0.00     0.166 HD
HETATM   10  C   UNK N   1      20.742  17.050   7.235  0.00  0.00     0.050 A 
HETATM   11  C   UNK N   1      21.065  18.027   6.302  0.00  0.00     0.070 A 
HETATM   12  C   UNK N   1      22.145  17.843   5.412  0.00  0.00     0.104 A 
ENDROOT
BRANCH   4  13
HETATM   13  N   UNK N   1      21.960  13.736   8.289  0.00  0.00    -0.338 N 
HETATM   14  H   UNK N   1      21.926  13.201   7.465  0.00  0.00     0.167 HD
BRANCH  13  15
HETATM   15  C   UNK N   1      22.799  13.177   9.287  0.00  0.00     0.092 A 
HETATM   16  C   UNK N   1      22.158  12.661  10.408  0.00  0.00     0.133 A 
HETATM   17  O   UNK N   1      20.846  12.624  10.648  0.00  0.00    -0.321 OA
HETATM   18  C   UNK N   1      22.808  12.109  11.431  0.00  0.00     0.107 A 
HETATM   19  C   UNK N   1      20.641  12.019  11.890  0.00  0.00     0.352 A 
HETATM   20  O   UNK N   1      21.928  11.707  12.345  0.00  0.00    -0.323 OA
HETATM   21  C   UNK N   1      24.193  12.010  11.459  0.00  0.00     0.041 A 
HETATM   22  C   UNK N   1      24.905  12.537  10.367  0.00  0.00     0.029 A 
HETATM   23  C   UNK N   1      24.228  13.128   9.273  0.00  0.00     0.063 A 
HETATM   24 Cl   UNK N   1      25.232  13.838   8.022  0.00  0.00    -0.082 Cl
ENDBRANCH  13  15
ENDBRANCH   4  13
BRANCH   1  25
HETATM   25  O   UNK N   1      23.981  16.393   4.681  0.00  0.00    -0.353 OA
HETATM   26  C   UNK N   1      25.290  16.645   5.020  0.00  0.00     0.210 C 
ENDBRANCH   1  25
BRANCH  12  27
HETATM   27  O   UNK N   1      22.461  18.811   4.521  0.00  0.00    -0.348 OA
BRANCH  27  28
HETATM   28  C   UNK N   1      21.515  19.494   3.795  0.00  0.00     0.177 C 
BRANCH  28  29
HETATM   29  C   UNK N   1      21.177  18.706   2.536  0.00  0.00     0.057 C 
BRANCH  29  30
HETATM   30  C   UNK N   1      19.815  18.007   2.623  0.00  0.00     0.274 C 
BRANCH  30  31
HETATM   31  N   UNK N   1      19.870  16.538   2.612  0.00  0.00     0.088 N 
HETATM   32  C   UNK N   1      19.441  16.056   3.928  0.00  0.00     0.272 C 
HETATM   33  C   UNK N   1      19.423  14.534   3.962  0.00  0.00     0.030 C 
HETATM   34  C   UNK N   1      20.818  14.012   3.654  0.00  0.00     0.003 C 
HETATM   35  C   UNK N   1      21.266  14.524   2.291  0.00  0.00     0.030 C 
HETATM   36  C   UNK N   1      21.215  16.047   2.271  0.00  0.00     0.272 C 
ENDBRANCH  30  31
ENDBRANCH  29  30
ENDBRANCH  28  29
ENDBRANCH  27  28
ENDBRANCH  12  27
TORSDOF 8
ENDMDL
MODEL 3
REMARK VINA RESULT:      -7.3      6.876     10.821
REMARK  8 active torsions:
REMARK  status: ('A' for Active; 'I' for Inactive)
REMARK    1  A    between atoms: O_2  and  C_3 
REMARK    2  A    between atoms: C_6  and  N_7 
REMARK    3  A    between atoms: N_7  and  C_8 
REMARK    4  A    between atoms: C_25  and  O_26 
REMARK    5  A    between atoms: O_26  and  C_27 
REMARK    6  A    between atoms: C_27  and  C_28 
REMARK    7  A    between atoms: C_28  and  C_29 
REMARK    8  A    between atoms: C_29  and  N_30 
ROOT
HETATM    1  C   UNK N   1      30.906  17.411   8.125  0.00  0.00     0.102 A 
HETATM    2  C   UNK N   1      29.999  17.324   7.073  0.00  0.00     0.057 A 
HETATM    3  C   UNK N   1      30.437  17.187   5.751  0.00  0.00     0.038 A 
HETATM    4  C   UNK N   1      29.524  17.154   4.702  0.00  0.00     0.119 A 
HETATM    5  N   UNK N   1      29.982  17.095   3.423  0.00  0.00    -0.338 N 
ATOM      6  HN  UNK N   1      29.318  17.108   2.650  1.00  0.00     0.168 HD
HETATM    7  C   UNK N   1      31.316  17.018   3.160  0.00  0.00     0.182 A 
HETATM    8  N   UNK N   1      32.219  17.029   4.177  0.00  0.00    -0.351 N 
ATOM      9  HN  UNK N   1      33.216  16.967   3.970  1.00  0.00     0.166 HD
HETATM   10  C   UNK N   1      31.802  17.124   5.467  0.00  0.00     0.050 A 
HETATM   11  C   UNK N   1      32.724  17.183   6.505  0.00  0.00     0.070 A 
HETATM   12  C   UNK N   1      32.294  17.331   7.841  0.00  0.00     0.104 A 
ENDROOT
BRANCH   4  13
HETATM   13  N   UNK N   1      28.148  17.275   5.016  0.00  0.00    -0.338 N 
HETATM   14  H   UNK N   1      27.838  16.614   5.675  0.00  0.00     0.167 HD
BRANCH  13  15
HETATM   15  C   UNK N   1      27.124  18.153   4.578  0.00  0.00     0.092 A 
HETATM   16  C   UNK N   1      27.045  19.377   5.233  0.00  0.00     0.133 A 
HETATM   17  O   UNK N   1      27.826  19.823   6.218  0.00  0.00    -0.321 OA
HETATM   18  C   UNK N   1      26.136  20.305   4.939  0.00  0.00     0.107 A 
HETATM   19  C   UNK N   1      27.396  21.102   6.579  0.00  0.00     0.352 A 
HETATM   20  O   UNK N   1      26.315  21.362   5.729  0.00  0.00    -0.323 OA
HETATM   21  C   UNK N   1      25.181  20.116   3.948  0.00  0.00     0.041 A 
HETATM   22  C   UNK N   1      25.188  18.888   3.264  0.00  0.00     0.029 A 
HETATM   23  C   UNK N   1      26.148  17.891   3.566  0.00  0.00     0.063 A 
HETATM   24 Cl   UNK N   1      25.988  16.366   2.715  0.00  0.00    -0.082 Cl
ENDBRANCH  13  15
ENDBRANCH   4  13
BRANCH   1  25
HETATM   25  O   UNK N   1      30.400  17.594   9.374  0.00  0.00    -0.353 OA
HETATM   26  C   UNK N   1      29.675  18.687   9.788  0.00  0.00     0.210 C 
ENDBRANCH   1  25
BRANCH  12  27
HETATM   27  O   UNK N   1      33.204  17.407   8.840  0.00  0.00    -0.348 OA
BRANCH  27  28
HETATM   28  C   UNK N   1      34.558  17.295   8.626  0.00  0.00     0.177 C 
BRANCH  28  29
HETATM   29  C   UNK N   1      35.079  16.050   9.333  0.00  0.00     0.057 C 
BRANCH  29  30
HETATM   30  C   UNK N   1      35.457  16.313  10.796  0.00  0.00     0.274 C 
BRANCH  30  31
HETATM   31  N   UNK N   1      36.299  15.280  11.415  0.00  0.00     0.088 N 
HETATM   32  C   UNK N   1      36.780  14.388  10.356  0.00  0.00     0.272 C 
HETATM   33  C   UNK N   1      37.708  13.326  10.930  0.00  0.00     0.030 C 
HETATM   34  C   UNK N   1      36.954  12.519  11.977  0.00  0.00     0.003 C 
HETATM   35  C   UNK N   1      36.445  13.450  13.069  0.00  0.00     0.030 C 
HETATM   36  C   UNK N   1      35.570  14.537  12.455  0.00  0.00     0.272 C 
ENDBRANCH  30  31
ENDBRANCH  29  30
ENDBRANCH  28  29
ENDBRANCH  27  28
ENDBRANCH  12  27
TORSDOF 8
ENDMDL
MODEL 4
REMARK VINA RESULT:      -7.3      9.340     11.475
REMARK  8 active torsions:
REMARK  status: ('A' for Active; 'I' for Inactive)
REMARK    1  A    between atoms: O_2  and  C_3 
REMARK    2  A    between atoms: C_6  and  N_7 
REMARK    3  A    between atoms: N_7  and  C_8 
REMARK    4  A    between atoms: C_25  and  O_26 
REMARK    5  A    between atoms: O_26  and  C_27 
REMARK    6  A    between atoms: C_27  and  C_28 
REMARK    7  A    between atoms: C_28  and  C_29 
REMARK    8  A    between atoms: C_29  and  N_30 
ROOT
HETATM    1  C   UNK N   1      33.229  13.362   8.188  0.00  0.00     0.102 A 
HETATM    2  C   UNK N   1      33.937  13.249   9.381  0.00  0.00     0.057 A 
HETATM    3  C   UNK N   1      34.422  14.382  10.043  0.00  0.00     0.038 A 
HETATM    4  C   UNK N   1      35.173  14.255  11.208  0.00  0.00     0.119 A 
HETATM    5  N   UNK N   1      35.693  15.370  11.788  0.00  0.00    -0.338 N 
ATOM      6  HN  UNK N   1      36.276  15.278  12.620  1.00  0.00     0.168 HD
HETATM    7  C   UNK N   1      35.447  16.607  11.275  0.00  0.00     0.182 A 
HETATM    8  N   UNK N   1      34.697  16.747  10.149  0.00  0.00    -0.351 N 
ATOM      9  HN  UNK N   1      34.515  17.678   9.775  1.00  0.00     0.166 HD
HETATM   10  C   UNK N   1      34.191  15.655   9.519  0.00  0.00     0.050 A 
HETATM   11  C   UNK N   1      33.464  15.792   8.343  0.00  0.00     0.070 A 
HETATM   12  C   UNK N   1      32.979  14.655   7.660  0.00  0.00     0.104 A 
ENDROOT
BRANCH   4  13
HETATM   13  N   UNK N   1      35.439  12.949  11.687  0.00  0.00    -0.338 N 
HETATM   14  H   UNK N   1      36.019  12.425  11.090  0.00  0.00     0.167 HD
BRANCH  13  15
HETATM   15  C   UNK N   1      35.042  12.239  12.849  0.00  0.00     0.092 A 
HETATM   16  C   UNK N   1      35.532  12.722  14.058  0.00  0.00     0.133 A 
HETATM   17  O   UNK N   1      36.323  13.779  14.250  0.00  0.00    -0.321 OA
HETATM   18  C   UNK N   1      35.253  12.163  15.234  0.00  0.00     0.107 A 
HETATM   19  C   UNK N   1      36.568  13.905  15.619  0.00  0.00     0.352 A 
HETATM   20  O   UNK N   1      35.859  12.848  16.201  0.00  0.00    -0.323 OA
HETATM   21  C   UNK N   1      34.448  11.036  15.344  0.00  0.00     0.041 A 
HETATM   22  C   UNK N   1      33.941  10.481  14.156  0.00  0.00     0.029 A 
HETATM   23  C   UNK N   1      34.229  11.064  12.898  0.00  0.00     0.063 A 
HETATM   24 Cl   UNK N   1      33.624  10.219  11.485  0.00  0.00    -0.082 Cl
ENDBRANCH  13  15
ENDBRANCH   4  13
BRANCH   1  25
HETATM   25  O   UNK N   1      32.838  12.210   7.581  0.00  0.00    -0.353 OA
HETATM   26  C   UNK N   1      33.497  11.005   7.657  0.00  0.00     0.210 C 
ENDBRANCH   1  25
BRANCH  12  27
HETATM   27  O   UNK N   1      32.290  14.803   6.505  0.00  0.00    -0.348 OA
BRANCH  27  28
HETATM   28  C   UNK N   1      32.724  15.603   5.474  0.00  0.00     0.177 C 
BRANCH  28  29
HETATM   29  C   UNK N   1      31.652  16.636   5.151  0.00  0.00     0.057 C 
BRANCH  29  30
HETATM   30  C   UNK N   1      30.348  16.398   5.923  0.00  0.00     0.274 C 
BRANCH  30  31
HETATM   31  N   UNK N   1      29.940  17.500   6.806  0.00  0.00     0.088 N 
HETATM   32  C   UNK N   1      30.169  17.082   8.192  0.00  0.00     0.272 C 
HETATM   33  C   UNK N   1      29.816  18.207   9.156  0.00  0.00     0.030 C 
HETATM   34  C   UNK N   1      28.355  18.584   8.969  0.00  0.00     0.003 C 
HETATM   35  C   UNK N   1      28.117  19.006   7.524  0.00  0.00     0.030 C 
HETATM   36  C   UNK N   1      28.536  17.883   6.584  0.00  0.00     0.272 C 
ENDBRANCH  30  31
ENDBRANCH  29  30
ENDBRANCH  28  29
ENDBRANCH  27  28
ENDBRANCH  12  27
TORSDOF 8
ENDMDL
MODEL 5
REMARK VINA RESULT:      -7.1      5.694      8.685
REMARK  8 active torsions:
REMARK  status: ('A' for Active; 'I' for Inactive)
REMARK    1  A    between atoms: O_2  and  C_3 
REMARK    2  A    between atoms: C_6  and  N_7 
REMARK    3  A    between atoms: N_7  and  C_8 
REMARK    4  A    between atoms: C_25  and  O_26 
REMARK    5  A    between atoms: O_26  and  C_27 
REMARK    6  A    between atoms: C_27  and  C_28 
REMARK    7  A    between atoms: C_28  and  C_29 
REMARK    8  A    between atoms: C_29  and  N_30 
ROOT
HETATM    1  C   UNK N   1      29.152  17.557   4.909  0.00  0.00     0.102 A 
HETATM    2  C   UNK N   1      30.126  17.353   5.882  0.00  0.00     0.057 A 
HETATM    3  C   UNK N   1      29.908  17.728   7.212  0.00  0.00     0.038 A 
HETATM    4  C   UNK N   1      30.908  17.568   8.167  0.00  0.00     0.119 A 
HETATM    5  N   UNK N   1      30.693  18.009   9.436  0.00  0.00    -0.338 N 
ATOM      6  HN  UNK N   1      31.436  17.928  10.128  1.00  0.00     0.168 HD
HETATM    7  C   UNK N   1      29.499  18.558   9.793  0.00  0.00     0.182 A 
HETATM    8  N   UNK N   1      28.506  18.702   8.876  0.00  0.00    -0.351 N 
ATOM      9  HN  UNK N   1      27.613  19.110   9.154  1.00  0.00     0.166 HD
HETATM   10  C   UNK N   1      28.695  18.306   7.589  0.00  0.00     0.050 A 
HETATM   11  C   UNK N   1      27.699  18.495   6.638  0.00  0.00     0.070 A 
HETATM   12  C   UNK N   1      27.912  18.131   5.291  0.00  0.00     0.104 A 
ENDROOT
BRANCH   4  13
HETATM   13  N   UNK N   1      32.148  17.029   7.745  0.00  0.00    -0.338 N 
HETATM   14  H   UNK N   1      32.609  17.587   7.079  0.00  0.00     0.167 HD
BRANCH  13  15
HETATM   15  C   UNK N   1      32.863  15.852   8.084  0.00  0.00     0.092 A 
HETATM   16  C   UNK N   1      33.876  16.000   9.024  0.00  0.00     0.133 A 
HETATM   17  O   UNK N   1      34.247  17.119   9.649  0.00  0.00    -0.321 OA
HETATM   18  C   UNK N   1      34.639  14.991   9.441  0.00  0.00     0.107 A 
HETATM   19  C   UNK N   1      35.304  16.815  10.511  0.00  0.00     0.352 A 
HETATM   20  O   UNK N   1      35.512  15.442  10.340  0.00  0.00    -0.323 OA
HETATM   21  C   UNK N   1      34.482  13.698   8.958  0.00  0.00     0.041 A 
HETATM   22  C   UNK N   1      33.491  13.484   7.984  0.00  0.00     0.029 A 
HETATM   23  C   UNK N   1      32.673  14.547   7.530  0.00  0.00     0.063 A 
HETATM   24 Cl   UNK N   1      31.544  14.172   6.241  0.00  0.00    -0.082 Cl
ENDBRANCH  13  15
ENDBRANCH   4  13
BRANCH   1  25
HETATM   25  O   UNK N   1      29.463  17.212   3.631  0.00  0.00    -0.353 OA
HETATM   26  C   UNK N   1      30.218  16.124   3.259  0.00  0.00     0.210 C 
ENDBRANCH   1  25
BRANCH  12  27
HETATM   27  O   UNK N   1      26.940  18.339   4.372  0.00  0.00    -0.348 OA
BRANCH  27  28
HETATM   28  C   UNK N   1      26.510  19.594   4.013  0.00  0.00     0.177 C 
BRANCH  28  29
HETATM   29  C   UNK N   1      25.165  19.485   3.307  0.00  0.00     0.057 C 
BRANCH  29  30
HETATM   30  C   UNK N   1      24.109  18.760   4.152  0.00  0.00     0.274 C 
BRANCH  30  31
HETATM   31  N   UNK N   1      22.724  19.193   3.920  0.00  0.00     0.088 N 
HETATM   32  C   UNK N   1      21.922  18.009   3.601  0.00  0.00     0.272 C 
HETATM   33  C   UNK N   1      20.461  18.387   3.405  0.00  0.00     0.030 C 
HETATM   34  C   UNK N   1      20.356  19.398   2.273  0.00  0.00     0.003 C 
HETATM   35  C   UNK N   1      21.200  20.623   2.602  0.00  0.00     0.030 C 
HETATM   36  C   UNK N   1      22.643  20.203   2.852  0.00  0.00     0.272 C 
ENDBRANCH  30  31
ENDBRANCH  29  30
ENDBRANCH  28  29
ENDBRANCH  27  28
ENDBRANCH  12  27
TORSDOF 8
ENDMDL
MODEL 6
REMARK VINA RESULT:      -7.1      6.608     10.226
REMARK  8 active torsions:
REMARK  status: ('A' for Active; 'I' for Inactive)
REMARK    1  A    between atoms: O_2  and  C_3 
REMARK    2  A    between atoms: C_6  and  N_7 
REMARK    3  A    between atoms: N_7  and  C_8 
REMARK    4  A    between atoms: C_25  and  O_26 
REMARK    5  A    between atoms: O_26  and  C_27 
REMARK    6  A    between atoms: C_27  and  C_28 
REMARK    7  A    between atoms: C_28  and  C_29 
REMARK    8  A    between atoms: C_29  and  N_30 
ROOT
HETATM    1  C   UNK N   1      31.964  17.065   6.194  0.00  0.00     0.102 A 
HETATM    2  C   UNK N   1      30.585  17.190   6.052  0.00  0.00     0.057 A 
HETATM    3  C   UNK N   1      29.748  17.268   7.170  0.00  0.00     0.038 A 
HETATM    4  C   UNK N   1      28.366  17.341   7.018  0.00  0.00     0.119 A 
HETATM    5  N   UNK N   1      27.575  17.341   8.124  0.00  0.00    -0.338 N 
ATOM      6  HN  UNK N   1      26.561  17.356   8.016  1.00  0.00     0.168 HD
HETATM    7  C   UNK N   1      28.116  17.322   9.373  0.00  0.00     0.182 A 
HETATM    8  N   UNK N   1      29.465  17.271   9.537  0.00  0.00    -0.351 N 
ATOM      9  HN  UNK N   1      29.861  17.262  10.477  1.00  0.00     0.166 HD
HETATM   10  C   UNK N   1      30.289  17.233   8.456  0.00  0.00     0.050 A 
HETATM   11  C   UNK N   1      31.665  17.134   8.620  0.00  0.00     0.070 A 
HETATM   12  C   UNK N   1      32.519  17.044   7.500  0.00  0.00     0.104 A 
ENDROOT
BRANCH   4  13
HETATM   13  N   UNK N   1      27.842  17.320   5.702  0.00  0.00    -0.338 N 
HETATM   14  H   UNK N   1      28.118  16.530   5.185  0.00  0.00     0.167 HD
BRANCH  13  15
HETATM   15  C   UNK N   1      27.002  18.201   4.975  0.00  0.00     0.092 A 
HETATM   16  C   UNK N   1      26.990  19.525   5.400  0.00  0.00     0.133 A 
HETATM   17  O   UNK N   1      27.684  20.063   6.405  0.00  0.00    -0.321 OA
HETATM   18  C   UNK N   1      26.250  20.470   4.823  0.00  0.00     0.107 A 
HETATM   19  C   UNK N   1      27.373  21.422   6.481  0.00  0.00     0.352 A 
HETATM   20  O   UNK N   1      26.454  21.630   5.445  0.00  0.00    -0.323 OA
HETATM   21  C   UNK N   1      25.418  20.201   3.744  0.00  0.00     0.041 A 
HETATM   22  C   UNK N   1      25.363  18.875   3.280  0.00  0.00     0.029 A 
HETATM   23  C   UNK N   1      26.144  17.859   3.884  0.00  0.00     0.063 A 
HETATM   24 Cl   UNK N   1      25.909  16.229   3.282  0.00  0.00    -0.082 Cl
ENDBRANCH  13  15
ENDBRANCH   4  13
BRANCH   1  25
HETATM   25  O   UNK N   1      32.701  16.943   5.058  0.00  0.00    -0.353 OA
HETATM   26  C   UNK N   1      32.343  17.421   3.819  0.00  0.00     0.210 C 
ENDBRANCH   1  25
BRANCH  12  27
HETATM   27  O   UNK N   1      33.855  16.928   7.676  0.00  0.00    -0.348 OA
BRANCH  27  28
HETATM   28  C   UNK N   1      34.567  17.728   8.538  0.00  0.00     0.177 C 
BRANCH  28  29
HETATM   29  C   UNK N   1      34.993  16.910   9.751  0.00  0.00     0.057 C 
BRANCH  29  30
HETATM   30  C   UNK N   1      35.304  15.449   9.402  0.00  0.00     0.274 C 
BRANCH  30  31
HETATM   31  N   UNK N   1      35.729  14.617  10.536  0.00  0.00     0.088 N 
HETATM   32  C   UNK N   1      34.846  13.449  10.601  0.00  0.00     0.272 C 
HETATM   33  C   UNK N   1      35.273  12.516  11.726  0.00  0.00     0.030 C 
HETATM   34  C   UNK N   1      35.222  13.272  13.046  0.00  0.00     0.003 C 
HETATM   35  C   UNK N   1      36.131  14.492  12.971  0.00  0.00     0.030 C 
HETATM   36  C   UNK N   1      35.716  15.373  11.799  0.00  0.00     0.272 C 
ENDBRANCH  30  31
ENDBRANCH  29  30
ENDBRANCH  28  29
ENDBRANCH  27  28
ENDBRANCH  12  27
TORSDOF 8
ENDMDL
MODEL 7
REMARK VINA RESULT:      -7.1      8.897     11.006
REMARK  8 active torsions:
REMARK  status: ('A' for Active; 'I' for Inactive)
REMARK    1  A    between atoms: O_2  and  C_3 
REMARK    2  A    between atoms: C_6  and  N_7 
REMARK    3  A    between atoms: N_7  and  C_8 
REMARK    4  A    between atoms: C_25  and  O_26 
REMARK    5  A    between atoms: O_26  and  C_27 
REMARK    6  A    between atoms: C_27  and  C_28 
REMARK    7  A    between atoms: C_28  and  C_29 
REMARK    8  A    between atoms: C_29  and  N_30 
ROOT
HETATM    1  C   UNK N   1      32.550  14.445   7.487  0.00  0.00     0.102 A 
HETATM    2  C   UNK N   1      33.128  14.029   8.683  0.00  0.00     0.057 A 
HETATM    3  C   UNK N   1      33.822  14.928   9.501  0.00  0.00     0.038 A 
HETATM    4  C   UNK N   1      34.440  14.492  10.668  0.00  0.00     0.119 A 
HETATM    5  N   UNK N   1      35.170  15.374  11.403  0.00  0.00    -0.338 N 
ATOM      6  HN  UNK N   1      35.656  15.050  12.239  1.00  0.00     0.168 HD
HETATM    7  C   UNK N   1      35.261  16.683  11.040  0.00  0.00     0.182 A 
HETATM    8  N   UNK N   1      34.645  17.127   9.912  0.00  0.00    -0.351 N 
ATOM      9  HN  UNK N   1      34.715  18.110   9.649  1.00  0.00     0.166 HD
HETATM   10  C   UNK N   1      33.936  16.269   9.131  0.00  0.00     0.050 A 
HETATM   11  C   UNK N   1      33.345  16.710   7.953  0.00  0.00     0.070 A 
HETATM   12  C   UNK N   1      32.651  15.811   7.115  0.00  0.00     0.104 A 
ENDROOT
BRANCH   4  13
HETATM   13  N   UNK N   1      34.354  13.115  10.991  0.00  0.00    -0.338 N 
HETATM   14  H   UNK N   1      33.509  12.701  10.706  0.00  0.00     0.167 HD
BRANCH  13  15
HETATM   15  C   UNK N   1      35.234  12.211  11.638  0.00  0.00     0.092 A 
HETATM   16  C   UNK N   1      35.368  12.365  13.013  0.00  0.00     0.133 A 
HETATM   17  O   UNK N   1      34.758  13.259  13.794  0.00  0.00    -0.321 OA
HETATM   18  C   UNK N   1      36.159  11.597  13.760  0.00  0.00     0.107 A 
HETATM   19  C   UNK N   1      35.180  13.058  15.110  0.00  0.00     0.352 A 
HETATM   20  O   UNK N   1      36.073  11.982  15.031  0.00  0.00    -0.323 OA
HETATM   21  C   UNK N   1      36.925  10.574  13.215  0.00  0.00     0.041 A 
HETATM   22  C   UNK N   1      36.856  10.381  11.823  0.00  0.00     0.029 A 
HETATM   23  C   UNK N   1      36.020  11.191  11.016  0.00  0.00     0.063 A 
HETATM   24 Cl   UNK N   1      36.100  10.918   9.286  0.00  0.00    -0.082 Cl
ENDBRANCH  13  15
ENDBRANCH   4  13
BRANCH   1  25
HETATM   25  O   UNK N   1      31.938  13.498   6.726  0.00  0.00    -0.353 OA
HETATM   26  C   UNK N   1      32.464  12.923   5.593  0.00  0.00     0.210 C 
ENDBRANCH   1  25
BRANCH  12  27
HETATM   27  O   UNK N   1      32.098  16.250   5.961  0.00  0.00    -0.348 OA
BRANCH  27  28
HETATM   28  C   UNK N   1      31.105  17.200   5.925  0.00  0.00     0.177 C 
BRANCH  28  29
HETATM   29  C   UNK N   1      29.753  16.513   5.781  0.00  0.00     0.057 C 
BRANCH  29  30
HETATM   30  C   UNK N   1      28.608  17.322   6.403  0.00  0.00     0.274 C 
BRANCH  30  31
HETATM   31  N   UNK N   1      28.386  18.646   5.803  0.00  0.00     0.088 N 
HETATM   32  C   UNK N   1      27.788  19.514   6.821  0.00  0.00     0.272 C 
HETATM   33  C   UNK N   1      27.585  20.921   6.274  0.00  0.00     0.030 C 
HETATM   34  C   UNK N   1      26.676  20.855   5.057  0.00  0.00     0.003 C 
HETATM   35  C   UNK N   1      27.295  19.943   4.006  0.00  0.00     0.030 C 
HETATM   36  C   UNK N   1      27.540  18.562   4.602  0.00  0.00     0.272 C 
ENDBRANCH  30  31
ENDBRANCH  29  30
ENDBRANCH  28  29
ENDBRANCH  27  28
ENDBRANCH  12  27
TORSDOF 8
ENDMDL
MODEL 8
REMARK VINA RESULT:      -7.1      3.485      8.573
REMARK  8 active torsions:
REMARK  status: ('A' for Active; 'I' for Inactive)
REMARK    1  A    between atoms: O_2  and  C_3 
REMARK    2  A    between atoms: C_6  and  N_7 
REMARK    3  A    between atoms: N_7  and  C_8 
REMARK    4  A    between atoms: C_25  and  O_26 
REMARK    5  A    between atoms: O_26  and  C_27 
REMARK    6  A    between atoms: C_27  and  C_28 
REMARK    7  A    between atoms: C_28  and  C_29 
REMARK    8  A    between atoms: C_29  and  N_30 
ROOT
HETATM    1  C   UNK N   1      25.633  15.477   5.419  0.00  0.00     0.102 A 
HETATM    2  C   UNK N   1      26.911  15.999   5.243  0.00  0.00     0.057 A 
HETATM    3  C   UNK N   1      27.101  17.326   4.842  0.00  0.00     0.038 A 
HETATM    4  C   UNK N   1      28.381  17.823   4.618  0.00  0.00     0.119 A 
HETATM    5  N   UNK N   1      28.529  19.094   4.157  0.00  0.00    -0.338 N 
ATOM      6  HN  UNK N   1      29.463  19.450   3.957  1.00  0.00     0.168 HD
HETATM    7  C   UNK N   1      27.449  19.899   3.961  0.00  0.00     0.182 A 
HETATM    8  N   UNK N   1      26.193  19.433   4.194  0.00  0.00    -0.351 N 
ATOM      9  HN  UNK N   1      25.390  20.045   4.048  1.00  0.00     0.166 HD
HETATM   10  C   UNK N   1      26.001  18.157   4.621  0.00  0.00     0.050 A 
HETATM   11  C   UNK N   1      24.717  17.662   4.815  0.00  0.00     0.070 A 
HETATM   12  C   UNK N   1      24.513  16.323   5.210  0.00  0.00     0.104 A 
ENDROOT
BRANCH   4  13
HETATM   13  N   UNK N   1      29.475  16.942   4.798  0.00  0.00    -0.338 N 
HETATM   14  H   UNK N   1      29.285  16.021   4.510  0.00  0.00     0.167 HD
BRANCH  13  15
HETATM   15  C   UNK N   1      30.788  17.112   5.306  0.00  0.00     0.092 A 
HETATM   16  C   UNK N   1      30.898  17.251   6.685  0.00  0.00     0.133 A 
HETATM   17  O   UNK N   1      29.913  17.233   7.585  0.00  0.00    -0.321 OA
HETATM   18  C   UNK N   1      32.061  17.423   7.311  0.00  0.00     0.107 A 
HETATM   19  C   UNK N   1      30.469  17.405   8.854  0.00  0.00     0.352 A 
HETATM   20  O   UNK N   1      31.845  17.519   8.621  0.00  0.00    -0.323 OA
HETATM   21  C   UNK N   1      33.267  17.484   6.625  0.00  0.00     0.041 A 
HETATM   22  C   UNK N   1      33.225  17.377   5.224  0.00  0.00     0.029 A 
HETATM   23  C   UNK N   1      31.996  17.195   4.544  0.00  0.00     0.063 A 
HETATM   24 Cl   UNK N   1      32.065  17.179   2.792  0.00  0.00    -0.082 Cl
ENDBRANCH  13  15
ENDBRANCH   4  13
BRANCH   1  25
HETATM   25  O   UNK N   1      25.535  14.164   5.759  0.00  0.00    -0.353 OA
HETATM   26  C   UNK N   1      25.387  13.120   4.877  0.00  0.00     0.210 C 
ENDBRANCH   1  25
BRANCH  12  27
HETATM   27  O   UNK N   1      23.256  15.850   5.376  0.00  0.00    -0.348 OA
BRANCH  27  28
HETATM   28  C   UNK N   1      22.564  15.970   6.557  0.00  0.00     0.177 C 
BRANCH  28  29
HETATM   29  C   UNK N   1      22.288  14.583   7.125  0.00  0.00     0.057 C 
BRANCH  29  30
HETATM   30  C   UNK N   1      21.442  14.624   8.404  0.00  0.00     0.274 C 
BRANCH  30  31
HETATM   31  N   UNK N   1      22.017  13.908   9.552  0.00  0.00     0.088 N 
HETATM   32  C   UNK N   1      23.251  13.253   9.109  0.00  0.00     0.272 C 
HETATM   33  C   UNK N   1      23.926  12.538  10.273  0.00  0.00     0.030 C 
HETATM   34  C   UNK N   1      22.969  11.502  10.843  0.00  0.00     0.003 C 
HETATM   35  C   UNK N   1      21.683  12.185  11.290  0.00  0.00     0.030 C 
HETATM   36  C   UNK N   1      21.066  12.940  10.119  0.00  0.00     0.272 C 
ENDBRANCH  30  31
ENDBRANCH  29  30
ENDBRANCH  28  29
ENDBRANCH  27  28
ENDBRANCH  12  27
TORSDOF 8
ENDMDL
MODEL 9
REMARK VINA RESULT:      -7.0      4.821      7.704
REMARK  8 active torsions:
REMARK  status: ('A' for Active; 'I' for Inactive)
REMARK    1  A    between atoms: O_2  and  C_3 
REMARK    2  A    between atoms: C_6  and  N_7 
REMARK    3  A    between atoms: N_7  and  C_8 
REMARK    4  A    between atoms: C_25  and  O_26 
REMARK    5  A    between atoms: O_26  and  C_27 
REMARK    6  A    between atoms: C_27  and  C_28 
REMARK    7  A    between atoms: C_28  and  C_29 
REMARK    8  A    between atoms: C_29  and  N_30 
ROOT
HETATM    1  C   UNK N   1      28.271  16.278   3.330  0.00  0.00     0.102 A 
HETATM    2  C   UNK N   1      27.081  16.918   3.664  0.00  0.00     0.057 A 
HETATM    3  C   UNK N   1      27.065  17.987   4.567  0.00  0.00     0.038 A 
HETATM    4  C   UNK N   1      25.864  18.586   4.934  0.00  0.00     0.119 A 
HETATM    5  N   UNK N   1      25.872  19.573   5.870  0.00  0.00    -0.338 N 
ATOM      6  HN  UNK N   1      24.991  19.989   6.169  1.00  0.00     0.168 HD
HETATM    7  C   UNK N   1      27.040  20.015   6.412  0.00  0.00     0.182 A 
HETATM    8  N   UNK N   1      28.224  19.452   6.047  0.00  0.00    -0.351 N 
ATOM      9  HN  UNK N   1      29.094  19.793   6.456  1.00  0.00     0.166 HD
HETATM   10  C   UNK N   1      28.254  18.438   5.142  0.00  0.00     0.050 A 
HETATM   11  C   UNK N   1      29.456  17.830   4.803  0.00  0.00     0.070 A 
HETATM   12  C   UNK N   1      29.484  16.744   3.901  0.00  0.00     0.104 A 
ENDROOT
BRANCH   4  13
HETATM   13  N   UNK N   1      24.668  18.071   4.376  0.00  0.00    -0.338 N 
HETATM   14  H   UNK N   1      24.662  17.091   4.304  0.00  0.00     0.167 HD
BRANCH  13  15
HETATM   15  C   UNK N   1      23.477  18.677   3.901  0.00  0.00     0.092 A 
HETATM   16  C   UNK N   1      22.296  17.987   4.153  0.00  0.00     0.133 A 
HETATM   17  O   UNK N   1      22.154  16.827   4.797  0.00  0.00    -0.321 OA
HETATM   18  C   UNK N   1      21.099  18.423   3.766  0.00  0.00     0.107 A 
HETATM   19  C   UNK N   1      20.797  16.499   4.824  0.00  0.00     0.352 A 
HETATM   20  O   UNK N   1      20.168  17.554   4.154  0.00  0.00    -0.323 OA
HETATM   21  C   UNK N   1      20.936  19.613   3.068  0.00  0.00     0.041 A 
HETATM   22  C   UNK N   1      22.094  20.348   2.756  0.00  0.00     0.029 A 
HETATM   23  C   UNK N   1      23.374  19.896   3.160  0.00  0.00     0.063 A 
HETATM   24 Cl   UNK N   1      24.746  20.847   2.623  0.00  0.00    -0.082 Cl
ENDBRANCH  13  15
ENDBRANCH   4  13
BRANCH   1  25
HETATM   25  O   UNK N   1      28.194  15.215   2.485  0.00  0.00    -0.353 OA
HETATM   26  C   UNK N   1      27.671  13.982   2.799  0.00  0.00     0.210 C 
ENDBRANCH   1  25
BRANCH  12  27
HETATM   27  O   UNK N   1      30.659  16.148   3.595  0.00  0.00    -0.348 OA
BRANCH  27  28
HETATM   28  C   UNK N   1      31.648  16.775   2.874  0.00  0.00     0.177 C 
BRANCH  28  29
HETATM   29  C   UNK N   1      32.904  16.887   3.729  0.00  0.00     0.057 C 
BRANCH  29  30
HETATM   30  C   UNK N   1      33.031  15.747   4.747  0.00  0.00     0.274 C 
BRANCH  30  31
HETATM   31  N   UNK N   1      33.201  16.177   6.142  0.00  0.00     0.088 N 
HETATM   32  C   UNK N   1      31.925  15.986   6.837  0.00  0.00     0.272 C 
HETATM   33  C   UNK N   1      32.052  16.362   8.307  0.00  0.00     0.030 C 
HETATM   34  C   UNK N   1      32.482  17.818   8.412  0.00  0.00     0.003 C 
HETATM   35  C   UNK N   1      33.802  18.015   7.679  0.00  0.00     0.030 C 
HETATM   36  C   UNK N   1      33.658  17.573   6.228  0.00  0.00     0.272 C 
ENDBRANCH  30  31
ENDBRANCH  29  30
ENDBRANCH  28  29
ENDBRANCH  27  28
ENDBRANCH  12  27
TORSDOF 8
ENDMDL
