MODEL 1
REMARK VINA RESULT:      -6.9      0.000      0.000
REMARK  6 active torsions:
REMARK  status: ('A' for Active; 'I' for Inactive)
REMARK    1  A    between atoms: O_2  and  C_3 
REMARK    2  A    between atoms: C_5  and  N_6 
REMARK       I    between atoms: N_6  and  C_7 
REMARK    3  A    between atoms: C_12  and  N_13 
REMARK    4  A    between atoms: N_13  and  C_14 
REMARK    5  A    between atoms: C_27  and  O_28 
REMARK    6  A    between atoms: C_30  and  O_31 
ROOT
HETATM    1  N   UNK N   1      19.137  16.030   4.306  0.00  0.00    -0.191 N 
HETATM    2  C   UNK N   1      19.821  17.121   3.703  0.00  0.00     0.684 A 
HETATM    3  N   UNK N   1      19.198  17.932   2.801  0.00  0.00    -0.202 N 
ATOM      4  HN  UNK N   1      18.284  17.674   2.429  1.00  0.00     0.183 HD
HETATM    5  C   UNK N   1      19.798  19.089   2.396  0.00  0.00     0.110 A 
HETATM    6  C   UNK N   1      21.051  19.463   2.915  0.00  0.00     0.066 A 
HETATM    7  C   UNK N   1      21.670  18.594   3.819  0.00  0.00     0.122 A 
HETATM    8  N   UNK N   1      21.029  17.485   4.177  0.00  0.00    -0.176 N 
ATOM      9  HN  UNK N   1      21.479  16.871   4.854  1.00  0.00     0.186 HD
HETATM   10  H   UNK N   1      18.390  15.598   3.832  0.00  0.00     0.184 HD
ENDROOT
BRANCH   1  11
HETATM   11  C   UNK N   1      19.529  15.555   5.602  0.00  0.00     0.054 A 
HETATM   12  C   UNK N   1      19.666  16.458   6.646  0.00  0.00     0.069 A 
HETATM   13  C   UNK N   1      20.306  16.089   7.839  0.00  0.00     0.106 A 
HETATM   14  C   UNK N   1      20.842  14.770   7.986  0.00  0.00     0.135 A 
HETATM   15  C   UNK N   1      20.689  13.853   6.911  0.00  0.00     0.106 A 
HETATM   16  C   UNK N   1      20.030  14.260   5.770  0.00  0.00     0.069 A 
BRANCH  13  17
HETATM   17  O   UNK N   1      20.403  17.044   8.800  0.00  0.00    -0.353 OA
HETATM   18  C   UNK N   1      19.414  17.931   9.157  0.00  0.00     0.210 C 
ENDBRANCH  13  17
BRANCH  14  19
HETATM   19  O   UNK N   1      21.468  14.437   9.147  0.00  0.00    -0.351 OA
HETATM   20  C   UNK N   1      20.998  13.563  10.098  0.00  0.00     0.210 C 
ENDBRANCH  14  19
BRANCH  15  21
HETATM   21  O   UNK N   1      21.209  12.604   6.908  0.00  0.00    -0.353 OA
HETATM   22  C   UNK N   1      22.022  12.164   5.887  0.00  0.00     0.210 C 
ENDBRANCH  15  21
ENDBRANCH   1  11
BRANCH   7  23
HETATM   23  N   UNK N   1      22.894  18.865   4.476  0.00  0.00    -0.338 N 
HETATM   24  H   UNK N   1      22.897  19.670   5.044  0.00  0.00     0.167 HD
BRANCH  23  25
HETATM   25  C   UNK N   1      24.112  18.151   4.436  0.00  0.00     0.092 A 
HETATM   26  C   UNK N   1      24.326  16.966   5.147  0.00  0.00     0.133 A 
HETATM   27  O   UNK N   1      23.490  16.296   5.936  0.00  0.00    -0.321 OA
HETATM   28  C   UNK N   1      25.504  16.335   5.126  0.00  0.00     0.107 A 
HETATM   29  C   UNK N   1      24.150  15.172   6.437  0.00  0.00     0.352 A 
HETATM   30  O   UNK N   1      25.432  15.246   5.890  0.00  0.00    -0.323 OA
HETATM   31  C   UNK N   1      26.598  16.810   4.409  0.00  0.00     0.041 A 
HETATM   32  C   UNK N   1      26.438  18.007   3.691  0.00  0.00     0.029 A 
HETATM   33  C   UNK N   1      25.200  18.683   3.705  0.00  0.00     0.063 A 
HETATM   34 Cl   UNK N   1      25.040  20.199   2.827  0.00  0.00    -0.082 Cl
ENDBRANCH  23  25
ENDBRANCH   7  23
TORSDOF 6
ENDMDL
MODEL 2
REMARK VINA RESULT:      -6.9      2.027      3.599
REMARK  6 active torsions:
REMARK  status: ('A' for Active; 'I' for Inactive)
REMARK    1  A    between atoms: O_2  and  C_3 
REMARK    2  A    between atoms: C_5  and  N_6 
REMARK       I    between atoms: N_6  and  C_7 
REMARK    3  A    between atoms: C_12  and  N_13 
REMARK    4  A    between atoms: N_13  and  C_14 
REMARK    5  A    between atoms: C_27  and  O_28 
REMARK    6  A    between atoms: C_30  and  O_31 
ROOT
HETATM    1  N   UNK N   1      20.984  17.674   4.131  0.00  0.00    -0.191 N 
HETATM    2  C   UNK N   1      22.162  18.415   3.838  0.00  0.00     0.684 A 
HETATM    3  N   UNK N   1      22.110  19.563   3.103  0.00  0.00    -0.202 N 
ATOM      4  HN  UNK N   1      21.248  19.821   2.622  1.00  0.00     0.183 HD
HETATM    5  C   UNK N   1      23.210  20.365   3.012  0.00  0.00     0.110 A 
HETATM    6  C   UNK N   1      24.397  20.027   3.685  0.00  0.00     0.066 A 
HETATM    7  C   UNK N   1      24.422  18.830   4.408  0.00  0.00     0.122 A 
HETATM    8  N   UNK N   1      23.314  18.097   4.462  0.00  0.00    -0.176 N 
ATOM      9  HN  UNK N   1      23.336  17.238   5.011  1.00  0.00     0.186 HD
HETATM   10  H   UNK N   1      20.212  17.723   3.522  0.00  0.00     0.184 HD
ENDROOT
BRANCH   1  11
HETATM   11  C   UNK N   1      20.915  16.858   5.309  0.00  0.00     0.054 A 
HETATM   12  C   UNK N   1      20.603  15.512   5.188  0.00  0.00     0.069 A 
HETATM   13  C   UNK N   1      20.255  14.749   6.313  0.00  0.00     0.106 A 
HETATM   14  C   UNK N   1      20.203  15.361   7.606  0.00  0.00     0.135 A 
HETATM   15  C   UNK N   1      20.532  16.740   7.717  0.00  0.00     0.106 A 
HETATM   16  C   UNK N   1      20.891  17.437   6.582  0.00  0.00     0.069 A 
BRANCH  13  17
HETATM   17  O   UNK N   1      19.953  13.443   6.095  0.00  0.00    -0.353 OA
HETATM   18  C   UNK N   1      20.838  12.392   6.156  0.00  0.00     0.210 C 
ENDBRANCH  13  17
BRANCH  14  19
HETATM   19  O   UNK N   1      19.853  14.606   8.681  0.00  0.00    -0.351 OA
HETATM   20  C   UNK N   1      20.713  14.084   9.618  0.00  0.00     0.210 C 
ENDBRANCH  14  19
BRANCH  15  21
HETATM   21  O   UNK N   1      20.457  17.441   8.871  0.00  0.00    -0.353 OA
HETATM   22  C   UNK N   1      19.312  18.118   9.229  0.00  0.00     0.210 C 
ENDBRANCH  15  21
ENDBRANCH   1  11
BRANCH   7  23
HETATM   23  N   UNK N   1      25.517  18.392   5.190  0.00  0.00    -0.338 N 
HETATM   24  H   UNK N   1      25.374  18.412   6.164  0.00  0.00     0.167 HD
BRANCH  23  25
HETATM   25  C   UNK N   1      26.787  17.929   4.777  0.00  0.00     0.092 A 
HETATM   26  C   UNK N   1      26.962  16.975   3.770  0.00  0.00     0.133 A 
HETATM   27  O   UNK N   1      26.047  16.358   3.027  0.00  0.00    -0.321 OA
HETATM   28  C   UNK N   1      28.174  16.523   3.431  0.00  0.00     0.107 A 
HETATM   29  C   UNK N   1      26.693  15.479   2.157  0.00  0.00     0.352 A 
HETATM   30  O   UNK N   1      28.049  15.623   2.457  0.00  0.00    -0.323 OA
HETATM   31  C   UNK N   1      29.339  16.958   4.054  0.00  0.00     0.041 A 
HETATM   32  C   UNK N   1      29.214  17.906   5.084  0.00  0.00     0.029 A 
HETATM   33  C   UNK N   1      27.941  18.391   5.452  0.00  0.00     0.063 A 
HETATM   34 Cl   UNK N   1      27.812  19.548   6.770  0.00  0.00    -0.082 Cl
ENDBRANCH  23  25
ENDBRANCH   7  23
TORSDOF 6
ENDMDL
MODEL 3
REMARK VINA RESULT:      -6.8     12.337     15.279
REMARK  6 active torsions:
REMARK  status: ('A' for Active; 'I' for Inactive)
REMARK    1  A    between atoms: O_2  and  C_3 
REMARK    2  A    between atoms: C_5  and  N_6 
REMARK       I    between atoms: N_6  and  C_7 
REMARK    3  A    between atoms: C_12  and  N_13 
REMARK    4  A    between atoms: N_13  and  C_14 
REMARK    5  A    between atoms: C_27  and  O_28 
REMARK    6  A    between atoms: C_30  and  O_31 
ROOT
HETATM    1  N   UNK N   1      33.195  11.950   8.466  0.00  0.00    -0.191 N 
HETATM    2  C   UNK N   1      33.361  10.860   9.364  0.00  0.00     0.684 A 
HETATM    3  N   UNK N   1      33.667   9.612   8.909  0.00  0.00    -0.202 N 
ATOM      4  HN  UNK N   1      33.626   9.409   7.910  1.00  0.00     0.183 HD
HETATM    5  C   UNK N   1      34.028   8.634   9.790  0.00  0.00     0.110 A 
HETATM    6  C   UNK N   1      34.103   8.908  11.168  0.00  0.00     0.066 A 
HETATM    7  C   UNK N   1      33.758  10.192  11.600  0.00  0.00     0.122 A 
HETATM    8  N   UNK N   1      33.421  11.100  10.689  0.00  0.00    -0.176 N 
ATOM      9  HN  UNK N   1      33.195  12.040  11.013  1.00  0.00     0.186 HD
HETATM   10  H   UNK N   1      32.905  11.782   7.541  0.00  0.00     0.184 HD
ENDROOT
BRANCH   1  11
HETATM   11  C   UNK N   1      33.447  13.294   8.902  0.00  0.00     0.054 A 
HETATM   12  C   UNK N   1      32.434  14.238   8.823  0.00  0.00     0.069 A 
HETATM   13  C   UNK N   1      32.711  15.606   8.971  0.00  0.00     0.106 A 
HETATM   14  C   UNK N   1      34.055  16.045   9.193  0.00  0.00     0.135 A 
HETATM   15  C   UNK N   1      35.082  15.067   9.279  0.00  0.00     0.106 A 
HETATM   16  C   UNK N   1      34.752  13.734   9.149  0.00  0.00     0.069 A 
BRANCH  13  17
HETATM   17  O   UNK N   1      31.657  16.456   8.866  0.00  0.00    -0.353 OA
HETATM   18  C   UNK N   1      31.096  16.901   7.692  0.00  0.00     0.210 C 
ENDBRANCH  13  17
BRANCH  14  19
HETATM   19  O   UNK N   1      34.302  17.376   9.324  0.00  0.00    -0.351 OA
HETATM   20  C   UNK N   1      34.588  18.250   8.303  0.00  0.00     0.210 C 
ENDBRANCH  14  19
BRANCH  15  21
HETATM   21  O   UNK N   1      36.394  15.363   9.420  0.00  0.00    -0.353 OA
HETATM   22  C   UNK N   1      37.328  14.389   9.695  0.00  0.00     0.210 C 
ENDBRANCH  15  21
ENDBRANCH   1  11
BRANCH   7  23
HETATM   23  N   UNK N   1      33.851  10.635  12.941  0.00  0.00    -0.338 N 
HETATM   24  H   UNK N   1      33.039  10.508  13.484  0.00  0.00     0.167 HD
BRANCH  23  25
HETATM   25  C   UNK N   1      34.939  11.232  13.616  0.00  0.00     0.092 A 
HETATM   26  C   UNK N   1      35.321  12.563  13.420  0.00  0.00     0.133 A 
HETATM   27  O   UNK N   1      34.776  13.489  12.634  0.00  0.00    -0.321 OA
HETATM   28  C   UNK N   1      36.383  13.090  14.038  0.00  0.00     0.107 A 
HETATM   29  C   UNK N   1      35.506  14.671  12.760  0.00  0.00     0.352 A 
HETATM   30  O   UNK N   1      36.521  14.361  13.667  0.00  0.00    -0.323 OA
HETATM   31  C   UNK N   1      37.184  12.357  14.908  0.00  0.00     0.041 A 
HETATM   32  C   UNK N   1      36.851  11.009  15.125  0.00  0.00     0.029 A 
HETATM   33  C   UNK N   1      35.733  10.441  14.478  0.00  0.00     0.063 A 
HETATM   34 Cl   UNK N   1      35.362   8.743  14.740  0.00  0.00    -0.082 Cl
ENDBRANCH  23  25
ENDBRANCH   7  23
TORSDOF 6
ENDMDL
MODEL 4
REMARK VINA RESULT:      -6.8      9.735     12.780
REMARK  6 active torsions:
REMARK  status: ('A' for Active; 'I' for Inactive)
REMARK    1  A    between atoms: O_2  and  C_3 
REMARK    2  A    between atoms: C_5  and  N_6 
REMARK       I    between atoms: N_6  and  C_7 
REMARK    3  A    between atoms: C_12  and  N_13 
REMARK    4  A    between atoms: N_13  and  C_14 
REMARK    5  A    between atoms: C_27  and  O_28 
REMARK    6  A    between atoms: C_30  and  O_31 
ROOT
HETATM    1  N   UNK N   1      35.642  16.130  10.521  0.00  0.00    -0.191 N 
HETATM    2  C   UNK N   1      34.764  16.943   9.752  0.00  0.00     0.684 A 
HETATM    3  N   UNK N   1      35.237  17.983   9.007  0.00  0.00    -0.202 N 
ATOM      4  HN  UNK N   1      36.204  18.288   9.114  1.00  0.00     0.183 HD
HETATM    5  C   UNK N   1      34.416  18.613   8.117  0.00  0.00     0.110 A 
HETATM    6  C   UNK N   1      33.086  18.189   7.950  0.00  0.00     0.066 A 
HETATM    7  C   UNK N   1      32.628  17.137   8.750  0.00  0.00     0.122 A 
HETATM    8  N   UNK N   1      33.482  16.561   9.592  0.00  0.00    -0.176 N 
ATOM      9  HN  UNK N   1      33.145  15.779  10.152  1.00  0.00     0.186 HD
HETATM   10  H   UNK N   1      36.490  16.504  10.851  0.00  0.00     0.184 HD
ENDROOT
BRANCH   1  11
HETATM   11  C   UNK N   1      35.297  14.769  10.817  0.00  0.00     0.054 A 
HETATM   12  C   UNK N   1      34.992  14.412  12.122  0.00  0.00     0.069 A 
HETATM   13  C   UNK N   1      34.923  13.063  12.503  0.00  0.00     0.106 A 
HETATM   14  C   UNK N   1      35.183  12.034  11.543  0.00  0.00     0.135 A 
HETATM   15  C   UNK N   1      35.488  12.414  10.207  0.00  0.00     0.106 A 
HETATM   16  C   UNK N   1      35.519  13.753   9.882  0.00  0.00     0.069 A 
BRANCH  13  17
HETATM   17  O   UNK N   1      34.630  12.810  13.804  0.00  0.00    -0.353 OA
HETATM   18  C   UNK N   1      35.407  13.153  14.886  0.00  0.00     0.210 C 
ENDBRANCH  13  17
BRANCH  14  19
HETATM   19  O   UNK N   1      35.122  10.733  11.936  0.00  0.00    -0.351 OA
HETATM   20  C   UNK N   1      33.995   9.947  11.957  0.00  0.00     0.210 C 
ENDBRANCH  14  19
BRANCH  15  21
HETATM   21  O   UNK N   1      35.815  11.536   9.231  0.00  0.00    -0.353 OA
HETATM   22  C   UNK N   1      34.870  11.039   8.362  0.00  0.00     0.210 C 
ENDBRANCH  15  21
ENDBRANCH   1  11
BRANCH   7  23
HETATM   23  N   UNK N   1      31.342  16.557   8.647  0.00  0.00    -0.338 N 
HETATM   24  H   UNK N   1      31.199  15.750   9.193  0.00  0.00     0.167 HD
BRANCH  23  25
HETATM   25  C   UNK N   1      30.232  16.966   7.874  0.00  0.00     0.092 A 
HETATM   26  C   UNK N   1      29.971  16.474   6.592  0.00  0.00     0.133 A 
HETATM   27  O   UNK N   1      30.645  15.572   5.883  0.00  0.00    -0.321 OA
HETATM   28  C   UNK N   1      28.937  16.913   5.866  0.00  0.00     0.107 A 
HETATM   29  C   UNK N   1      30.013  15.406   4.650  0.00  0.00     0.352 A 
HETATM   30  O   UNK N   1      28.930  16.286   4.691  0.00  0.00    -0.323 OA
HETATM   31  C   UNK N   1      28.058  17.888   6.325  0.00  0.00     0.041 A 
HETATM   32  C   UNK N   1      28.288  18.426   7.603  0.00  0.00     0.029 A 
HETATM   33  C   UNK N   1      29.375  17.972   8.379  0.00  0.00     0.063 A 
HETATM   34 Cl   UNK N   1      29.659  18.690   9.959  0.00  0.00    -0.082 Cl
ENDBRANCH  23  25
ENDBRANCH   7  23
TORSDOF 6
ENDMDL
MODEL 5
REMARK VINA RESULT:      -6.7      3.517      5.543
REMARK  6 active torsions:
REMARK  status: ('A' for Active; 'I' for Inactive)
REMARK    1  A    between atoms: O_2  and  C_3 
REMARK    2  A    between atoms: C_5  and  N_6 
REMARK       I    between atoms: N_6  and  C_7 
REMARK    3  A    between atoms: C_12  and  N_13 
REMARK    4  A    between atoms: N_13  and  C_14 
REMARK    5  A    between atoms: C_27  and  O_28 
REMARK    6  A    between atoms: C_30  and  O_31 
ROOT
HETATM    1  N   UNK N   1      21.776  15.235   5.463  0.00  0.00    -0.191 N 
HETATM    2  C   UNK N   1      23.075  15.202   6.041  0.00  0.00     0.684 A 
HETATM    3  N   UNK N   1      23.401  14.282   6.993  0.00  0.00    -0.202 N 
ATOM      4  HN  UNK N   1      22.672  13.707   7.416  1.00  0.00     0.183 HD
HETATM    5  C   UNK N   1      24.701  14.131   7.379  0.00  0.00     0.110 A 
HETATM    6  C   UNK N   1      25.714  14.907   6.790  0.00  0.00     0.066 A 
HETATM    7  C   UNK N   1      25.340  15.859   5.836  0.00  0.00     0.122 A 
HETATM    8  N   UNK N   1      24.056  15.951   5.500  0.00  0.00    -0.176 N 
ATOM      9  HN  UNK N   1      23.798  16.631   4.786  1.00  0.00     0.186 HD
HETATM   10  H   UNK N   1      21.004  14.902   5.975  0.00  0.00     0.184 HD
ENDROOT
BRANCH   1  11
HETATM   11  C   UNK N   1      21.584  15.751   4.138  0.00  0.00     0.054 A 
HETATM   12  C   UNK N   1      20.769  16.857   3.947  0.00  0.00     0.069 A 
HETATM   13  C   UNK N   1      20.335  17.220   2.664  0.00  0.00     0.106 A 
HETATM   14  C   UNK N   1      20.722  16.438   1.529  0.00  0.00     0.135 A 
HETATM   15  C   UNK N   1      21.563  15.312   1.737  0.00  0.00     0.106 A 
HETATM   16  C   UNK N   1      21.980  15.013   3.017  0.00  0.00     0.069 A 
BRANCH  13  17
HETATM   17  O   UNK N   1      19.529  18.310   2.578  0.00  0.00    -0.353 OA
HETATM   18  C   UNK N   1      19.885  19.601   2.892  0.00  0.00     0.210 C 
ENDBRANCH  13  17
BRANCH  14  19
HETATM   19  O   UNK N   1      20.281  16.802   0.294  0.00  0.00    -0.351 OA
HETATM   20  C   UNK N   1      19.142  16.348  -0.325  0.00  0.00     0.210 C 
ENDBRANCH  14  19
BRANCH  15  21
HETATM   21  O   UNK N   1      21.941  14.462   0.754  0.00  0.00    -0.353 OA
HETATM   22  C   UNK N   1      23.235  14.001   0.657  0.00  0.00     0.210 C 
ENDBRANCH  15  21
ENDBRANCH   1  11
BRANCH   7  23
HETATM   23  N   UNK N   1      26.251  16.662   5.110  0.00  0.00    -0.338 N 
HETATM   24  H   UNK N   1      26.912  16.168   4.572  0.00  0.00     0.167 HD
BRANCH  23  25
HETATM   25  C   UNK N   1      26.351  18.070   5.043  0.00  0.00     0.092 A 
HETATM   26  C   UNK N   1      25.370  18.878   4.460  0.00  0.00     0.133 A 
HETATM   27  O   UNK N   1      24.212  18.529   3.904  0.00  0.00    -0.321 OA
HETATM   28  C   UNK N   1      25.512  20.204   4.371  0.00  0.00     0.107 A 
HETATM   29  C   UNK N   1      23.568  19.680   3.448  0.00  0.00     0.352 A 
HETATM   30  O   UNK N   1      24.441  20.721   3.770  0.00  0.00    -0.323 OA
HETATM   31  C   UNK N   1      26.638  20.872   4.839  0.00  0.00     0.041 A 
HETATM   32  C   UNK N   1      27.661  20.101   5.419  0.00  0.00     0.029 A 
HETATM   33  C   UNK N   1      27.524  18.700   5.519  0.00  0.00     0.063 A 
HETATM   34 Cl   UNK N   1      28.835  17.758   6.215  0.00  0.00    -0.082 Cl
ENDBRANCH  23  25
ENDBRANCH   7  23
TORSDOF 6
ENDMDL
MODEL 6
REMARK VINA RESULT:      -6.6      9.044     12.505
REMARK  6 active torsions:
REMARK  status: ('A' for Active; 'I' for Inactive)
REMARK    1  A    between atoms: O_2  and  C_3 
REMARK    2  A    between atoms: C_5  and  N_6 
REMARK       I    between atoms: N_6  and  C_7 
REMARK    3  A    between atoms: C_12  and  N_13 
REMARK    4  A    between atoms: N_13  and  C_14 
REMARK    5  A    between atoms: C_27  and  O_28 
REMARK    6  A    between atoms: C_30  and  O_31 
ROOT
HETATM    1  N   UNK N   1      33.982  17.950   8.627  0.00  0.00    -0.191 N 
HETATM    2  C   UNK N   1      34.413  16.890   9.472  0.00  0.00     0.684 A 
HETATM    3  N   UNK N   1      35.195  17.131  10.563  0.00  0.00    -0.202 N 
ATOM      4  HN  UNK N   1      35.610  18.053  10.699  1.00  0.00     0.183 HD
HETATM    5  C   UNK N   1      35.421  16.138  11.472  0.00  0.00     0.110 A 
HETATM    6  C   UNK N   1      34.840  14.869  11.302  0.00  0.00     0.066 A 
HETATM    7  C   UNK N   1      34.065  14.652  10.158  0.00  0.00     0.122 A 
HETATM    8  N   UNK N   1      33.879  15.663   9.315  0.00  0.00    -0.176 N 
ATOM      9  HN  UNK N   1      33.293  15.501   8.497  1.00  0.00     0.186 HD
HETATM   10  H   UNK N   1      34.522  18.770   8.558  0.00  0.00     0.184 HD
ENDROOT
BRANCH   1  11
HETATM   11  C   UNK N   1      32.765  17.831   7.878  0.00  0.00     0.054 A 
HETATM   12  C   UNK N   1      31.550  17.811   8.548  0.00  0.00     0.069 A 
HETATM   13  C   UNK N   1      30.372  17.422   7.893  0.00  0.00     0.106 A 
HETATM   14  C   UNK N   1      30.414  17.024   6.519  0.00  0.00     0.135 A 
HETATM   15  C   UNK N   1      31.663  17.057   5.842  0.00  0.00     0.106 A 
HETATM   16  C   UNK N   1      32.787  17.470   6.527  0.00  0.00     0.069 A 
BRANCH  13  17
HETATM   17  O   UNK N   1      29.234  17.421   8.634  0.00  0.00    -0.353 OA
HETATM   18  C   UNK N   1      28.407  18.501   8.841  0.00  0.00     0.210 C 
ENDBRANCH  13  17
BRANCH  14  19
HETATM   19  O   UNK N   1      29.261  16.641   5.907  0.00  0.00    -0.351 OA
HETATM   20  C   UNK N   1      28.431  17.448   5.167  0.00  0.00     0.210 C 
ENDBRANCH  14  19
BRANCH  15  21
HETATM   21  O   UNK N   1      31.839  16.643   4.566  0.00  0.00    -0.353 OA
HETATM   22  C   UNK N   1      32.964  16.982   3.846  0.00  0.00     0.210 C 
ENDBRANCH  15  21
ENDBRANCH   1  11
BRANCH   7  23
HETATM   23  N   UNK N   1      33.363  13.454   9.885  0.00  0.00    -0.338 N 
HETATM   24  H   UNK N   1      32.578  13.287  10.456  0.00  0.00     0.167 HD
BRANCH  23  25
HETATM   25  C   UNK N   1      33.623  12.462   8.914  0.00  0.00     0.092 A 
HETATM   26  C   UNK N   1      33.405  12.657   7.547  0.00  0.00     0.133 A 
HETATM   27  O   UNK N   1      32.961  13.738   6.911  0.00  0.00    -0.321 OA
HETATM   28  C   UNK N   1      33.618  11.684   6.654  0.00  0.00     0.107 A 
HETATM   29  C   UNK N   1      32.897  13.460   5.544  0.00  0.00     0.352 A 
HETATM   30  O   UNK N   1      33.326  12.136   5.435  0.00  0.00    -0.323 OA
HETATM   31  C   UNK N   1      34.060  10.416   7.016  0.00  0.00     0.041 A 
HETATM   32  C   UNK N   1      34.277  10.165   8.382  0.00  0.00     0.029 A 
HETATM   33  C   UNK N   1      34.056  11.183   9.334  0.00  0.00     0.063 A 
HETATM   34 Cl   UNK N   1      34.301  10.829  11.039  0.00  0.00    -0.082 Cl
ENDBRANCH  23  25
ENDBRANCH   7  23
TORSDOF 6
ENDMDL
MODEL 7
REMARK VINA RESULT:      -6.6     10.284     13.353
REMARK  6 active torsions:
REMARK  status: ('A' for Active; 'I' for Inactive)
REMARK    1  A    between atoms: O_2  and  C_3 
REMARK    2  A    between atoms: C_5  and  N_6 
REMARK       I    between atoms: N_6  and  C_7 
REMARK    3  A    between atoms: C_12  and  N_13 
REMARK    4  A    between atoms: N_13  and  C_14 
REMARK    5  A    between atoms: C_27  and  O_28 
REMARK    6  A    between atoms: C_30  and  O_31 
ROOT
HETATM    1  N   UNK N   1      35.800  16.270  10.784  0.00  0.00    -0.191 N 
HETATM    2  C   UNK N   1      34.910  16.948   9.907  0.00  0.00     0.684 A 
HETATM    3  N   UNK N   1      35.296  18.074   9.242  0.00  0.00    -0.202 N 
ATOM      4  HN  UNK N   1      36.174  18.534   9.484  1.00  0.00     0.183 HD
HETATM    5  C   UNK N   1      34.508  18.587   8.253  0.00  0.00     0.110 A 
HETATM    6  C   UNK N   1      33.303  17.952   7.900  0.00  0.00     0.066 A 
HETATM    7  C   UNK N   1      32.927  16.814   8.621  0.00  0.00     0.122 A 
HETATM    8  N   UNK N   1      33.744  16.363   9.569  0.00  0.00    -0.176 N 
ATOM      9  HN  UNK N   1      33.471  15.520  10.071  1.00  0.00     0.186 HD
HETATM   10  H   UNK N   1      36.521  16.769  11.232  0.00  0.00     0.184 HD
ENDROOT
BRANCH   1  11
HETATM   11  C   UNK N   1      35.654  14.862  11.020  0.00  0.00     0.054 A 
HETATM   12  C   UNK N   1      35.087  14.425  12.208  0.00  0.00     0.069 A 
HETATM   13  C   UNK N   1      35.177  13.080  12.598  0.00  0.00     0.106 A 
HETATM   14  C   UNK N   1      35.873  12.141  11.773  0.00  0.00     0.135 A 
HETATM   15  C   UNK N   1      36.443  12.600  10.554  0.00  0.00     0.106 A 
HETATM   16  C   UNK N   1      36.304  13.928  10.208  0.00  0.00     0.069 A 
BRANCH  13  17
HETATM   17  O   UNK N   1      34.603  12.749  13.783  0.00  0.00    -0.353 OA
HETATM   18  C   UNK N   1      35.147  12.960  15.028  0.00  0.00     0.210 C 
ENDBRANCH  13  17
BRANCH  14  19
HETATM   19  O   UNK N   1      35.957  10.844  12.175  0.00  0.00    -0.351 OA
HETATM   20  C   UNK N   1      36.985  10.285  12.897  0.00  0.00     0.210 C 
ENDBRANCH  14  19
BRANCH  15  21
HETATM   21  O   UNK N   1      37.178  11.823   9.726  0.00  0.00    -0.353 OA
HETATM   22  C   UNK N   1      38.537  12.000   9.588  0.00  0.00     0.210 C 
ENDBRANCH  15  21
ENDBRANCH   1  11
BRANCH   7  23
HETATM   23  N   UNK N   1      31.783  16.031   8.337  0.00  0.00    -0.338 N 
HETATM   24  H   UNK N   1      31.663  15.238   8.908  0.00  0.00     0.167 HD
BRANCH  23  25
HETATM   25  C   UNK N   1      30.786  16.222   7.354  0.00  0.00     0.092 A 
HETATM   26  C   UNK N   1      29.751  17.153   7.487  0.00  0.00     0.133 A 
HETATM   27  O   UNK N   1      29.509  18.007   8.478  0.00  0.00    -0.321 OA
HETATM   28  C   UNK N   1      28.796  17.280   6.560  0.00  0.00     0.107 A 
HETATM   29  C   UNK N   1      28.355  18.731   8.174  0.00  0.00     0.352 A 
HETATM   30  O   UNK N   1      27.940  18.227   6.940  0.00  0.00    -0.323 OA
HETATM   31  C   UNK N   1      28.756  16.499   5.410  0.00  0.00     0.041 A 
HETATM   32  C   UNK N   1      29.766  15.536   5.239  0.00  0.00     0.029 A 
HETATM   33  C   UNK N   1      30.780  15.391   6.209  0.00  0.00     0.063 A 
HETATM   34 Cl   UNK N   1      32.009  14.154   5.987  0.00  0.00    -0.082 Cl
ENDBRANCH  23  25
ENDBRANCH   7  23
TORSDOF 6
ENDMDL
MODEL 8
REMARK VINA RESULT:      -6.6     13.463     15.793
REMARK  6 active torsions:
REMARK  status: ('A' for Active; 'I' for Inactive)
REMARK    1  A    between atoms: O_2  and  C_3 
REMARK    2  A    between atoms: C_5  and  N_6 
REMARK       I    between atoms: N_6  and  C_7 
REMARK    3  A    between atoms: C_12  and  N_13 
REMARK    4  A    between atoms: N_13  and  C_14 
REMARK    5  A    between atoms: C_27  and  O_28 
REMARK    6  A    between atoms: C_30  and  O_31 
ROOT
HETATM    1  N   UNK N   1      25.434  24.310  -7.523  0.00  0.00    -0.191 N 
HETATM    2  C   UNK N   1      26.453  23.487  -8.076  0.00  0.00     0.684 A 
HETATM    3  N   UNK N   1      26.325  22.946  -9.321  0.00  0.00    -0.202 N 
ATOM      4  HN  UNK N   1      25.431  22.997  -9.809  1.00  0.00     0.183 HD
HETATM    5  C   UNK N   1      27.394  22.339  -9.914  0.00  0.00     0.110 A 
HETATM    6  C   UNK N   1      28.636  22.279  -9.257  0.00  0.00     0.066 A 
HETATM    7  C   UNK N   1      28.722  22.821  -7.970  0.00  0.00     0.122 A 
HETATM    8  N   UNK N   1      27.645  23.405  -7.453  0.00  0.00    -0.176 N 
ATOM      9  HN  UNK N   1      27.726  23.818  -6.524  1.00  0.00     0.186 HD
HETATM   10  H   UNK N   1      24.500  24.194  -7.813  0.00  0.00     0.184 HD
ENDROOT
BRANCH   1  11
HETATM   11  C   UNK N   1      25.759  25.309  -6.546  0.00  0.00     0.054 A 
HETATM   12  C   UNK N   1      26.220  26.549  -6.965  0.00  0.00     0.069 A 
HETATM   13  C   UNK N   1      26.805  27.444  -6.058  0.00  0.00     0.106 A 
HETATM   14  C   UNK N   1      26.948  27.079  -4.681  0.00  0.00     0.135 A 
HETATM   15  C   UNK N   1      26.466  25.809  -4.263  0.00  0.00     0.106 A 
HETATM   16  C   UNK N   1      25.877  24.977  -5.192  0.00  0.00     0.069 A 
BRANCH  13  17
HETATM   17  O   UNK N   1      27.237  28.629  -6.562  0.00  0.00    -0.353 OA
HETATM   18  C   UNK N   1      28.430  28.839  -7.215  0.00  0.00     0.210 C 
ENDBRANCH  13  17
BRANCH  14  19
HETATM   19  O   UNK N   1      27.528  27.959  -3.821  0.00  0.00    -0.351 OA
HETATM   20  C   UNK N   1      26.885  28.952  -3.122  0.00  0.00     0.210 C 
ENDBRANCH  14  19
BRANCH  15  21
HETATM   21  O   UNK N   1      26.603  25.327  -3.007  0.00  0.00    -0.353 OA
HETATM   22  C   UNK N   1      27.089  24.061  -2.769  0.00  0.00     0.210 C 
ENDBRANCH  15  21
ENDBRANCH   1  11
BRANCH   7  23
HETATM   23  N   UNK N   1      29.916  22.897  -7.215  0.00  0.00    -0.338 N 
HETATM   24  H   UNK N   1      30.712  23.194  -7.714  0.00  0.00     0.167 HD
BRANCH  23  25
HETATM   25  C   UNK N   1      30.135  22.609  -5.849  0.00  0.00     0.092 A 
HETATM   26  C   UNK N   1      30.254  23.599  -4.870  0.00  0.00     0.133 A 
HETATM   27  O   UNK N   1      30.176  24.922  -4.996  0.00  0.00    -0.321 OA
HETATM   28  C   UNK N   1      30.506  23.299  -3.591  0.00  0.00     0.107 A 
HETATM   29  C   UNK N   1      30.370  25.504  -3.742  0.00  0.00     0.352 A 
HETATM   30  O   UNK N   1      30.576  24.424  -2.882  0.00  0.00    -0.323 OA
HETATM   31  C   UNK N   1      30.673  21.991  -3.146  0.00  0.00     0.041 A 
HETATM   32  C   UNK N   1      30.578  20.960  -4.097  0.00  0.00     0.029 A 
HETATM   33  C   UNK N   1      30.313  21.264  -5.449  0.00  0.00     0.063 A 
HETATM   34 Cl   UNK N   1      30.237  19.956  -6.622  0.00  0.00    -0.082 Cl
ENDBRANCH  23  25
ENDBRANCH   7  23
TORSDOF 6
ENDMDL
MODEL 9
REMARK VINA RESULT:      -6.6     13.522     16.662
REMARK  6 active torsions:
REMARK  status: ('A' for Active; 'I' for Inactive)
REMARK    1  A    between atoms: O_2  and  C_3 
REMARK    2  A    between atoms: C_5  and  N_6 
REMARK       I    between atoms: N_6  and  C_7 
REMARK    3  A    between atoms: C_12  and  N_13 
REMARK    4  A    between atoms: N_13  and  C_14 
REMARK    5  A    between atoms: C_27  and  O_28 
REMARK    6  A    between atoms: C_30  and  O_31 
ROOT
HETATM    1  N   UNK N   1      31.281  26.275  -3.816  0.00  0.00    -0.191 N 
HETATM    2  C   UNK N   1      30.549  25.087  -3.542  0.00  0.00     0.684 A 
HETATM    3  N   UNK N   1      31.124  24.039  -2.886  0.00  0.00    -0.202 N 
ATOM      4  HN  UNK N   1      32.131  24.031  -2.722  1.00  0.00     0.183 HD
HETATM    5  C   UNK N   1      30.352  23.001  -2.449  0.00  0.00     0.110 A 
HETATM    6  C   UNK N   1      28.961  23.011  -2.656  0.00  0.00     0.066 A 
HETATM    7  C   UNK N   1      28.410  24.090  -3.355  0.00  0.00     0.122 A 
HETATM    8  N   UNK N   1      29.217  25.071  -3.747  0.00  0.00    -0.176 N 
ATOM      9  HN  UNK N   1      28.802  25.864  -4.235  1.00  0.00     0.186 HD
HETATM   10  H   UNK N   1      32.260  26.235  -3.910  0.00  0.00     0.184 HD
ENDROOT
BRANCH   1  11
HETATM   11  C   UNK N   1      30.601  27.530  -3.955  0.00  0.00     0.054 A 
HETATM   12  C   UNK N   1      30.426  28.339  -2.842  0.00  0.00     0.069 A 
HETATM   13  C   UNK N   1      29.539  29.425  -2.871  0.00  0.00     0.106 A 
HETATM   14  C   UNK N   1      28.788  29.704  -4.057  0.00  0.00     0.135 A 
HETATM   15  C   UNK N   1      28.982  28.873  -5.194  0.00  0.00     0.106 A 
HETATM   16  C   UNK N   1      29.884  27.832  -5.118  0.00  0.00     0.069 A 
BRANCH  13  17
HETATM   17  O   UNK N   1      29.425  30.151  -1.730  0.00  0.00    -0.353 OA
HETATM   18  C   UNK N   1      28.566  29.886  -0.689  0.00  0.00     0.210 C 
ENDBRANCH  13  17
BRANCH  14  19
HETATM   19  O   UNK N   1      27.926  30.756  -4.061  0.00  0.00    -0.351 OA
HETATM   20  C   UNK N   1      26.577  30.698  -3.803  0.00  0.00     0.210 C 
ENDBRANCH  14  19
BRANCH  15  21
HETATM   21  O   UNK N   1      28.284  28.997  -6.346  0.00  0.00    -0.353 OA
HETATM   22  C   UNK N   1      28.468  28.128  -7.398  0.00  0.00     0.210 C 
ENDBRANCH  15  21
ENDBRANCH   1  11
BRANCH   7  23
HETATM   23  N   UNK N   1      27.025  24.272  -3.578  0.00  0.00    -0.338 N 
HETATM   24  H   UNK N   1      26.432  23.815  -2.939  0.00  0.00     0.167 HD
BRANCH  23  25
HETATM   25  C   UNK N   1      26.368  25.014  -4.586  0.00  0.00     0.092 A 
HETATM   26  C   UNK N   1      26.076  24.493  -5.850  0.00  0.00     0.133 A 
HETATM   27  O   UNK N   1      26.316  23.277  -6.335  0.00  0.00    -0.321 OA
HETATM   28  C   UNK N   1      25.493  25.232  -6.799  0.00  0.00     0.107 A 
HETATM   29  C   UNK N   1      25.855  23.221  -7.652  0.00  0.00     0.352 A 
HETATM   30  O   UNK N   1      25.341  24.495  -7.898  0.00  0.00    -0.323 OA
HETATM   31  C   UNK N   1      25.145  26.565  -6.604  0.00  0.00     0.041 A 
HETATM   32  C   UNK N   1      25.433  27.139  -5.354  0.00  0.00     0.029 A 
HETATM   33  C   UNK N   1      26.048  26.370  -4.344  0.00  0.00     0.063 A 
HETATM   34 Cl   UNK N   1      26.429  27.126  -2.803  0.00  0.00    -0.082 Cl
ENDBRANCH  23  25
ENDBRANCH   7  23
TORSDOF 6
ENDMDL
