MODEL 1
REMARK VINA RESULT:      -6.9      0.000      0.000
REMARK  6 active torsions:
REMARK  status: ('A' for Active; 'I' for Inactive)
REMARK    1  A    between atoms: O_2  and  C_3 
REMARK    2  A    between atoms: C_6  and  N_7 
REMARK       I    between atoms: N_7  and  C_8 
REMARK       I    between atoms: C_14  and  N_15 
REMARK    3  A    between atoms: N_15  and  C_16 
REMARK    4  A    between atoms: C_18  and  O_19 
REMARK    5  A    between atoms: C_21  and  O_22 
REMARK    6  A    between atoms: C_24  and  O_25 
ROOT
HETATM    1  N   UNK N   1      26.740  16.739   6.088  0.00  0.00    -0.191 N 
HETATM    2  C   UNK N   1      26.049  17.696   5.307  0.00  0.00     0.698 A 
HETATM    3  N   UNK N   1      26.647  18.768   4.727  0.00  0.00    -0.187 N 
ATOM      4  HN  UNK N   1      27.657  18.896   4.798  1.00  0.00     0.185 HD
HETATM    5  C   UNK N   1      25.881  19.673   4.046  0.00  0.00     0.215 A 
HETATM    6  N   UNK N   1      24.522  19.530   3.994  0.00  0.00    -0.187 N 
ATOM      7  HN  UNK N   1      23.951  20.216   3.501  1.00  0.00     0.185 HD
HETATM    8  C   UNK N   1      23.940  18.467   4.607  0.00  0.00     0.698 A 
HETATM    9  N   UNK N   1      22.520  18.324   4.676  0.00  0.00    -0.191 N 
HETATM   10  N   UNK N   1      24.720  17.561   5.227  0.00  0.00    -0.022 N 
ATOM     11  HN  UNK N   1      24.281  16.743   5.651  1.00  0.00     0.203 HD
HETATM   12  H   UNK N   1      26.245  15.905   6.258  0.00  0.00     0.184 HD
HETATM   13  H   UNK N   1      21.952  18.832   4.053  0.00  0.00     0.184 HD
ENDROOT
BRANCH   9  14
HETATM   14  C   UNK N   1      21.909  17.451   5.636  0.00  0.00     0.054 A 
HETATM   15  C   UNK N   1      21.257  17.960   6.757  0.00  0.00     0.069 A 
HETATM   16  C   UNK N   1      20.635  17.103   7.683  0.00  0.00     0.106 A 
HETATM   17  C   UNK N   1      20.643  15.683   7.453  0.00  0.00     0.135 A 
HETATM   18  C   UNK N   1      21.342  15.177   6.329  0.00  0.00     0.106 A 
HETATM   19  C   UNK N   1      21.959  16.065   5.467  0.00  0.00     0.069 A 
BRANCH  16  20
HETATM   20  O   UNK N   1      20.080  17.686   8.776  0.00  0.00    -0.353 OA
HETATM   21  C   UNK N   1      18.741  17.645   9.088  0.00  0.00     0.210 C 
ENDBRANCH  16  20
BRANCH  17  22
HETATM   22  O   UNK N   1      19.999  14.805   8.261  0.00  0.00    -0.351 OA
HETATM   23  C   UNK N   1      20.567  14.259   9.388  0.00  0.00     0.210 C 
ENDBRANCH  17  22
BRANCH  18  24
HETATM   24  O   UNK N   1      21.428  13.858   6.010  0.00  0.00    -0.353 OA
HETATM   25  C   UNK N   1      22.487  13.023   6.278  0.00  0.00     0.210 C 
ENDBRANCH  18  24
ENDBRANCH   9  14
BRANCH   1  26
HETATM   26  C   UNK N   1      28.028  16.794   6.658  0.00  0.00     0.051 A 
HETATM   27  C   UNK N   1      29.152  16.230   6.054  0.00  0.00     0.033 A 
HETATM   28  C   UNK N   1      30.405  16.373   6.661  0.00  0.00     0.041 A 
HETATM   29  C   UNK N   1      30.557  17.091   7.859  0.00  0.00     0.090 A 
HETATM   30  C   UNK N   1      29.403  17.676   8.455  0.00  0.00     0.069 A 
HETATM   31  C   UNK N   1      28.166  17.509   7.843  0.00  0.00     0.056 A 
HETATM   32 Cl   UNK N   1      29.412  18.633   9.933  0.00  0.00    -0.081 Cl
BRANCH  29  33
HETATM   33  O   UNK N   1      31.811  17.183   8.374  0.00  0.00    -0.354 OA
HETATM   34  C   UNK N   1      32.836  17.965   7.894  0.00  0.00     0.210 C 
ENDBRANCH  29  33
ENDBRANCH   1  26
TORSDOF 6
ENDMDL
MODEL 2
REMARK VINA RESULT:      -6.9      4.562      7.694
REMARK  6 active torsions:
REMARK  status: ('A' for Active; 'I' for Inactive)
REMARK    1  A    between atoms: O_2  and  C_3 
REMARK    2  A    between atoms: C_6  and  N_7 
REMARK       I    between atoms: N_7  and  C_8 
REMARK       I    between atoms: C_14  and  N_15 
REMARK    3  A    between atoms: N_15  and  C_16 
REMARK    4  A    between atoms: C_18  and  O_19 
REMARK    5  A    between atoms: C_21  and  O_22 
REMARK    6  A    between atoms: C_24  and  O_25 
ROOT
HETATM    1  N   UNK N   1      21.249  14.543   7.818  0.00  0.00    -0.191 N 
HETATM    2  C   UNK N   1      20.851  14.072   6.545  0.00  0.00     0.698 A 
HETATM    3  N   UNK N   1      20.418  12.806   6.313  0.00  0.00    -0.187 N 
ATOM      4  HN  UNK N   1      20.317  12.145   7.084  1.00  0.00     0.185 HD
HETATM    5  C   UNK N   1      20.118  12.427   5.034  0.00  0.00     0.215 A 
HETATM    6  N   UNK N   1      20.301  13.295   3.993  0.00  0.00    -0.187 N 
ATOM      7  HN  UNK N   1      20.093  13.005   3.037  1.00  0.00     0.185 HD
HETATM    8  C   UNK N   1      20.765  14.546   4.243  0.00  0.00     0.698 A 
HETATM    9  N   UNK N   1      21.075  15.458   3.188  0.00  0.00    -0.191 N 
HETATM   10  N   UNK N   1      21.003  14.914   5.517  0.00  0.00    -0.022 N 
ATOM     11  HN  UNK N   1      21.312  15.868   5.703  1.00  0.00     0.203 HD
HETATM   12  H   UNK N   1      21.323  15.521   7.895  0.00  0.00     0.184 HD
HETATM   13  H   UNK N   1      20.704  15.302   2.290  0.00  0.00     0.184 HD
ENDROOT
BRANCH   9  14
HETATM   14  C   UNK N   1      21.918  16.596   3.415  0.00  0.00     0.054 A 
HETATM   15  C   UNK N   1      23.285  16.445   3.640  0.00  0.00     0.069 A 
HETATM   16  C   UNK N   1      24.114  17.564   3.837  0.00  0.00     0.106 A 
HETATM   17  C   UNK N   1      23.549  18.886   3.772  0.00  0.00     0.135 A 
HETATM   18  C   UNK N   1      22.152  19.023   3.580  0.00  0.00     0.106 A 
HETATM   19  C   UNK N   1      21.381  17.886   3.421  0.00  0.00     0.069 A 
BRANCH  16  20
HETATM   20  O   UNK N   1      25.419  17.316   4.111  0.00  0.00    -0.353 OA
HETATM   21  C   UNK N   1      25.863  16.409   5.045  0.00  0.00     0.210 C 
ENDBRANCH  16  20
BRANCH  17  22
HETATM   22  O   UNK N   1      24.300  20.010   3.874  0.00  0.00    -0.351 OA
HETATM   23  C   UNK N   1      25.015  20.538   2.824  0.00  0.00     0.210 C 
ENDBRANCH  17  22
BRANCH  18  24
HETATM   24  O   UNK N   1      21.501  20.215   3.509  0.00  0.00    -0.353 OA
HETATM   25  C   UNK N   1      21.052  20.829   2.364  0.00  0.00     0.210 C 
ENDBRANCH  18  24
ENDBRANCH   9  14
BRANCH   1  26
HETATM   26  C   UNK N   1      21.555  13.828   8.995  0.00  0.00     0.051 A 
HETATM   27  C   UNK N   1      20.579  13.368   9.880  0.00  0.00     0.033 A 
HETATM   28  C   UNK N   1      20.964  12.620  10.999  0.00  0.00     0.041 A 
HETATM   29  C   UNK N   1      22.312  12.308  11.240  0.00  0.00     0.090 A 
HETATM   30  C   UNK N   1      23.295  12.770  10.318  0.00  0.00     0.069 A 
HETATM   31  C   UNK N   1      22.893  13.523   9.220  0.00  0.00     0.056 A 
HETATM   32 Cl   UNK N   1      25.021  12.447  10.444  0.00  0.00    -0.081 Cl
BRANCH  29  33
HETATM   33  O   UNK N   1      22.592  11.574  12.349  0.00  0.00    -0.354 OA
HETATM   34  C   UNK N   1      23.310  11.991  13.445  0.00  0.00     0.210 C 
ENDBRANCH  29  33
ENDBRANCH   1  26
TORSDOF 6
ENDMDL
MODEL 3
REMARK VINA RESULT:      -6.9      1.072      2.405
REMARK  6 active torsions:
REMARK  status: ('A' for Active; 'I' for Inactive)
REMARK    1  A    between atoms: O_2  and  C_3 
REMARK    2  A    between atoms: C_6  and  N_7 
REMARK       I    between atoms: N_7  and  C_8 
REMARK       I    between atoms: C_14  and  N_15 
REMARK    3  A    between atoms: N_15  and  C_16 
REMARK    4  A    between atoms: C_18  and  O_19 
REMARK    5  A    between atoms: C_21  and  O_22 
REMARK    6  A    between atoms: C_24  and  O_25 
ROOT
HETATM    1  N   UNK N   1      26.626  16.928   5.528  0.00  0.00    -0.191 N 
HETATM    2  C   UNK N   1      26.010  18.016   4.865  0.00  0.00     0.698 A 
HETATM    3  N   UNK N   1      26.667  19.151   4.514  0.00  0.00    -0.187 N 
ATOM      4  HN  UNK N   1      27.669  19.240   4.680  1.00  0.00     0.185 HD
HETATM    5  C   UNK N   1      25.968  20.175   3.935  0.00  0.00     0.215 A 
HETATM    6  N   UNK N   1      24.615  20.077   3.760  0.00  0.00    -0.187 N 
ATOM      7  HN  UNK N   1      24.093  20.849   3.344  1.00  0.00     0.185 HD
HETATM    8  C   UNK N   1      23.973  18.945   4.147  0.00  0.00     0.698 A 
HETATM    9  N   UNK N   1      22.550  18.830   4.085  0.00  0.00    -0.191 N 
HETATM   10  N   UNK N   1      24.690  17.931   4.666  0.00  0.00    -0.022 N 
ATOM     11  HN  UNK N   1      24.208  17.067   4.917  1.00  0.00     0.203 HD
HETATM   12  H   UNK N   1      26.107  16.091   5.523  0.00  0.00     0.184 HD
HETATM   13  H   UNK N   1      22.039  19.448   3.514  0.00  0.00     0.184 HD
ENDROOT
BRANCH   9  14
HETATM   14  C   UNK N   1      21.854  17.830   4.842  0.00  0.00     0.054 A 
HETATM   15  C   UNK N   1      21.478  16.621   4.261  0.00  0.00     0.069 A 
HETATM   16  C   UNK N   1      20.819  15.631   5.013  0.00  0.00     0.106 A 
HETATM   17  C   UNK N   1      20.559  15.855   6.410  0.00  0.00     0.135 A 
HETATM   18  C   UNK N   1      20.914  17.105   6.978  0.00  0.00     0.106 A 
HETATM   19  C   UNK N   1      21.534  18.052   6.184  0.00  0.00     0.069 A 
BRANCH  16  20
HETATM   20  O   UNK N   1      20.436  14.513   4.346  0.00  0.00    -0.353 OA
HETATM   21  C   UNK N   1      19.511  14.488   3.328  0.00  0.00     0.210 C 
ENDBRANCH  16  20
BRANCH  17  22
HETATM   22  O   UNK N   1      20.000  14.917   7.212  0.00  0.00    -0.351 OA
HETATM   23  C   UNK N   1      20.730  13.958   7.875  0.00  0.00     0.210 C 
ENDBRANCH  17  22
BRANCH  18  24
HETATM   24  O   UNK N   1      20.713  17.438   8.281  0.00  0.00    -0.353 OA
HETATM   25  C   UNK N   1      19.548  17.922   8.827  0.00  0.00     0.210 C 
ENDBRANCH  18  24
ENDBRANCH   9  14
BRANCH   1  26
HETATM   26  C   UNK N   1      27.866  16.856   6.193  0.00  0.00     0.051 A 
HETATM   27  C   UNK N   1      28.985  16.224   5.650  0.00  0.00     0.033 A 
HETATM   28  C   UNK N   1      30.196  16.242   6.353  0.00  0.00     0.041 A 
HETATM   29  C   UNK N   1      30.311  16.901   7.589  0.00  0.00     0.090 A 
HETATM   30  C   UNK N   1      29.165  17.556   8.123  0.00  0.00     0.069 A 
HETATM   31  C   UNK N   1      27.969  17.514   7.415  0.00  0.00     0.056 A 
HETATM   32 Cl   UNK N   1      29.136  18.455   9.637  0.00  0.00    -0.081 Cl
BRANCH  29  33
HETATM   33  O   UNK N   1      31.526  16.870   8.198  0.00  0.00    -0.354 OA
HETATM   34  C   UNK N   1      32.482  17.858   8.163  0.00  0.00     0.210 C 
ENDBRANCH  29  33
ENDBRANCH   1  26
TORSDOF 6
ENDMDL
MODEL 4
REMARK VINA RESULT:      -6.7      9.121     12.261
REMARK  6 active torsions:
REMARK  status: ('A' for Active; 'I' for Inactive)
REMARK    1  A    between atoms: O_2  and  C_3 
REMARK    2  A    between atoms: C_6  and  N_7 
REMARK       I    between atoms: N_7  and  C_8 
REMARK       I    between atoms: C_14  and  N_15 
REMARK    3  A    between atoms: N_15  and  C_16 
REMARK    4  A    between atoms: C_18  and  O_19 
REMARK    5  A    between atoms: C_21  and  O_22 
REMARK    6  A    between atoms: C_24  and  O_25 
ROOT
HETATM    1  N   UNK N   1      34.708  12.566  11.531  0.00  0.00    -0.191 N 
HETATM    2  C   UNK N   1      35.639  12.247  10.515  0.00  0.00     0.698 A 
HETATM    3  N   UNK N   1      36.829  11.637  10.750  0.00  0.00    -0.187 N 
ATOM      4  HN  UNK N   1      37.078  11.337  11.692  1.00  0.00     0.185 HD
HETATM    5  C   UNK N   1      37.690  11.431   9.708  0.00  0.00     0.215 A 
HETATM    6  N   UNK N   1      37.381  11.879   8.454  0.00  0.00    -0.187 N 
ATOM      7  HN  UNK N   1      38.032  11.739   7.681  1.00  0.00     0.185 HD
HETATM    8  C   UNK N   1      36.199  12.514   8.246  0.00  0.00     0.698 A 
HETATM    9  N   UNK N   1      35.870  13.096   6.984  0.00  0.00    -0.191 N 
HETATM   10  N   UNK N   1      35.344  12.660   9.277  0.00  0.00    -0.022 N 
ATOM     11  HN  UNK N   1      34.440  13.101   9.107  1.00  0.00     0.203 HD
HETATM   12  H   UNK N   1      33.805  12.795  11.211  0.00  0.00     0.184 HD
HETATM   13  H   UNK N   1      36.359  12.812   6.178  0.00  0.00     0.184 HD
ENDROOT
BRANCH   9  14
HETATM   14  C   UNK N   1      34.837  14.086   6.870  0.00  0.00     0.054 A 
HETATM   15  C   UNK N   1      35.132  15.444   6.964  0.00  0.00     0.069 A 
HETATM   16  C   UNK N   1      34.122  16.415   6.826  0.00  0.00     0.106 A 
HETATM   17  C   UNK N   1      32.772  16.000   6.551  0.00  0.00     0.135 A 
HETATM   18  C   UNK N   1      32.481  14.613   6.496  0.00  0.00     0.106 A 
HETATM   19  C   UNK N   1      33.509  13.705   6.667  0.00  0.00     0.069 A 
BRANCH  16  20
HETATM   20  O   UNK N   1      34.492  17.709   6.995  0.00  0.00    -0.353 OA
HETATM   21  C   UNK N   1      34.597  18.340   8.213  0.00  0.00     0.210 C 
ENDBRANCH  16  20
BRANCH  17  22
HETATM   22  O   UNK N   1      31.765  16.880   6.329  0.00  0.00    -0.351 OA
HETATM   23  C   UNK N   1      31.480  17.404   5.090  0.00  0.00     0.210 C 
ENDBRANCH  17  22
BRANCH  18  24
HETATM   24  O   UNK N   1      31.246  14.099   6.252  0.00  0.00    -0.353 OA
HETATM   25  C   UNK N   1      30.768  13.673   5.035  0.00  0.00     0.210 C 
ENDBRANCH  18  24
ENDBRANCH   9  14
BRANCH   1  26
HETATM   26  C   UNK N   1      34.871  12.607  12.931  0.00  0.00     0.051 A 
HETATM   27  C   UNK N   1      34.275  11.686  13.793  0.00  0.00     0.033 A 
HETATM   28  C   UNK N   1      34.530  11.764  15.167  0.00  0.00     0.041 A 
HETATM   29  C   UNK N   1      35.391  12.742  15.695  0.00  0.00     0.090 A 
HETATM   30  C   UNK N   1      36.006  13.664  14.801  0.00  0.00     0.069 A 
HETATM   31  C   UNK N   1      35.728  13.577  13.441  0.00  0.00     0.056 A 
HETATM   32 Cl   UNK N   1      37.132  14.929  15.280  0.00  0.00    -0.081 Cl
BRANCH  29  33
HETATM   33  O   UNK N   1      35.583  12.739  17.040  0.00  0.00    -0.354 OA
HETATM   34  C   UNK N   1      35.113  13.673  17.934  0.00  0.00     0.210 C 
ENDBRANCH  29  33
ENDBRANCH   1  26
TORSDOF 6
ENDMDL
MODEL 5
REMARK VINA RESULT:      -6.6      6.452     11.573
REMARK  6 active torsions:
REMARK  status: ('A' for Active; 'I' for Inactive)
REMARK    1  A    between atoms: O_2  and  C_3 
REMARK    2  A    between atoms: C_6  and  N_7 
REMARK       I    between atoms: N_7  and  C_8 
REMARK       I    between atoms: C_14  and  N_15 
REMARK    3  A    between atoms: N_15  and  C_16 
REMARK    4  A    between atoms: C_18  and  O_19 
REMARK    5  A    between atoms: C_21  and  O_22 
REMARK    6  A    between atoms: C_24  and  O_25 
ROOT
HETATM    1  N   UNK N   1      31.650  16.256   8.295  0.00  0.00    -0.191 N 
HETATM    2  C   UNK N   1      32.841  16.965   8.579  0.00  0.00     0.698 A 
HETATM    3  N   UNK N   1      33.203  18.110   7.945  0.00  0.00    -0.187 N 
ATOM      4  HN  UNK N   1      32.585  18.535   7.254  1.00  0.00     0.185 HD
HETATM    5  C   UNK N   1      34.407  18.686   8.243  0.00  0.00     0.215 A 
HETATM    6  N   UNK N   1      35.260  18.089   9.130  0.00  0.00    -0.187 N 
ATOM      7  HN  UNK N   1      36.165  18.511   9.338  1.00  0.00     0.185 HD
HETATM    8  C   UNK N   1      34.891  16.928   9.730  0.00  0.00     0.698 A 
HETATM    9  N   UNK N   1      35.783  16.206  10.582  0.00  0.00    -0.191 N 
HETATM   10  N   UNK N   1      33.679  16.407   9.460  0.00  0.00    -0.022 N 
ATOM     11  HN  UNK N   1      33.391  15.557   9.944  1.00  0.00     0.203 HD
HETATM   12  H   UNK N   1      31.398  15.581   8.967  0.00  0.00     0.184 HD
HETATM   13  H   UNK N   1      36.563  16.667  10.967  0.00  0.00     0.184 HD
ENDROOT
BRANCH   9  14
HETATM   14  C   UNK N   1      35.559  14.822  10.887  0.00  0.00     0.054 A 
HETATM   15  C   UNK N   1      35.754  13.834   9.925  0.00  0.00     0.069 A 
HETATM   16  C   UNK N   1      35.559  12.475  10.234  0.00  0.00     0.106 A 
HETATM   17  C   UNK N   1      35.186  12.098  11.572  0.00  0.00     0.135 A 
HETATM   18  C   UNK N   1      34.955  13.117  12.530  0.00  0.00     0.106 A 
HETATM   19  C   UNK N   1      35.135  14.437  12.161  0.00  0.00     0.069 A 
BRANCH  16  20
HETATM   20  O   UNK N   1      35.711  11.590   9.217  0.00  0.00    -0.353 OA
HETATM   21  C   UNK N   1      34.693  11.155   8.400  0.00  0.00     0.210 C 
ENDBRANCH  16  20
BRANCH  17  22
HETATM   22  O   UNK N   1      35.058  10.806  11.961  0.00  0.00    -0.351 OA
HETATM   23  C   UNK N   1      33.868  10.116  11.908  0.00  0.00     0.210 C 
ENDBRANCH  17  22
BRANCH  18  24
HETATM   24  O   UNK N   1      34.592  12.887  13.820  0.00  0.00    -0.353 OA
HETATM   25  C   UNK N   1      35.357  13.133  14.936  0.00  0.00     0.210 C 
ENDBRANCH  18  24
ENDBRANCH   9  14
BRANCH   1  26
HETATM   26  C   UNK N   1      30.768  16.365   7.201  0.00  0.00     0.051 A 
HETATM   27  C   UNK N   1      30.761  15.463   6.136  0.00  0.00     0.033 A 
HETATM   28  C   UNK N   1      29.817  15.613   5.113  0.00  0.00     0.041 A 
HETATM   29  C   UNK N   1      28.863  16.644   5.147  0.00  0.00     0.090 A 
HETATM   30  C   UNK N   1      28.871  17.546   6.249  0.00  0.00     0.069 A 
HETATM   31  C   UNK N   1      29.826  17.388   7.247  0.00  0.00     0.056 A 
HETATM   32 Cl   UNK N   1      27.733  18.871   6.471  0.00  0.00    -0.081 Cl
BRANCH  29  33
HETATM   33  O   UNK N   1      27.983  16.710   4.113  0.00  0.00    -0.354 OA
HETATM   34  C   UNK N   1      27.605  15.671   3.295  0.00  0.00     0.210 C 
ENDBRANCH  29  33
ENDBRANCH   1  26
TORSDOF 6
ENDMDL
MODEL 6
REMARK VINA RESULT:      -6.5      3.819      8.880
REMARK  6 active torsions:
REMARK  status: ('A' for Active; 'I' for Inactive)
REMARK    1  A    between atoms: O_2  and  C_3 
REMARK    2  A    between atoms: C_6  and  N_7 
REMARK       I    between atoms: N_7  and  C_8 
REMARK       I    between atoms: C_14  and  N_15 
REMARK    3  A    between atoms: N_15  and  C_16 
REMARK    4  A    between atoms: C_18  and  O_19 
REMARK    5  A    between atoms: C_21  and  O_22 
REMARK    6  A    between atoms: C_24  and  O_25 
ROOT
HETATM    1  N   UNK N   1      22.742  17.225   4.601  0.00  0.00    -0.191 N 
HETATM    2  C   UNK N   1      23.140  18.490   4.109  0.00  0.00     0.698 A 
HETATM    3  N   UNK N   1      22.395  19.230   3.248  0.00  0.00    -0.187 N 
ATOM      4  HN  UNK N   1      21.473  18.908   2.954  1.00  0.00     0.185 HD
HETATM    5  C   UNK N   1      22.897  20.413   2.778  0.00  0.00     0.215 A 
HETATM    6  N   UNK N   1      24.154  20.820   3.130  0.00  0.00    -0.187 N 
ATOM      7  HN  UNK N   1      24.533  21.694   2.764  1.00  0.00     0.185 HD
HETATM    8  C   UNK N   1      24.894  20.050   3.968  0.00  0.00     0.698 A 
HETATM    9  N   UNK N   1      26.249  20.372   4.285  0.00  0.00    -0.191 N 
HETATM   10  N   UNK N   1      24.359  18.916   4.459  0.00  0.00    -0.022 N 
ATOM     11  HN  UNK N   1      24.903  18.362   5.121  1.00  0.00     0.203 HD
HETATM   12  H   UNK N   1      23.252  16.901   5.378  0.00  0.00     0.184 HD
HETATM   13  H   UNK N   1      26.578  21.287   4.129  0.00  0.00     0.184 HD
ENDROOT
BRANCH   9  14
HETATM   14  C   UNK N   1      27.139  19.385   4.826  0.00  0.00     0.054 A 
HETATM   15  C   UNK N   1      27.641  18.358   4.032  0.00  0.00     0.069 A 
HETATM   16  C   UNK N   1      28.534  17.406   4.558  0.00  0.00     0.106 A 
HETATM   17  C   UNK N   1      28.960  17.515   5.928  0.00  0.00     0.135 A 
HETATM   18  C   UNK N   1      28.412  18.544   6.735  0.00  0.00     0.106 A 
HETATM   19  C   UNK N   1      27.517  19.433   6.170  0.00  0.00     0.069 A 
BRANCH  16  20
HETATM   20  O   UNK N   1      28.920  16.406   3.727  0.00  0.00    -0.353 OA
HETATM   21  C   UNK N   1      29.998  16.471   2.874  0.00  0.00     0.210 C 
ENDBRANCH  16  20
BRANCH  17  22
HETATM   22  O   UNK N   1      29.876  16.682   6.480  0.00  0.00    -0.351 OA
HETATM   23  C   UNK N   1      31.232  16.911   6.429  0.00  0.00     0.210 C 
ENDBRANCH  17  22
BRANCH  18  24
HETATM   24  O   UNK N   1      28.730  18.744   8.042  0.00  0.00    -0.353 OA
HETATM   25  C   UNK N   1      28.162  18.114   9.123  0.00  0.00     0.210 C 
ENDBRANCH  18  24
ENDBRANCH   9  14
BRANCH   1  26
HETATM   26  C   UNK N   1      21.727  16.355   4.151  0.00  0.00     0.051 A 
HETATM   27  C   UNK N   1      20.529  16.164   4.841  0.00  0.00     0.033 A 
HETATM   28  C   UNK N   1      19.550  15.322   4.300  0.00  0.00     0.041 A 
HETATM   29  C   UNK N   1      19.742  14.679   3.065  0.00  0.00     0.090 A 
HETATM   30  C   UNK N   1      20.963  14.898   2.364  0.00  0.00     0.069 A 
HETATM   31  C   UNK N   1      21.928  15.727   2.926  0.00  0.00     0.056 A 
HETATM   32 Cl   UNK N   1      21.360  14.204   0.796  0.00  0.00    -0.081 Cl
BRANCH  29  33
HETATM   33  O   UNK N   1      18.736  13.885   2.615  0.00  0.00    -0.354 OA
HETATM   34  C   UNK N   1      18.724  12.509   2.606  0.00  0.00     0.210 C 
ENDBRANCH  29  33
ENDBRANCH   1  26
TORSDOF 6
ENDMDL
MODEL 7
REMARK VINA RESULT:      -6.5      6.494     11.533
REMARK  6 active torsions:
REMARK  status: ('A' for Active; 'I' for Inactive)
REMARK    1  A    between atoms: O_2  and  C_3 
REMARK    2  A    between atoms: C_6  and  N_7 
REMARK       I    between atoms: N_7  and  C_8 
REMARK       I    between atoms: C_14  and  N_15 
REMARK    3  A    between atoms: N_15  and  C_16 
REMARK    4  A    between atoms: C_18  and  O_19 
REMARK    5  A    between atoms: C_21  and  O_22 
REMARK    6  A    between atoms: C_24  and  O_25 
ROOT
HETATM    1  N   UNK N   1      31.661  16.187   8.285  0.00  0.00    -0.191 N 
HETATM    2  C   UNK N   1      32.832  16.930   8.565  0.00  0.00     0.698 A 
HETATM    3  N   UNK N   1      33.166  18.078   7.921  0.00  0.00    -0.187 N 
ATOM      4  HN  UNK N   1      32.538  18.481   7.224  1.00  0.00     0.185 HD
HETATM    5  C   UNK N   1      34.353  18.689   8.216  0.00  0.00     0.215 A 
HETATM    6  N   UNK N   1      35.219  18.123   9.111  0.00  0.00    -0.187 N 
ATOM      7  HN  UNK N   1      36.112  18.571   9.318  1.00  0.00     0.185 HD
HETATM    8  C   UNK N   1      34.880  16.959   9.721  0.00  0.00     0.698 A 
HETATM    9  N   UNK N   1      35.787  16.269  10.583  0.00  0.00    -0.191 N 
HETATM   10  N   UNK N   1      33.683  16.403   9.453  0.00  0.00    -0.022 N 
ATOM     11  HN  UNK N   1      33.415  15.550   9.945  1.00  0.00     0.203 HD
HETATM   12  H   UNK N   1      31.425  15.513   8.963  0.00  0.00     0.184 HD
HETATM   13  H   UNK N   1      36.554  16.754  10.965  0.00  0.00     0.184 HD
ENDROOT
BRANCH   9  14
HETATM   14  C   UNK N   1      35.600  14.883  10.901  0.00  0.00     0.054 A 
HETATM   15  C   UNK N   1      35.140  14.489  12.155  0.00  0.00     0.069 A 
HETATM   16  C   UNK N   1      34.931  13.130  12.456  0.00  0.00     0.106 A 
HETATM   17  C   UNK N   1      35.164  12.135  11.443  0.00  0.00     0.135 A 
HETATM   18  C   UNK N   1      35.667  12.548  10.184  0.00  0.00     0.106 A 
HETATM   19  C   UNK N   1      35.880  13.895   9.954  0.00  0.00     0.069 A 
BRANCH  16  20
HETATM   20  O   UNK N   1      34.542  12.839  13.722  0.00  0.00    -0.353 OA
HETATM   21  C   UNK N   1      35.394  12.736  14.798  0.00  0.00     0.210 C 
ENDBRANCH  16  20
BRANCH  17  22
HETATM   22  O   UNK N   1      34.910  10.818  11.636  0.00  0.00    -0.351 OA
HETATM   23  C   UNK N   1      35.821   9.947  12.189  0.00  0.00     0.210 C 
ENDBRANCH  17  22
BRANCH  18  24
HETATM   24  O   UNK N   1      35.934  11.703   9.151  0.00  0.00    -0.353 OA
HETATM   25  C   UNK N   1      35.627  11.914   7.828  0.00  0.00     0.210 C 
ENDBRANCH  18  24
ENDBRANCH   9  14
BRANCH   1  26
HETATM   26  C   UNK N   1      30.780  16.263   7.188  0.00  0.00     0.051 A 
HETATM   27  C   UNK N   1      30.794  15.346   6.136  0.00  0.00     0.033 A 
HETATM   28  C   UNK N   1      29.850  15.462   5.109  0.00  0.00     0.041 A 
HETATM   29  C   UNK N   1      28.874  16.473   5.125  0.00  0.00     0.090 A 
HETATM   30  C   UNK N   1      28.861  17.391   6.214  0.00  0.00     0.069 A 
HETATM   31  C   UNK N   1      29.817  17.266   7.217  0.00  0.00     0.056 A 
HETATM   32 Cl   UNK N   1      27.696  18.695   6.415  0.00  0.00    -0.081 Cl
BRANCH  29  33
HETATM   33  O   UNK N   1      27.996  16.505   4.089  0.00  0.00    -0.354 OA
HETATM   34  C   UNK N   1      27.732  15.481   3.210  0.00  0.00     0.210 C 
ENDBRANCH  29  33
ENDBRANCH   1  26
TORSDOF 6
ENDMDL
MODEL 8
REMARK VINA RESULT:      -6.4      4.070      7.718
REMARK  6 active torsions:
REMARK  status: ('A' for Active; 'I' for Inactive)
REMARK    1  A    between atoms: O_2  and  C_3 
REMARK    2  A    between atoms: C_6  and  N_7 
REMARK       I    between atoms: N_7  and  C_8 
REMARK       I    between atoms: C_14  and  N_15 
REMARK    3  A    between atoms: N_15  and  C_16 
REMARK    4  A    between atoms: C_18  and  O_19 
REMARK    5  A    between atoms: C_21  and  O_22 
REMARK    6  A    between atoms: C_24  and  O_25 
ROOT
HETATM    1  N   UNK N   1      23.921  14.481   6.886  0.00  0.00    -0.191 N 
HETATM    2  C   UNK N   1      24.368  13.944   5.656  0.00  0.00     0.698 A 
HETATM    3  N   UNK N   1      24.298  12.625   5.342  0.00  0.00    -0.187 N 
ATOM      4  HN  UNK N   1      23.863  11.964   5.985  1.00  0.00     0.185 HD
HETATM    5  C   UNK N   1      24.818  12.193   4.153  0.00  0.00     0.215 A 
HETATM    6  N   UNK N   1      25.447  13.070   3.313  0.00  0.00    -0.187 N 
ATOM      7  HN  UNK N   1      25.849  12.743   2.434  1.00  0.00     0.185 HD
HETATM    8  C   UNK N   1      25.534  14.380   3.660  0.00  0.00     0.698 A 
HETATM    9  N   UNK N   1      26.270  15.319   2.875  0.00  0.00    -0.191 N 
HETATM   10  N   UNK N   1      24.969  14.791   4.812  0.00  0.00    -0.022 N 
ATOM     11  HN  UNK N   1      25.001  15.783   5.048  1.00  0.00     0.203 HD
HETATM   12  H   UNK N   1      23.820  15.461   6.900  0.00  0.00     0.184 HD
HETATM   13  H   UNK N   1      26.490  15.101   1.941  0.00  0.00     0.184 HD
ENDROOT
BRANCH   9  14
HETATM   14  C   UNK N   1      26.693  16.575   3.424  0.00  0.00     0.054 A 
HETATM   15  C   UNK N   1      25.948  17.734   3.225  0.00  0.00     0.069 A 
HETATM   16  C   UNK N   1      26.351  18.959   3.787  0.00  0.00     0.106 A 
HETATM   17  C   UNK N   1      27.532  19.009   4.608  0.00  0.00     0.135 A 
HETATM   18  C   UNK N   1      28.301  17.830   4.771  0.00  0.00     0.106 A 
HETATM   19  C   UNK N   1      27.871  16.660   4.171  0.00  0.00     0.069 A 
BRANCH  16  20
HETATM   20  O   UNK N   1      25.597  20.046   3.487  0.00  0.00    -0.353 OA
HETATM   21  C   UNK N   1      24.223  20.048   3.408  0.00  0.00     0.210 C 
ENDBRANCH  16  20
BRANCH  17  22
HETATM   22  O   UNK N   1      27.937  20.136   5.244  0.00  0.00    -0.351 OA
HETATM   23  C   UNK N   1      27.429  20.541   6.457  0.00  0.00     0.210 C 
ENDBRANCH  17  22
BRANCH  18  24
HETATM   24  O   UNK N   1      29.438  17.752   5.514  0.00  0.00    -0.353 OA
HETATM   25  C   UNK N   1      30.666  17.317   5.078  0.00  0.00     0.210 C 
ENDBRANCH  18  24
ENDBRANCH   9  14
BRANCH   1  26
HETATM   26  C   UNK N   1      23.597  13.832   8.095  0.00  0.00     0.051 A 
HETATM   27  C   UNK N   1      24.542  13.169   8.879  0.00  0.00     0.033 A 
HETATM   28  C   UNK N   1      24.147  12.594  10.093  0.00  0.00     0.041 A 
HETATM   29  C   UNK N   1      22.821  12.687  10.547  0.00  0.00     0.090 A 
HETATM   30  C   UNK N   1      21.872  13.382   9.744  0.00  0.00     0.069 A 
HETATM   31  C   UNK N   1      22.282  13.934   8.535  0.00  0.00     0.056 A 
HETATM   32 Cl   UNK N   1      20.181  13.624  10.171  0.00  0.00    -0.081 Cl
BRANCH  29  33
HETATM   33  O   UNK N   1      22.531  12.103  11.739  0.00  0.00    -0.354 OA
HETATM   34  C   UNK N   1      23.393  11.930  12.796  0.00  0.00     0.210 C 
ENDBRANCH  29  33
ENDBRANCH   1  26
TORSDOF 6
ENDMDL
MODEL 9
REMARK VINA RESULT:      -6.4      7.175     10.813
REMARK  6 active torsions:
REMARK  status: ('A' for Active; 'I' for Inactive)
REMARK    1  A    between atoms: O_2  and  C_3 
REMARK    2  A    between atoms: C_6  and  N_7 
REMARK       I    between atoms: N_7  and  C_8 
REMARK       I    between atoms: C_14  and  N_15 
REMARK    3  A    between atoms: N_15  and  C_16 
REMARK    4  A    between atoms: C_18  and  O_19 
REMARK    5  A    between atoms: C_21  and  O_22 
REMARK    6  A    between atoms: C_24  and  O_25 
ROOT
HETATM    1  N   UNK N   1      35.020  13.381   8.928  0.00  0.00    -0.191 N 
HETATM    2  C   UNK N   1      35.208  14.641   9.543  0.00  0.00     0.698 A 
HETATM    3  N   UNK N   1      35.845  14.811  10.731  0.00  0.00    -0.187 N 
ATOM      4  HN  UNK N   1      36.264  14.015  11.210  1.00  0.00     0.185 HD
HETATM    5  C   UNK N   1      35.918  16.063  11.275  0.00  0.00     0.215 A 
HETATM    6  N   UNK N   1      35.312  17.123  10.659  0.00  0.00    -0.187 N 
ATOM      7  HN  UNK N   1      35.353  18.054  11.076  1.00  0.00     0.185 HD
HETATM    8  C   UNK N   1      34.654  16.926   9.488  0.00  0.00     0.698 A 
HETATM    9  N   UNK N   1      33.915  17.972   8.856  0.00  0.00    -0.191 N 
HETATM   10  N   UNK N   1      34.640  15.694   8.944  0.00  0.00    -0.022 N 
ATOM     11  HN  UNK N   1      34.180  15.560   8.044  1.00  0.00     0.203 HD
HETATM   12  H   UNK N   1      34.751  13.416   7.982  0.00  0.00     0.184 HD
HETATM   13  H   UNK N   1      34.094  18.908   9.103  0.00  0.00     0.184 HD
ENDROOT
BRANCH   9  14
HETATM   14  C   UNK N   1      32.917  17.682   7.867  0.00  0.00     0.054 A 
HETATM   15  C   UNK N   1      33.254  17.558   6.521  0.00  0.00     0.069 A 
HETATM   16  C   UNK N   1      32.278  17.247   5.556  0.00  0.00     0.106 A 
HETATM   17  C   UNK N   1      30.918  17.021   5.970  0.00  0.00     0.135 A 
HETATM   18  C   UNK N   1      30.584  17.187   7.337  0.00  0.00     0.106 A 
HETATM   19  C   UNK N   1      31.580  17.521   8.236  0.00  0.00     0.069 A 
BRANCH  16  20
HETATM   20  O   UNK N   1      32.688  17.209   4.264  0.00  0.00    -0.353 OA
HETATM   21  C   UNK N   1      33.067  16.067   3.596  0.00  0.00     0.210 C 
ENDBRANCH  16  20
BRANCH  17  22
HETATM   22  O   UNK N   1      29.943  16.642   5.108  0.00  0.00    -0.351 OA
HETATM   23  C   UNK N   1      29.169  17.535   4.404  0.00  0.00     0.210 C 
ENDBRANCH  17  22
BRANCH  18  24
HETATM   24  O   UNK N   1      29.335  17.009   7.847  0.00  0.00    -0.353 OA
HETATM   25  C   UNK N   1      28.428  17.999   8.142  0.00  0.00     0.210 C 
ENDBRANCH  18  24
ENDBRANCH   9  14
BRANCH   1  26
HETATM   26  C   UNK N   1      35.160  12.083   9.460  0.00  0.00     0.051 A 
HETATM   27  C   UNK N   1      35.948  11.097   8.864  0.00  0.00     0.033 A 
HETATM   28  C   UNK N   1      36.074   9.849   9.484  0.00  0.00     0.041 A 
HETATM   29  C   UNK N   1      35.438   9.573  10.707  0.00  0.00     0.090 A 
HETATM   30  C   UNK N   1      34.651  10.595  11.312  0.00  0.00     0.069 A 
HETATM   31  C   UNK N   1      34.527  11.823  10.672  0.00  0.00     0.056 A 
HETATM   32 Cl   UNK N   1      33.813  10.438  12.852  0.00  0.00    -0.081 Cl
BRANCH  29  33
HETATM   33  O   UNK N   1      35.621   8.336  11.238  0.00  0.00    -0.354 OA
HETATM   34  C   UNK N   1      36.603   7.966  12.127  0.00  0.00     0.210 C 
ENDBRANCH  29  33
ENDBRANCH   1  26
TORSDOF 6
ENDMDL
