MODEL 1
REMARK VINA RESULT:      -8.3      0.000      0.000
REMARK  5 active torsions:
REMARK  status: ('A' for Active; 'I' for Inactive)
REMARK       I    between atoms: C_1  and  N_29 
REMARK    1  A    between atoms: C_6  and  N_7 
REMARK    2  A    between atoms: N_7  and  C_8 
REMARK    3  A    between atoms: N_20  and  S_21 
REMARK    4  A    between atoms: S_21  and  C_24 
REMARK    5  A    between atoms: C_28  and  N_29 
ROOT
HETATM    1  C   UNK N   1      34.540  14.635  10.465  0.00  0.00     0.684 A 
HETATM    2  N   UNK N   1      35.178  14.141   9.365  0.00  0.00    -0.202 N 
ATOM      3  HN  UNK N   1      34.748  14.256   8.446  1.00  0.00     0.183 HD
HETATM    4  C   UNK N   1      36.363  13.506   9.462  0.00  0.00     0.110 A 
HETATM    5  C   UNK N   1      36.966  13.383  10.699  0.00  0.00     0.066 A 
HETATM    6  C   UNK N   1      36.317  13.906  11.827  0.00  0.00     0.122 A 
HETATM    7  N   UNK N   1      35.108  14.508  11.693  0.00  0.00    -0.176 N 
ATOM      8  HN  UNK N   1      34.624  14.866  12.516  1.00  0.00     0.186 HD
HETATM    9  N   UNK N   1      33.375  15.407  10.288  0.00  0.00    -0.192 N 
HETATM   10  H   UNK N   1      32.613  15.342  10.908  0.00  0.00     0.184 HD
ENDROOT
BRANCH   9  11
HETATM   11  C   UNK N   1      33.356  16.279   9.178  0.00  0.00     0.050 A 
HETATM   12  C   UNK N   1      34.316  17.297   9.094  0.00  0.00     0.030 A 
HETATM   13  C   UNK N   1      34.424  18.078   7.950  0.00  0.00     0.004 A 
HETATM   14  C   UNK N   1      33.598  17.823   6.859  0.00  0.00     0.025 A 
HETATM   15  C   UNK N   1      32.633  16.806   6.904  0.00  0.00     0.081 A 
HETATM   16  C   UNK N   1      32.516  16.030   8.097  0.00  0.00     0.055 A 
BRANCH  15  17
HETATM   17  S   UNK N   1      31.652  16.541   5.370  0.00  0.00     0.256 S 
HETATM   18  O   UNK N   1      32.755  17.578   5.106  0.00  0.00    -0.201 OA
HETATM   19  O   UNK N   1      30.638  17.322   6.223  0.00  0.00    -0.201 OA
BRANCH  17  20
HETATM   20  N   UNK N   1      31.003  17.674   4.186  0.00  0.00    -0.324 N 
HETATM   21  H   UNK N   1      30.542  18.528   4.497  0.00  0.00     0.169 HD
HETATM   22  H   UNK N   1      31.090  17.474   3.190  0.00  0.00     0.169 HD
ENDBRANCH  17  20
ENDBRANCH  15  17
ENDBRANCH   9  11
BRANCH   6  23
HETATM   23  N   UNK N   1      36.913  13.789  13.104  0.00  0.00    -0.338 N 
HETATM   24  H   UNK N   1      37.852  14.059  13.229  0.00  0.00     0.167 HD
BRANCH  23  25
HETATM   25  C   UNK N   1      36.176  13.291  14.204  0.00  0.00     0.092 A 
HETATM   26  C   UNK N   1      35.259  12.240  14.058  0.00  0.00     0.133 A 
HETATM   27  O   UNK N   1      34.962  11.532  12.968  0.00  0.00    -0.321 OA
HETATM   28  C   UNK N   1      34.520  11.800  15.083  0.00  0.00     0.107 A 
HETATM   29  C   UNK N   1      33.987  10.588  13.306  0.00  0.00     0.352 A 
HETATM   30  O   UNK N   1      33.739  10.805  14.665  0.00  0.00    -0.323 OA
HETATM   31  C   UNK N   1      34.607  12.356  16.356  0.00  0.00     0.041 A 
HETATM   32  C   UNK N   1      35.515  13.415  16.549  0.00  0.00     0.029 A 
HETATM   33  C   UNK N   1      36.305  13.881  15.475  0.00  0.00     0.063 A 
HETATM   34 Cl   UNK N   1      37.399  15.231  15.719  0.00  0.00    -0.082 Cl
ENDBRANCH  23  25
ENDBRANCH   6  23
TORSDOF 5
ENDMDL
MODEL 2
REMARK VINA RESULT:      -8.1      7.688     11.970
REMARK  5 active torsions:
REMARK  status: ('A' for Active; 'I' for Inactive)
REMARK       I    between atoms: C_1  and  N_29 
REMARK    1  A    between atoms: C_6  and  N_7 
REMARK    2  A    between atoms: N_7  and  C_8 
REMARK    3  A    between atoms: N_20  and  S_21 
REMARK    4  A    between atoms: S_21  and  C_24 
REMARK    5  A    between atoms: C_28  and  N_29 
ROOT
HETATM    1  C   UNK N   1      28.066  17.735   5.490  0.00  0.00     0.684 A 
HETATM    2  N   UNK N   1      28.506  19.026   5.543  0.00  0.00    -0.202 N 
ATOM      3  HN  UNK N   1      29.393  19.231   6.003  1.00  0.00     0.183 HD
HETATM    4  C   UNK N   1      27.796  20.036   5.002  0.00  0.00     0.110 A 
HETATM    5  C   UNK N   1      26.613  19.757   4.345  0.00  0.00     0.066 A 
HETATM    6  C   UNK N   1      26.171  18.427   4.277  0.00  0.00     0.122 A 
HETATM    7  N   UNK N   1      26.897  17.442   4.864  0.00  0.00    -0.176 N 
ATOM      8  HN  UNK N   1      26.563  16.479   4.836  1.00  0.00     0.186 HD
HETATM    9  N   UNK N   1      28.913  16.708   5.949  0.00  0.00    -0.192 N 
HETATM   10  H   UNK N   1      28.561  15.927   6.435  0.00  0.00     0.184 HD
ENDROOT
BRANCH   9  11
HETATM   11  C   UNK N   1      30.291  16.853   5.678  0.00  0.00     0.050 A 
HETATM   12  C   UNK N   1      30.699  17.174   4.375  0.00  0.00     0.030 A 
HETATM   13  C   UNK N   1      32.028  17.473   4.101  0.00  0.00     0.004 A 
HETATM   14  C   UNK N   1      32.959  17.492   5.136  0.00  0.00     0.025 A 
HETATM   15  C   UNK N   1      32.584  17.185   6.452  0.00  0.00     0.081 A 
HETATM   16  C   UNK N   1      31.220  16.854   6.713  0.00  0.00     0.055 A 
BRANCH  15  17
HETATM   17  S   UNK N   1      33.905  17.308   7.728  0.00  0.00     0.256 S 
HETATM   18  O   UNK N   1      32.783  18.309   8.046  0.00  0.00    -0.201 OA
HETATM   19  O   UNK N   1      34.613  17.951   6.524  0.00  0.00    -0.201 OA
BRANCH  17  20
HETATM   20  N   UNK N   1      34.676  18.701   8.483  0.00  0.00    -0.324 N 
HETATM   21  H   UNK N   1      35.682  18.701   8.647  0.00  0.00     0.169 HD
HETATM   22  H   UNK N   1      34.114  19.508   8.756  0.00  0.00     0.169 HD
ENDBRANCH  17  20
ENDBRANCH  15  17
ENDBRANCH   9  11
BRANCH   6  23
HETATM   23  N   UNK N   1      24.961  18.116   3.613  0.00  0.00    -0.338 N 
HETATM   24  H   UNK N   1      24.968  17.954   2.641  0.00  0.00     0.167 HD
BRANCH  23  25
HETATM   25  C   UNK N   1      23.743  18.035   4.327  0.00  0.00     0.092 A 
HETATM   26  C   UNK N   1      23.501  17.010   5.252  0.00  0.00     0.133 A 
HETATM   27  O   UNK N   1      24.313  16.028   5.647  0.00  0.00    -0.321 OA
HETATM   28  C   UNK N   1      22.331  16.896   5.891  0.00  0.00     0.107 A 
HETATM   29  C   UNK N   1      23.635  15.245   6.588  0.00  0.00     0.352 A 
HETATM   30  O   UNK N   1      22.375  15.842   6.704  0.00  0.00    -0.323 OA
HETATM   31  C   UNK N   1      21.277  17.780   5.678  0.00  0.00     0.041 A 
HETATM   32  C   UNK N   1      21.476  18.826   4.755  0.00  0.00     0.029 A 
HETATM   33  C   UNK N   1      22.710  18.958   4.082  0.00  0.00     0.063 A 
HETATM   34 Cl   UNK N   1      22.926  20.239   2.901  0.00  0.00    -0.082 Cl
ENDBRANCH  23  25
ENDBRANCH   6  23
TORSDOF 5
ENDMDL
MODEL 3
REMARK VINA RESULT:      -8.1      7.062     10.040
REMARK  5 active torsions:
REMARK  status: ('A' for Active; 'I' for Inactive)
REMARK       I    between atoms: C_1  and  N_29 
REMARK    1  A    between atoms: C_6  and  N_7 
REMARK    2  A    between atoms: N_7  and  C_8 
REMARK    3  A    between atoms: N_20  and  S_21 
REMARK    4  A    between atoms: S_21  and  C_24 
REMARK    5  A    between atoms: C_28  and  N_29 
ROOT
HETATM    1  C   UNK N   1      28.204  18.873   5.236  0.00  0.00     0.684 A 
HETATM    2  N   UNK N   1      27.714  19.639   6.254  0.00  0.00    -0.202 N 
ATOM      3  HN  UNK N   1      27.077  20.406   6.038  1.00  0.00     0.183 HD
HETATM    4  C   UNK N   1      28.052  19.406   7.538  0.00  0.00     0.110 A 
HETATM    5  C   UNK N   1      28.884  18.345   7.838  0.00  0.00     0.066 A 
HETATM    6  C   UNK N   1      29.373  17.548   6.792  0.00  0.00     0.122 A 
HETATM    7  N   UNK N   1      29.038  17.836   5.508  0.00  0.00    -0.176 N 
ATOM      8  HN  UNK N   1      29.413  17.272   4.746  1.00  0.00     0.186 HD
HETATM    9  N   UNK N   1      27.710  19.076   3.933  0.00  0.00    -0.192 N 
HETATM   10  H   UNK N   1      28.296  19.015   3.143  0.00  0.00     0.184 HD
ENDROOT
BRANCH   9  11
HETATM   11  C   UNK N   1      26.334  19.370   3.815  0.00  0.00     0.050 A 
HETATM   12  C   UNK N   1      25.938  20.489   3.069  0.00  0.00     0.030 A 
HETATM   13  C   UNK N   1      24.595  20.726   2.805  0.00  0.00     0.004 A 
HETATM   14  C   UNK N   1      23.633  19.824   3.250  0.00  0.00     0.025 A 
HETATM   15  C   UNK N   1      23.994  18.689   3.991  0.00  0.00     0.081 A 
HETATM   16  C   UNK N   1      25.376  18.473   4.277  0.00  0.00     0.055 A 
BRANCH  15  17
HETATM   17  S   UNK N   1      22.626  17.551   4.463  0.00  0.00     0.256 S 
HETATM   18  O   UNK N   1      23.699  16.775   3.681  0.00  0.00    -0.201 OA
HETATM   19  O   UNK N   1      21.937  18.386   3.371  0.00  0.00    -0.201 OA
BRANCH  17  20
HETATM   20  N   UNK N   1      21.779  16.302   3.555  0.00  0.00    -0.324 N 
HETATM   21  H   UNK N   1      20.892  16.514   3.101  0.00  0.00     0.169 HD
HETATM   22  H   UNK N   1      22.177  15.365   3.485  0.00  0.00     0.169 HD
ENDBRANCH  17  20
ENDBRANCH  15  17
ENDBRANCH   9  11
BRANCH   6  23
HETATM   23  N   UNK N   1      30.229  16.458   7.073  0.00  0.00    -0.338 N 
HETATM   24  H   UNK N   1      29.934  15.757   7.698  0.00  0.00     0.167 HD
BRANCH  23  25
HETATM   25  C   UNK N   1      31.504  16.363   6.466  0.00  0.00     0.092 A 
HETATM   26  C   UNK N   1      32.596  17.109   6.930  0.00  0.00     0.133 A 
HETATM   27  O   UNK N   1      32.661  17.941   7.970  0.00  0.00    -0.321 OA
HETATM   28  C   UNK N   1      33.789  17.064   6.327  0.00  0.00     0.107 A 
HETATM   29  C   UNK N   1      33.960  18.456   8.043  0.00  0.00     0.352 A 
HETATM   30  O   UNK N   1      34.636  17.866   6.970  0.00  0.00    -0.323 OA
HETATM   31  C   UNK N   1      34.026  16.282   5.200  0.00  0.00     0.041 A 
HETATM   32  C   UNK N   1      32.956  15.515   4.699  0.00  0.00     0.029 A 
HETATM   33  C   UNK N   1      31.695  15.550   5.333  0.00  0.00     0.063 A 
HETATM   34 Cl   UNK N   1      30.359  14.625   4.669  0.00  0.00    -0.082 Cl
ENDBRANCH  23  25
ENDBRANCH   6  23
TORSDOF 5
ENDMDL
MODEL 4
REMARK VINA RESULT:      -7.9      8.177     11.754
REMARK  5 active torsions:
REMARK  status: ('A' for Active; 'I' for Inactive)
REMARK       I    between atoms: C_1  and  N_29 
REMARK    1  A    between atoms: C_6  and  N_7 
REMARK    2  A    between atoms: N_7  and  C_8 
REMARK    3  A    between atoms: N_20  and  S_21 
REMARK    4  A    between atoms: S_21  and  C_24 
REMARK    5  A    between atoms: C_28  and  N_29 
ROOT
HETATM    1  C   UNK N   1      25.287  17.310   4.731  0.00  0.00     0.684 A 
HETATM    2  N   UNK N   1      25.242  16.379   3.734  0.00  0.00    -0.202 N 
ATOM      3  HN  UNK N   1      24.351  15.942   3.500  1.00  0.00     0.183 HD
HETATM    4  C   UNK N   1      26.349  16.023   3.051  0.00  0.00     0.110 A 
HETATM    5  C   UNK N   1      27.551  16.641   3.339  0.00  0.00     0.066 A 
HETATM    6  C   UNK N   1      27.592  17.609   4.353  0.00  0.00     0.122 A 
HETATM    7  N   UNK N   1      26.463  17.915   5.042  0.00  0.00    -0.176 N 
ATOM      8  HN  UNK N   1      26.497  18.602   5.795  1.00  0.00     0.186 HD
HETATM    9  N   UNK N   1      24.080  17.741   5.314  0.00  0.00    -0.192 N 
HETATM   10  H   UNK N   1      24.012  17.934   6.278  0.00  0.00     0.184 HD
ENDROOT
BRANCH   9  11
HETATM   11  C   UNK N   1      22.973  17.883   4.450  0.00  0.00     0.050 A 
HETATM   12  C   UNK N   1      22.037  16.842   4.364  0.00  0.00     0.030 A 
HETATM   13  C   UNK N   1      20.861  17.003   3.643  0.00  0.00     0.004 A 
HETATM   14  C   UNK N   1      20.588  18.223   3.031  0.00  0.00     0.025 A 
HETATM   15  C   UNK N   1      21.496  19.289   3.104  0.00  0.00     0.081 A 
HETATM   16  C   UNK N   1      22.713  19.099   3.826  0.00  0.00     0.055 A 
BRANCH  15  17
HETATM   17  S   UNK N   1      20.979  20.862   2.300  0.00  0.00     0.256 S 
HETATM   18  O   UNK N   1      19.950  19.761   1.995  0.00  0.00    -0.201 OA
HETATM   19  O   UNK N   1      22.176  20.472   1.417  0.00  0.00    -0.201 OA
BRANCH  17  20
HETATM   20  N   UNK N   1      20.346  21.199   0.691  0.00  0.00    -0.324 N 
HETATM   21  H   UNK N   1      20.461  20.515  -0.056  0.00  0.00     0.169 HD
HETATM   22  H   UNK N   1      19.864  22.079   0.507  0.00  0.00     0.169 HD
ENDBRANCH  17  20
ENDBRANCH  15  17
ENDBRANCH   9  11
BRANCH   6  23
HETATM   23  N   UNK N   1      28.811  18.253   4.669  0.00  0.00    -0.338 N 
HETATM   24  H   UNK N   1      29.059  19.082   4.198  0.00  0.00     0.167 HD
BRANCH  23  25
HETATM   25  C   UNK N   1      29.677  17.721   5.653  0.00  0.00     0.092 A 
HETATM   26  C   UNK N   1      29.349  17.756   7.015  0.00  0.00     0.133 A 
HETATM   27  O   UNK N   1      28.238  18.207   7.599  0.00  0.00    -0.321 OA
HETATM   28  C   UNK N   1      30.187  17.304   7.955  0.00  0.00     0.107 A 
HETATM   29  C   UNK N   1      28.365  18.035   8.982  0.00  0.00     0.352 A 
HETATM   30  O   UNK N   1      29.628  17.458   9.154  0.00  0.00    -0.323 OA
HETATM   31  C   UNK N   1      31.438  16.775   7.646  0.00  0.00     0.041 A 
HETATM   32  C   UNK N   1      31.809  16.721   6.288  0.00  0.00     0.029 A 
HETATM   33  C   UNK N   1      30.928  17.190   5.289  0.00  0.00     0.063 A 
HETATM   34 Cl   UNK N   1      31.424  17.158   3.606  0.00  0.00    -0.082 Cl
ENDBRANCH  23  25
ENDBRANCH   6  23
TORSDOF 5
ENDMDL
MODEL 5
REMARK VINA RESULT:      -7.9      7.539     12.479
REMARK  5 active torsions:
REMARK  status: ('A' for Active; 'I' for Inactive)
REMARK       I    between atoms: C_1  and  N_29 
REMARK    1  A    between atoms: C_6  and  N_7 
REMARK    2  A    between atoms: N_7  and  C_8 
REMARK    3  A    between atoms: N_20  and  S_21 
REMARK    4  A    between atoms: S_21  and  C_24 
REMARK    5  A    between atoms: C_28  and  N_29 
ROOT
HETATM    1  C   UNK N   1      27.957  17.623   5.545  0.00  0.00     0.684 A 
HETATM    2  N   UNK N   1      28.337  18.910   5.296  0.00  0.00    -0.202 N 
ATOM      3  HN  UNK N   1      29.222  19.250   5.674  1.00  0.00     0.183 HD
HETATM    4  C   UNK N   1      27.572  19.742   4.562  0.00  0.00     0.110 A 
HETATM    5  C   UNK N   1      26.392  19.274   4.017  0.00  0.00     0.066 A 
HETATM    6  C   UNK N   1      26.011  17.946   4.260  0.00  0.00     0.122 A 
HETATM    7  N   UNK N   1      26.792  17.149   5.033  0.00  0.00    -0.176 N 
ATOM      8  HN  UNK N   1      26.503  16.191   5.230  1.00  0.00     0.186 HD
HETATM    9  N   UNK N   1      28.859  16.761   6.199  0.00  0.00    -0.192 N 
HETATM   10  H   UNK N   1      28.552  16.095   6.857  0.00  0.00     0.184 HD
ENDROOT
BRANCH   9  11
HETATM   11  C   UNK N   1      30.223  16.898   5.865  0.00  0.00     0.050 A 
HETATM   12  C   UNK N   1      30.573  17.216   4.544  0.00  0.00     0.030 A 
HETATM   13  C   UNK N   1      31.889  17.507   4.210  0.00  0.00     0.004 A 
HETATM   14  C   UNK N   1      32.867  17.522   5.200  0.00  0.00     0.025 A 
HETATM   15  C   UNK N   1      32.552  17.218   6.533  0.00  0.00     0.081 A 
HETATM   16  C   UNK N   1      31.199  16.895   6.857  0.00  0.00     0.055 A 
BRANCH  15  17
HETATM   17  S   UNK N   1      33.930  17.334   7.746  0.00  0.00     0.256 S 
HETATM   18  O   UNK N   1      32.837  18.354   8.105  0.00  0.00    -0.201 OA
HETATM   19  O   UNK N   1      34.591  17.957   6.505  0.00  0.00    -0.201 OA
BRANCH  17  20
HETATM   20  N   UNK N   1      34.752  18.724   8.452  0.00  0.00    -0.324 N 
HETATM   21  H   UNK N   1      35.269  19.368   7.855  0.00  0.00     0.169 HD
HETATM   22  H   UNK N   1      34.711  18.882   9.459  0.00  0.00     0.169 HD
ENDBRANCH  17  20
ENDBRANCH  15  17
ENDBRANCH   9  11
BRANCH   6  23
HETATM   23  N   UNK N   1      24.806  17.444   3.715  0.00  0.00    -0.338 N 
HETATM   24  H   UNK N   1      24.831  16.914   2.885  0.00  0.00     0.167 HD
BRANCH  23  25
HETATM   25  C   UNK N   1      23.566  17.693   4.349  0.00  0.00     0.092 A 
HETATM   26  C   UNK N   1      22.727  18.737   3.935  0.00  0.00     0.133 A 
HETATM   27  O   UNK N   1      22.888  19.592   2.924  0.00  0.00    -0.321 OA
HETATM   28  C   UNK N   1      21.579  19.012   4.565  0.00  0.00     0.107 A 
HETATM   29  C   UNK N   1      21.790  20.459   2.899  0.00  0.00     0.352 A 
HETATM   30  O   UNK N   1      20.987  20.046   3.968  0.00  0.00    -0.323 OA
HETATM   31  C   UNK N   1      21.143  18.287   5.670  0.00  0.00     0.041 A 
HETATM   32  C   UNK N   1      21.955  17.228   6.121  0.00  0.00     0.029 A 
HETATM   33  C   UNK N   1      23.166  16.927   5.459  0.00  0.00     0.063 A 
HETATM   34 Cl   UNK N   1      24.189  15.634   6.060  0.00  0.00    -0.082 Cl
ENDBRANCH  23  25
ENDBRANCH   6  23
TORSDOF 5
ENDMDL
MODEL 6
REMARK VINA RESULT:      -7.8      7.619     12.135
REMARK  5 active torsions:
REMARK  status: ('A' for Active; 'I' for Inactive)
REMARK       I    between atoms: C_1  and  N_29 
REMARK    1  A    between atoms: C_6  and  N_7 
REMARK    2  A    between atoms: N_7  and  C_8 
REMARK    3  A    between atoms: N_20  and  S_21 
REMARK    4  A    between atoms: S_21  and  C_24 
REMARK    5  A    between atoms: C_28  and  N_29 
ROOT
HETATM    1  C   UNK N   1      28.709  16.929   4.084  0.00  0.00     0.684 A 
HETATM    2  N   UNK N   1      28.674  15.566   4.138  0.00  0.00    -0.202 N 
ATOM      3  HN  UNK N   1      29.464  15.032   3.777  1.00  0.00     0.183 HD
HETATM    4  C   UNK N   1      27.618  14.909   4.659  0.00  0.00     0.110 A 
HETATM    5  C   UNK N   1      26.563  15.629   5.185  0.00  0.00     0.066 A 
HETATM    6  C   UNK N   1      26.609  17.030   5.143  0.00  0.00     0.122 A 
HETATM    7  N   UNK N   1      27.674  17.656   4.579  0.00  0.00    -0.176 N 
ATOM      8  HN  UNK N   1      27.696  18.674   4.527  1.00  0.00     0.186 HD
HETATM    9  N   UNK N   1      29.892  17.563   3.656  0.00  0.00    -0.192 N 
HETATM   10  H   UNK N   1      29.871  18.375   3.099  0.00  0.00     0.184 HD
ENDROOT
BRANCH   9  11
HETATM   11  C   UNK N   1      31.109  16.975   4.065  0.00  0.00     0.050 A 
HETATM   12  C   UNK N   1      31.932  16.373   3.103  0.00  0.00     0.030 A 
HETATM   13  C   UNK N   1      33.201  15.919   3.439  0.00  0.00     0.004 A 
HETATM   14  C   UNK N   1      33.679  16.098   4.735  0.00  0.00     0.025 A 
HETATM   15  C   UNK N   1      32.886  16.705   5.720  0.00  0.00     0.081 A 
HETATM   16  C   UNK N   1      31.574  17.142   5.366  0.00  0.00     0.055 A 
BRANCH  15  17
HETATM   17  S   UNK N   1      33.666  16.931   7.372  0.00  0.00     0.256 S 
HETATM   18  O   UNK N   1      32.279  17.593   7.360  0.00  0.00    -0.201 OA
HETATM   19  O   UNK N   1      34.516  17.892   6.523  0.00  0.00    -0.201 OA
BRANCH  17  20
HETATM   20  N   UNK N   1      33.769  18.333   8.434  0.00  0.00    -0.324 N 
HETATM   21  H   UNK N   1      34.620  18.506   8.969  0.00  0.00     0.169 HD
HETATM   22  H   UNK N   1      32.977  18.971   8.513  0.00  0.00     0.169 HD
ENDBRANCH  17  20
ENDBRANCH  15  17
ENDBRANCH   9  11
BRANCH   6  23
HETATM   23  N   UNK N   1      25.540  17.790   5.672  0.00  0.00    -0.338 N 
HETATM   24  H   UNK N   1      25.472  17.922   6.646  0.00  0.00     0.167 HD
BRANCH  23  25
HETATM   25  C   UNK N   1      24.568  18.364   4.819  0.00  0.00     0.092 A 
HETATM   26  C   UNK N   1      24.893  19.391   3.922  0.00  0.00     0.133 A 
HETATM   27  O   UNK N   1      26.081  19.945   3.676  0.00  0.00    -0.321 OA
HETATM   28  C   UNK N   1      23.968  19.974   3.151  0.00  0.00     0.107 A 
HETATM   29  C   UNK N   1      25.915  20.932   2.699  0.00  0.00     0.352 A 
HETATM   30  O   UNK N   1      24.548  20.910   2.402  0.00  0.00    -0.323 OA
HETATM   31  C   UNK N   1      22.626  19.608   3.191  0.00  0.00     0.041 A 
HETATM   32  C   UNK N   1      22.254  18.580   4.080  0.00  0.00     0.029 A 
HETATM   33  C   UNK N   1      23.224  17.954   4.892  0.00  0.00     0.063 A 
HETATM   34 Cl   UNK N   1      22.737  16.707   6.027  0.00  0.00    -0.082 Cl
ENDBRANCH  23  25
ENDBRANCH   6  23
TORSDOF 5
ENDMDL
MODEL 7
REMARK VINA RESULT:      -7.7      3.570      8.963
REMARK  5 active torsions:
REMARK  status: ('A' for Active; 'I' for Inactive)
REMARK       I    between atoms: C_1  and  N_29 
REMARK    1  A    between atoms: C_6  and  N_7 
REMARK    2  A    between atoms: N_7  and  C_8 
REMARK    3  A    between atoms: N_20  and  S_21 
REMARK    4  A    between atoms: S_21  and  C_24 
REMARK    5  A    between atoms: C_28  and  N_29 
ROOT
HETATM    1  C   UNK N   1      35.045  14.997  10.119  0.00  0.00     0.684 A 
HETATM    2  N   UNK N   1      34.603  13.772   9.710  0.00  0.00    -0.202 N 
ATOM      3  HN  UNK N   1      35.170  12.947   9.903  1.00  0.00     0.183 HD
HETATM    4  C   UNK N   1      33.432  13.627   9.058  0.00  0.00     0.110 A 
HETATM    5  C   UNK N   1      32.641  14.737   8.828  0.00  0.00     0.066 A 
HETATM    6  C   UNK N   1      33.091  15.993   9.264  0.00  0.00     0.122 A 
HETATM    7  N   UNK N   1      34.292  16.103   9.886  0.00  0.00    -0.176 N 
ATOM      8  HN  UNK N   1      34.630  17.019  10.181  1.00  0.00     0.186 HD
HETATM    9  N   UNK N   1      36.205  15.070  10.914  0.00  0.00    -0.192 N 
HETATM   10  H   UNK N   1      36.861  15.798  10.806  0.00  0.00     0.184 HD
ENDROOT
BRANCH   9  11
HETATM   11  C   UNK N   1      36.382  14.050  11.873  0.00  0.00     0.050 A 
HETATM   12  C   UNK N   1      37.193  12.951  11.558  0.00  0.00     0.030 A 
HETATM   13  C   UNK N   1      37.512  12.004  12.523  0.00  0.00     0.004 A 
HETATM   14  C   UNK N   1      37.055  12.167  13.828  0.00  0.00     0.025 A 
HETATM   15  C   UNK N   1      36.249  13.260  14.182  0.00  0.00     0.081 A 
HETATM   16  C   UNK N   1      35.908  14.210  13.172  0.00  0.00     0.055 A 
BRANCH  15  17
HETATM   17  S   UNK N   1      35.768  13.381  15.954  0.00  0.00     0.256 S 
HETATM   18  O   UNK N   1      36.567  12.089  15.722  0.00  0.00    -0.201 OA
HETATM   19  O   UNK N   1      34.407  13.067  15.310  0.00  0.00    -0.201 OA
BRANCH  17  20
HETATM   20  N   UNK N   1      35.123  12.185  17.075  0.00  0.00    -0.324 N 
HETATM   21  H   UNK N   1      34.815  11.276  16.730  0.00  0.00     0.169 HD
HETATM   22  H   UNK N   1      35.059  12.402  18.070  0.00  0.00     0.169 HD
ENDBRANCH  17  20
ENDBRANCH  15  17
ENDBRANCH   9  11
BRANCH   6  23
HETATM   23  N   UNK N   1      32.302  17.145   9.038  0.00  0.00    -0.338 N 
HETATM   24  H   UNK N   1      32.399  17.925   9.632  0.00  0.00     0.167 HD
BRANCH  23  25
HETATM   25  C   UNK N   1      31.376  17.190   7.969  0.00  0.00     0.092 A 
HETATM   26  C   UNK N   1      31.798  17.282   6.635  0.00  0.00     0.133 A 
HETATM   27  O   UNK N   1      33.040  17.291   6.148  0.00  0.00    -0.321 OA
HETATM   28  C   UNK N   1      30.928  17.380   5.624  0.00  0.00     0.107 A 
HETATM   29  C   UNK N   1      32.966  17.397   4.754  0.00  0.00     0.352 A 
HETATM   30  O   UNK N   1      31.597  17.453   4.475  0.00  0.00    -0.323 OA
HETATM   31  C   UNK N   1      29.551  17.403   5.826  0.00  0.00     0.041 A 
HETATM   32  C   UNK N   1      29.081  17.314   7.151  0.00  0.00     0.029 A 
HETATM   33  C   UNK N   1      29.993  17.203   8.224  0.00  0.00     0.063 A 
HETATM   34 Cl   UNK N   1      29.394  17.140   9.873  0.00  0.00    -0.082 Cl
ENDBRANCH  23  25
ENDBRANCH   6  23
TORSDOF 5
ENDMDL
MODEL 8
REMARK VINA RESULT:      -7.7      2.023      2.572
REMARK  5 active torsions:
REMARK  status: ('A' for Active; 'I' for Inactive)
REMARK       I    between atoms: C_1  and  N_29 
REMARK    1  A    between atoms: C_6  and  N_7 
REMARK    2  A    between atoms: N_7  and  C_8 
REMARK    3  A    between atoms: N_20  and  S_21 
REMARK    4  A    between atoms: S_21  and  C_24 
REMARK    5  A    between atoms: C_28  and  N_29 
ROOT
HETATM    1  C   UNK N   1      34.698  14.135  10.863  0.00  0.00     0.684 A 
HETATM    2  N   UNK N   1      35.211  13.636   9.701  0.00  0.00    -0.202 N 
ATOM      3  HN  UNK N   1      34.726  13.821   8.823  1.00  0.00     0.183 HD
HETATM    4  C   UNK N   1      36.343  12.905   9.686  0.00  0.00     0.110 A 
HETATM    5  C   UNK N   1      37.024  12.685  10.869  0.00  0.00     0.066 A 
HETATM    6  C   UNK N   1      36.504  13.212  12.060  0.00  0.00     0.122 A 
HETATM    7  N   UNK N   1      35.342  13.914  12.039  0.00  0.00    -0.176 N 
ATOM      8  HN  UNK N   1      34.952  14.277  12.908  1.00  0.00     0.186 HD
HETATM    9  N   UNK N   1      33.592  15.004  10.802  0.00  0.00    -0.192 N 
HETATM   10  H   UNK N   1      32.874  14.976  11.476  0.00  0.00     0.184 HD
ENDROOT
BRANCH   9  11
HETATM   11  C   UNK N   1      33.563  15.918   9.726  0.00  0.00     0.050 A 
HETATM   12  C   UNK N   1      34.567  16.893   9.633  0.00  0.00     0.030 A 
HETATM   13  C   UNK N   1      34.659  17.711   8.514  0.00  0.00     0.004 A 
HETATM   14  C   UNK N   1      33.772  17.537   7.456  0.00  0.00     0.025 A 
HETATM   15  C   UNK N   1      32.762  16.566   7.511  0.00  0.00     0.081 A 
HETATM   16  C   UNK N   1      32.663  15.751   8.679  0.00  0.00     0.055 A 
BRANCH  15  17
HETATM   17  S   UNK N   1      31.699  16.406   6.017  0.00  0.00     0.256 S 
HETATM   18  O   UNK N   1      32.599  15.167   6.146  0.00  0.00    -0.201 OA
HETATM   19  O   UNK N   1      32.677  17.499   5.554  0.00  0.00    -0.201 OA
BRANCH  17  20
HETATM   20  N   UNK N   1      32.060  15.874   4.376  0.00  0.00    -0.324 N 
HETATM   21  H   UNK N   1      31.302  15.627   3.741  0.00  0.00     0.169 HD
HETATM   22  H   UNK N   1      33.029  15.814   4.062  0.00  0.00     0.169 HD
ENDBRANCH  17  20
ENDBRANCH  15  17
ENDBRANCH   9  11
BRANCH   6  23
HETATM   23  N   UNK N   1      37.180  12.998  13.284  0.00  0.00    -0.338 N 
HETATM   24  H   UNK N   1      38.152  12.835  13.280  0.00  0.00     0.167 HD
BRANCH  23  25
HETATM   25  C   UNK N   1      36.478  13.016  14.512  0.00  0.00     0.092 A 
HETATM   26  C   UNK N   1      36.683  14.028  15.459  0.00  0.00     0.133 A 
HETATM   27  O   UNK N   1      37.467  15.105  15.381  0.00  0.00    -0.321 OA
HETATM   28  C   UNK N   1      36.063  14.022  16.645  0.00  0.00     0.107 A 
HETATM   29  C   UNK N   1      37.345  15.828  16.573  0.00  0.00     0.352 A 
HETATM   30  O   UNK N   1      36.439  15.092  17.343  0.00  0.00    -0.323 OA
HETATM   31  C   UNK N   1      35.181  13.012  17.018  0.00  0.00     0.041 A 
HETATM   32  C   UNK N   1      34.945  11.974  16.096  0.00  0.00     0.029 A 
HETATM   33  C   UNK N   1      35.590  11.976  14.840  0.00  0.00     0.063 A 
HETATM   34 Cl   UNK N   1      35.322  10.651  13.720  0.00  0.00    -0.082 Cl
ENDBRANCH  23  25
ENDBRANCH   6  23
TORSDOF 5
ENDMDL
MODEL 9
REMARK VINA RESULT:      -7.5      2.126      3.100
REMARK  5 active torsions:
REMARK  status: ('A' for Active; 'I' for Inactive)
REMARK       I    between atoms: C_1  and  N_29 
REMARK    1  A    between atoms: C_6  and  N_7 
REMARK    2  A    between atoms: N_7  and  C_8 
REMARK    3  A    between atoms: N_20  and  S_21 
REMARK    4  A    between atoms: S_21  and  C_24 
REMARK    5  A    between atoms: C_28  and  N_29 
ROOT
HETATM    1  C   UNK N   1      32.867  15.988   9.190  0.00  0.00     0.684 A 
HETATM    2  N   UNK N   1      32.571  14.831   8.529  0.00  0.00    -0.202 N 
ATOM      3  HN  UNK N   1      31.874  14.846   7.785  1.00  0.00     0.183 HD
HETATM    4  C   UNK N   1      33.180  13.668   8.837  0.00  0.00     0.110 A 
HETATM    5  C   UNK N   1      34.153  13.651   9.818  0.00  0.00     0.066 A 
HETATM    6  C   UNK N   1      34.467  14.845  10.484  0.00  0.00     0.122 A 
HETATM    7  N   UNK N   1      33.807  15.989  10.170  0.00  0.00    -0.176 N 
ATOM      8  HN  UNK N   1      34.018  16.851  10.671  1.00  0.00     0.186 HD
HETATM    9  N   UNK N   1      32.301  17.195   8.735  0.00  0.00    -0.192 N 
HETATM   10  H   UNK N   1      32.005  17.895   9.361  0.00  0.00     0.184 HD
ENDROOT
BRANCH   9  11
HETATM   11  C   UNK N   1      32.179  17.350   7.337  0.00  0.00     0.050 A 
HETATM   12  C   UNK N   1      33.337  17.540   6.569  0.00  0.00     0.030 A 
HETATM   13  C   UNK N   1      33.274  17.547   5.181  0.00  0.00     0.004 A 
HETATM   14  C   UNK N   1      32.057  17.324   4.543  0.00  0.00     0.025 A 
HETATM   15  C   UNK N   1      30.881  17.122   5.280  0.00  0.00     0.081 A 
HETATM   16  C   UNK N   1      30.957  17.144   6.705  0.00  0.00     0.055 A 
BRANCH  15  17
HETATM   17  S   UNK N   1      29.356  16.780   4.307  0.00  0.00     0.256 S 
HETATM   18  O   UNK N   1      29.329  18.229   4.819  0.00  0.00    -0.201 OA
HETATM   19  O   UNK N   1      29.073  15.959   5.577  0.00  0.00    -0.201 OA
BRANCH  17  20
HETATM   20  N   UNK N   1      27.665  17.176   4.606  0.00  0.00    -0.324 N 
HETATM   21  H   UNK N   1      26.945  16.465   4.483  0.00  0.00     0.169 HD
HETATM   22  H   UNK N   1      27.408  18.117   4.902  0.00  0.00     0.169 HD
ENDBRANCH  17  20
ENDBRANCH  15  17
ENDBRANCH   9  11
BRANCH   6  23
HETATM   23  N   UNK N   1      35.457  14.853  11.494  0.00  0.00    -0.338 N 
HETATM   24  H   UNK N   1      35.695  15.701  11.935  0.00  0.00     0.167 HD
BRANCH  23  25
HETATM   25  C   UNK N   1      36.108  13.658  11.880  0.00  0.00     0.092 A 
HETATM   26  C   UNK N   1      35.653  12.890  12.960  0.00  0.00     0.133 A 
HETATM   27  O   UNK N   1      34.586  13.084  13.737  0.00  0.00    -0.321 OA
HETATM   28  C   UNK N   1      36.296  11.788  13.364  0.00  0.00     0.107 A 
HETATM   29  C   UNK N   1      34.537  12.056  14.685  0.00  0.00     0.352 A 
HETATM   30  O   UNK N   1      35.652  11.260  14.404  0.00  0.00    -0.323 OA
HETATM   31  C   UNK N   1      37.457  11.334  12.745  0.00  0.00     0.041 A 
HETATM   32  C   UNK N   1      37.951  12.076  11.654  0.00  0.00     0.029 A 
HETATM   33  C   UNK N   1      37.275  13.236  11.217  0.00  0.00     0.063 A 
HETATM   34 Cl   UNK N   1      37.928  14.175   9.885  0.00  0.00    -0.082 Cl
ENDBRANCH  23  25
ENDBRANCH   6  23
TORSDOF 5
ENDMDL
