MODEL 1
REMARK VINA RESULT:      -8.0      0.000      0.000
REMARK  4 active torsions:
REMARK  status: ('A' for Active; 'I' for Inactive)
REMARK       I    between atoms: N_1  and  C_2 
REMARK    1  A    between atoms: N_1  and  C_29 
REMARK    2  A    between atoms: C_7  and  N_8 
REMARK    3  A    between atoms: N_8  and  C_9 
REMARK    4  A    between atoms: S_22  and  C_25 
ROOT
HETATM    1  N   UNK N   1      31.415  17.053   2.807  0.00  0.00    -0.192 N 
HETATM    2  C   UNK N   1      30.101  16.562   2.930  0.00  0.00     0.684 A 
HETATM    3  N   UNK N   1      29.877  15.222   2.872  0.00  0.00    -0.202 N 
ATOM      4  HN  UNK N   1      30.652  14.590   2.674  1.00  0.00     0.183 HD
HETATM    5  C   UNK N   1      28.636  14.717   3.076  0.00  0.00     0.110 A 
HETATM    6  C   UNK N   1      27.594  15.576   3.376  0.00  0.00     0.066 A 
HETATM    7  C   UNK N   1      27.845  16.950   3.464  0.00  0.00     0.122 A 
HETATM    8  N   UNK N   1      29.096  17.420   3.222  0.00  0.00    -0.176 N 
ATOM      9  HN  UNK N   1      29.278  18.423   3.258  1.00  0.00     0.186 HD
HETATM   10  H   UNK N   1      31.609  17.791   2.187  0.00  0.00     0.184 HD
ENDROOT
BRANCH   1  11
HETATM   11  C   UNK N   1      32.451  16.485   3.578  0.00  0.00     0.050 A 
HETATM   12  C   UNK N   1      33.329  15.538   3.024  0.00  0.00     0.030 A 
HETATM   13  C   UNK N   1      34.318  14.948   3.810  0.00  0.00     0.004 A 
HETATM   14  C   UNK N   1      34.445  15.308   5.154  0.00  0.00     0.023 A 
HETATM   15  C   UNK N   1      33.574  16.257   5.708  0.00  0.00     0.061 A 
HETATM   16  C   UNK N   1      32.569  16.827   4.915  0.00  0.00     0.053 A 
BRANCH  15  17
HETATM   17  S   UNK N   1      33.745  16.772   7.418  0.00  0.00     0.172 S 
HETATM   18  C   UNK N   1      34.742  17.585   8.693  0.00  0.00     0.167 C 
HETATM   19  O   UNK N   1      34.392  17.953   6.678  0.00  0.00    -0.223 OA
HETATM   20  O   UNK N   1      32.444  17.572   7.582  0.00  0.00    -0.223 OA
ENDBRANCH  15  17
ENDBRANCH   1  11
BRANCH   7  21
HETATM   21  N   UNK N   1      26.802  17.868   3.735  0.00  0.00    -0.338 N 
HETATM   22  H   UNK N   1      25.936  17.770   3.278  0.00  0.00     0.167 HD
BRANCH  21  23
HETATM   23  C   UNK N   1      26.993  18.923   4.657  0.00  0.00     0.092 A 
HETATM   24  C   UNK N   1      27.550  18.707   5.922  0.00  0.00     0.133 A 
HETATM   25  O   UNK N   1      28.049  17.584   6.440  0.00  0.00    -0.321 OA
HETATM   26  C   UNK N   1      27.634  19.683   6.831  0.00  0.00     0.107 A 
HETATM   27  C   UNK N   1      28.471  17.847   7.747  0.00  0.00     0.352 A 
HETATM   28  O   UNK N   1      28.180  19.201   7.945  0.00  0.00    -0.323 OA
HETATM   29  C   UNK N   1      27.180  20.975   6.577  0.00  0.00     0.041 A 
HETATM   30  C   UNK N   1      26.629  21.241   5.308  0.00  0.00     0.029 A 
HETATM   31  C   UNK N   1      26.539  20.215   4.343  0.00  0.00     0.063 A 
HETATM   32 Cl   UNK N   1      25.800  20.545   2.784  0.00  0.00    -0.082 Cl
ENDBRANCH  21  23
ENDBRANCH   7  21
TORSDOF 4
ENDMDL
MODEL 2
REMARK VINA RESULT:      -8.0      7.496     10.807
REMARK  4 active torsions:
REMARK  status: ('A' for Active; 'I' for Inactive)
REMARK       I    between atoms: N_1  and  C_2 
REMARK    1  A    between atoms: N_1  and  C_29 
REMARK    2  A    between atoms: C_7  and  N_8 
REMARK    3  A    between atoms: N_8  and  C_9 
REMARK    4  A    between atoms: S_22  and  C_25 
ROOT
HETATM    1  N   UNK N   1      33.462  15.004  10.470  0.00  0.00    -0.192 N 
HETATM    2  C   UNK N   1      34.661  14.290  10.661  0.00  0.00     0.684 A 
HETATM    3  N   UNK N   1      35.283  13.724   9.593  0.00  0.00    -0.202 N 
ATOM      4  HN  UNK N   1      34.842  13.763   8.675  1.00  0.00     0.183 HD
HETATM    5  C   UNK N   1      36.482  13.108   9.735  0.00  0.00     0.110 A 
HETATM    6  C   UNK N   1      37.090  13.087  10.977  0.00  0.00     0.066 A 
HETATM    7  C   UNK N   1      36.454  13.703  12.061  0.00  0.00     0.122 A 
HETATM    8  N   UNK N   1      35.239  14.280  11.885  0.00  0.00    -0.176 N 
ATOM      9  HN  UNK N   1      34.759  14.707  12.677  1.00  0.00     0.186 HD
HETATM   10  H   UNK N   1      32.684  14.825  11.045  0.00  0.00     0.184 HD
ENDROOT
BRANCH   1  11
HETATM   11  C   UNK N   1      33.379  15.977   9.451  0.00  0.00     0.050 A 
HETATM   12  C   UNK N   1      34.371  16.962   9.310  0.00  0.00     0.030 A 
HETATM   13  C   UNK N   1      34.253  17.947   8.329  0.00  0.00     0.004 A 
HETATM   14  C   UNK N   1      33.147  17.948   7.475  0.00  0.00     0.023 A 
HETATM   15  C   UNK N   1      32.160  16.962   7.610  0.00  0.00     0.061 A 
HETATM   16  C   UNK N   1      32.277  15.991   8.613  0.00  0.00     0.053 A 
BRANCH  15  17
HETATM   17  S   UNK N   1      30.754  16.913   6.496  0.00  0.00     0.172 S 
HETATM   18  C   UNK N   1      29.922  17.578   5.031  0.00  0.00     0.167 C 
HETATM   19  O   UNK N   1      31.906  17.204   5.521  0.00  0.00    -0.223 OA
HETATM   20  O   UNK N   1      30.782  15.428   6.104  0.00  0.00    -0.223 OA
ENDBRANCH  15  17
ENDBRANCH   1  11
BRANCH   7  21
HETATM   21  N   UNK N   1      37.025  13.674  13.356  0.00  0.00    -0.338 N 
HETATM   22  H   UNK N   1      37.958  13.960  13.483  0.00  0.00     0.167 HD
BRANCH  21  23
HETATM   23  C   UNK N   1      36.267  13.240  14.467  0.00  0.00     0.092 A 
HETATM   24  C   UNK N   1      35.348  12.189  14.371  0.00  0.00     0.133 A 
HETATM   25  O   UNK N   1      35.084  11.397  13.331  0.00  0.00    -0.321 OA
HETATM   26  C   UNK N   1      34.557  11.848  15.392  0.00  0.00     0.107 A 
HETATM   27  C   UNK N   1      34.072  10.506  13.698  0.00  0.00     0.352 A 
HETATM   28  O   UNK N   1      33.771  10.839  15.023  0.00  0.00    -0.323 OA
HETATM   29  C   UNK N   1      34.600  12.510  16.618  0.00  0.00     0.041 A 
HETATM   30  C   UNK N   1      35.525  13.562  16.765  0.00  0.00     0.029 A 
HETATM   31  C   UNK N   1      36.364  13.926  15.690  0.00  0.00     0.063 A 
HETATM   32 Cl   UNK N   1      37.474  15.276  15.868  0.00  0.00    -0.082 Cl
ENDBRANCH  21  23
ENDBRANCH   7  21
TORSDOF 4
ENDMDL
MODEL 3
REMARK VINA RESULT:      -7.7      3.144      4.127
REMARK  4 active torsions:
REMARK  status: ('A' for Active; 'I' for Inactive)
REMARK       I    between atoms: N_1  and  C_2 
REMARK    1  A    between atoms: N_1  and  C_29 
REMARK    2  A    between atoms: C_7  and  N_8 
REMARK    3  A    between atoms: N_8  and  C_9 
REMARK    4  A    between atoms: S_22  and  C_25 
ROOT
HETATM    1  N   UNK N   1      28.999  16.903   6.123  0.00  0.00    -0.192 N 
HETATM    2  C   UNK N   1      28.062  17.921   5.863  0.00  0.00     0.684 A 
HETATM    3  N   UNK N   1      28.269  19.169   6.361  0.00  0.00    -0.202 N 
ATOM      4  HN  UNK N   1      29.066  19.340   6.974  1.00  0.00     0.183 HD
HETATM    5  C   UNK N   1      27.430  20.187   6.052  0.00  0.00     0.110 A 
HETATM    6  C   UNK N   1      26.369  19.956   5.196  0.00  0.00     0.066 A 
HETATM    7  C   UNK N   1      26.186  18.674   4.664  0.00  0.00     0.122 A 
HETATM    8  N   UNK N   1      27.029  17.673   5.024  0.00  0.00    -0.176 N 
ATOM      9  HN  UNK N   1      26.884  16.731   4.661  1.00  0.00     0.186 HD
HETATM   10  H   UNK N   1      28.697  16.025   6.448  0.00  0.00     0.184 HD
ENDROOT
BRANCH   1  11
HETATM   11  C   UNK N   1      30.374  17.146   5.916  0.00  0.00     0.050 A 
HETATM   12  C   UNK N   1      30.891  17.313   4.620  0.00  0.00     0.030 A 
HETATM   13  C   UNK N   1      32.259  17.504   4.425  0.00  0.00     0.004 A 
HETATM   14  C   UNK N   1      33.119  17.540   5.526  0.00  0.00     0.023 A 
HETATM   15  C   UNK N   1      32.604  17.380   6.820  0.00  0.00     0.061 A 
HETATM   16  C   UNK N   1      31.231  17.166   7.003  0.00  0.00     0.053 A 
BRANCH  15  17
HETATM   17  S   UNK N   1      33.680  17.470   8.253  0.00  0.00     0.172 S 
HETATM   18  C   UNK N   1      34.799  16.621   9.398  0.00  0.00     0.167 C 
HETATM   19  O   UNK N   1      34.450  16.489   7.354  0.00  0.00    -0.223 OA
HETATM   20  O   UNK N   1      34.606  18.615   7.815  0.00  0.00    -0.223 OA
ENDBRANCH  15  17
ENDBRANCH   1  11
BRANCH   7  21
HETATM   21  N   UNK N   1      25.094  18.386   3.812  0.00  0.00    -0.338 N 
HETATM   22  H   UNK N   1      25.242  18.299   2.843  0.00  0.00     0.167 HD
BRANCH  21  23
HETATM   23  C   UNK N   1      23.793  18.221   4.339  0.00  0.00     0.092 A 
HETATM   24  C   UNK N   1      23.471  17.162   5.196  0.00  0.00     0.133 A 
HETATM   25  O   UNK N   1      24.269  16.227   5.713  0.00  0.00    -0.321 OA
HETATM   26  C   UNK N   1      22.219  16.947   5.611  0.00  0.00     0.107 A 
HETATM   27  C   UNK N   1      23.494  15.365   6.494  0.00  0.00     0.352 A 
HETATM   28  O   UNK N   1      22.193  15.869   6.392  0.00  0.00    -0.323 OA
HETATM   29  C   UNK N   1      21.157  17.762   5.224  0.00  0.00     0.041 A 
HETATM   30  C   UNK N   1      21.440  18.851   4.376  0.00  0.00     0.029 A 
HETATM   31  C   UNK N   1      22.760  19.086   3.936  0.00  0.00     0.063 A 
HETATM   32 Cl   UNK N   1      23.091  20.414   2.836  0.00  0.00    -0.082 Cl
ENDBRANCH  21  23
ENDBRANCH   7  21
TORSDOF 4
ENDMDL
MODEL 4
REMARK VINA RESULT:      -7.7      7.632     11.096
REMARK  4 active torsions:
REMARK  status: ('A' for Active; 'I' for Inactive)
REMARK       I    between atoms: N_1  and  C_2 
REMARK    1  A    between atoms: N_1  and  C_29 
REMARK    2  A    between atoms: C_7  and  N_8 
REMARK    3  A    between atoms: N_8  and  C_9 
REMARK    4  A    between atoms: S_22  and  C_25 
ROOT
HETATM    1  N   UNK N   1      33.611  14.940  10.785  0.00  0.00    -0.192 N 
HETATM    2  C   UNK N   1      34.631  13.978  10.914  0.00  0.00     0.684 A 
HETATM    3  N   UNK N   1      34.958  13.199   9.849  0.00  0.00    -0.202 N 
ATOM      4  HN  UNK N   1      34.416  13.271   8.988  1.00  0.00     0.183 HD
HETATM    5  C   UNK N   1      35.994  12.328   9.918  0.00  0.00     0.110 A 
HETATM    6  C   UNK N   1      36.744  12.258  11.078  0.00  0.00     0.066 A 
HETATM    7  C   UNK N   1      36.417  13.090  12.156  0.00  0.00     0.122 A 
HETATM    8  N   UNK N   1      35.352  13.925  12.058  0.00  0.00    -0.176 N 
ATOM      9  HN  UNK N   1      35.093  14.514  12.850  1.00  0.00     0.186 HD
HETATM   10  H   UNK N   1      32.898  14.997  11.461  0.00  0.00     0.184 HD
ENDROOT
BRANCH   1  11
HETATM   11  C   UNK N   1      33.614  15.823   9.684  0.00  0.00     0.050 A 
HETATM   12  C   UNK N   1      34.568  16.850   9.582  0.00  0.00     0.030 A 
HETATM   13  C   UNK N   1      34.530  17.745   8.514  0.00  0.00     0.004 A 
HETATM   14  C   UNK N   1      33.544  17.615   7.533  0.00  0.00     0.023 A 
HETATM   15  C   UNK N   1      32.596  16.588   7.628  0.00  0.00     0.061 A 
HETATM   16  C   UNK N   1      32.629  15.707   8.718  0.00  0.00     0.053 A 
BRANCH  15  17
HETATM   17  S   UNK N   1      31.348  16.369   6.357  0.00  0.00     0.172 S 
HETATM   18  C   UNK N   1      29.593  16.284   5.916  0.00  0.00     0.167 C 
HETATM   19  O   UNK N   1      30.694  17.439   7.247  0.00  0.00    -0.223 OA
HETATM   20  O   UNK N   1      31.794  17.452   5.363  0.00  0.00    -0.223 OA
ENDBRANCH  15  17
ENDBRANCH   1  11
BRANCH   7  21
HETATM   21  N   UNK N   1      37.137  13.026  13.372  0.00  0.00    -0.338 N 
HETATM   22  H   UNK N   1      38.117  12.934  13.355  0.00  0.00     0.167 HD
BRANCH  21  23
HETATM   23  C   UNK N   1      36.462  13.094  14.612  0.00  0.00     0.092 A 
HETATM   24  C   UNK N   1      36.690  14.133  15.523  0.00  0.00     0.133 A 
HETATM   25  O   UNK N   1      37.454  15.217  15.386  0.00  0.00    -0.321 OA
HETATM   26  C   UNK N   1      36.131  14.142  16.737  0.00  0.00     0.107 A 
HETATM   27  C   UNK N   1      37.388  15.958  16.569  0.00  0.00     0.352 A 
HETATM   28  O   UNK N   1      36.532  15.225  17.398  0.00  0.00    -0.323 OA
HETATM   29  C   UNK N   1      35.283  13.125  17.172  0.00  0.00     0.041 A 
HETATM   30  C   UNK N   1      35.011  12.069  16.280  0.00  0.00     0.029 A 
HETATM   31  C   UNK N   1      35.597  12.054  14.996  0.00  0.00     0.063 A 
HETATM   32 Cl   UNK N   1      35.294  10.705  13.913  0.00  0.00    -0.082 Cl
ENDBRANCH  21  23
ENDBRANCH   7  21
TORSDOF 4
ENDMDL
MODEL 5
REMARK VINA RESULT:      -7.7      3.375      4.898
REMARK  4 active torsions:
REMARK  status: ('A' for Active; 'I' for Inactive)
REMARK       I    between atoms: N_1  and  C_2 
REMARK    1  A    between atoms: N_1  and  C_29 
REMARK    2  A    between atoms: C_7  and  N_8 
REMARK    3  A    between atoms: N_8  and  C_9 
REMARK    4  A    between atoms: S_22  and  C_25 
ROOT
HETATM    1  N   UNK N   1      28.249  17.507   7.440  0.00  0.00    -0.192 N 
HETATM    2  C   UNK N   1      27.580  18.458   6.644  0.00  0.00     0.684 A 
HETATM    3  N   UNK N   1      27.943  19.766   6.713  0.00  0.00    -0.202 N 
ATOM      4  HN  UNK N   1      28.650  20.058   7.388  1.00  0.00     0.183 HD
HETATM    5  C   UNK N   1      27.378  20.687   5.895  0.00  0.00     0.110 A 
HETATM    6  C   UNK N   1      26.443  20.280   4.960  0.00  0.00     0.066 A 
HETATM    7  C   UNK N   1      26.103  18.925   4.878  0.00  0.00     0.122 A 
HETATM    8  N   UNK N   1      26.668  18.039   5.737  0.00  0.00    -0.176 N 
ATOM      9  HN  UNK N   1      26.403  17.055   5.699  1.00  0.00     0.186 HD
HETATM   10  H   UNK N   1      27.735  16.861   7.973  0.00  0.00     0.184 HD
ENDROOT
BRANCH   1  11
HETATM   11  C   UNK N   1      29.660  17.485   7.468  0.00  0.00     0.050 A 
HETATM   12  C   UNK N   1      30.364  17.778   8.649  0.00  0.00     0.030 A 
HETATM   13  C   UNK N   1      31.758  17.800   8.652  0.00  0.00     0.004 A 
HETATM   14  C   UNK N   1      32.460  17.519   7.477  0.00  0.00     0.023 A 
HETATM   15  C   UNK N   1      31.760  17.220   6.300  0.00  0.00     0.061 A 
HETATM   16  C   UNK N   1      30.359  17.223   6.302  0.00  0.00     0.053 A 
BRANCH  15  17
HETATM   17  S   UNK N   1      32.638  16.810   4.789  0.00  0.00     0.172 S 
HETATM   18  C   UNK N   1      32.588  16.557   2.996  0.00  0.00     0.167 C 
HETATM   19  O   UNK N   1      31.665  17.892   4.293  0.00  0.00    -0.223 OA
HETATM   20  O   UNK N   1      33.772  17.843   4.855  0.00  0.00    -0.223 OA
ENDBRANCH  15  17
ENDBRANCH   1  11
BRANCH   7  21
HETATM   21  N   UNK N   1      25.126  18.472   3.959  0.00  0.00    -0.338 N 
HETATM   22  H   UNK N   1      25.388  18.264   3.033  0.00  0.00     0.167 HD
BRANCH  21  23
HETATM   23  C   UNK N   1      23.780  18.312   4.360  0.00  0.00     0.092 A 
HETATM   24  C   UNK N   1      23.372  17.251   5.176  0.00  0.00     0.133 A 
HETATM   25  O   UNK N   1      24.112  16.309   5.762  0.00  0.00    -0.321 OA
HETATM   26  C   UNK N   1      22.085  17.041   5.469  0.00  0.00     0.107 A 
HETATM   27  C   UNK N   1      23.262  15.448   6.461  0.00  0.00     0.352 A 
HETATM   28  O   UNK N   1      21.979  15.960   6.239  0.00  0.00    -0.323 OA
HETATM   29  C   UNK N   1      21.070  17.865   4.988  0.00  0.00     0.041 A 
HETATM   30  C   UNK N   1      21.438  18.957   4.177  0.00  0.00     0.029 A 
HETATM   31  C   UNK N   1      22.795  19.185   3.866  0.00  0.00     0.063 A 
HETATM   32 Cl   UNK N   1      23.237  20.517   2.809  0.00  0.00    -0.082 Cl
ENDBRANCH  21  23
ENDBRANCH   7  21
TORSDOF 4
ENDMDL
MODEL 6
REMARK VINA RESULT:      -7.5      5.055      6.603
REMARK  4 active torsions:
REMARK  status: ('A' for Active; 'I' for Inactive)
REMARK       I    between atoms: N_1  and  C_2 
REMARK    1  A    between atoms: N_1  and  C_29 
REMARK    2  A    between atoms: C_7  and  N_8 
REMARK    3  A    between atoms: N_8  and  C_9 
REMARK    4  A    between atoms: S_22  and  C_25 
ROOT
HETATM    1  N   UNK N   1      33.364  14.945  10.657  0.00  0.00    -0.192 N 
HETATM    2  C   UNK N   1      33.291  15.876   9.603  0.00  0.00     0.684 A 
HETATM    3  N   UNK N   1      34.182  16.901   9.548  0.00  0.00    -0.202 N 
ATOM      4  HN  UNK N   1      34.853  17.025  10.306  1.00  0.00     0.183 HD
HETATM    5  C   UNK N   1      34.191  17.758   8.498  0.00  0.00     0.110 A 
HETATM    6  C   UNK N   1      33.299  17.565   7.458  0.00  0.00     0.066 A 
HETATM    7  C   UNK N   1      32.408  16.487   7.512  0.00  0.00     0.122 A 
HETATM    8  N   UNK N   1      32.410  15.670   8.596  0.00  0.00    -0.176 N 
ATOM      9  HN  UNK N   1      31.745  14.899   8.652  1.00  0.00     0.186 HD
HETATM   10  H   UNK N   1      32.554  14.705  11.160  0.00  0.00     0.184 HD
ENDROOT
BRANCH   1  11
HETATM   11  C   UNK N   1      34.603  14.358  10.989  0.00  0.00     0.050 A 
HETATM   12  C   UNK N   1      35.505  13.957   9.988  0.00  0.00     0.030 A 
HETATM   13  C   UNK N   1      36.705  13.333  10.329  0.00  0.00     0.004 A 
HETATM   14  C   UNK N   1      37.019  13.116  11.673  0.00  0.00     0.023 A 
HETATM   15  C   UNK N   1      36.124  13.521  12.673  0.00  0.00     0.061 A 
HETATM   16  C   UNK N   1      34.910  14.126  12.319  0.00  0.00     0.053 A 
BRANCH  15  17
HETATM   17  S   UNK N   1      36.523  13.296  14.408  0.00  0.00     0.172 S 
HETATM   18  C   UNK N   1      36.102  13.611  16.141  0.00  0.00     0.167 C 
HETATM   19  O   UNK N   1      34.989  13.209  14.434  0.00  0.00    -0.223 OA
HETATM   20  O   UNK N   1      36.622  11.764  14.457  0.00  0.00    -0.223 OA
ENDBRANCH  15  17
ENDBRANCH   1  11
BRANCH   7  21
HETATM   21  N   UNK N   1      31.457  16.273   6.486  0.00  0.00    -0.338 N 
HETATM   22  H   UNK N   1      31.552  15.498   5.887  0.00  0.00     0.167 HD
BRANCH  21  23
HETATM   23  C   UNK N   1      30.372  17.163   6.314  0.00  0.00     0.092 A 
HETATM   24  C   UNK N   1      29.616  17.624   7.397  0.00  0.00     0.133 A 
HETATM   25  O   UNK N   1      29.798  17.411   8.701  0.00  0.00    -0.321 OA
HETATM   26  C   UNK N   1      28.527  18.381   7.226  0.00  0.00     0.107 A 
HETATM   27  C   UNK N   1      28.776  18.056   9.404  0.00  0.00     0.352 A 
HETATM   28  O   UNK N   1      27.992  18.657   8.413  0.00  0.00    -0.323 OA
HETATM   29  C   UNK N   1      28.080  18.763   5.963  0.00  0.00     0.041 A 
HETATM   30  C   UNK N   1      28.823  18.335   4.845  0.00  0.00     0.029 A 
HETATM   31  C   UNK N   1      29.974  17.538   5.019  0.00  0.00     0.063 A 
HETATM   32 Cl   UNK N   1      30.861  16.965   3.615  0.00  0.00    -0.082 Cl
ENDBRANCH  21  23
ENDBRANCH   7  21
TORSDOF 4
ENDMDL
MODEL 7
REMARK VINA RESULT:      -7.5      4.592      8.478
REMARK  4 active torsions:
REMARK  status: ('A' for Active; 'I' for Inactive)
REMARK       I    between atoms: N_1  and  C_2 
REMARK    1  A    between atoms: N_1  and  C_29 
REMARK    2  A    between atoms: C_7  and  N_8 
REMARK    3  A    between atoms: N_8  and  C_9 
REMARK    4  A    between atoms: S_22  and  C_25 
ROOT
HETATM    1  N   UNK N   1      25.312  18.115   4.120  0.00  0.00    -0.192 N 
HETATM    2  C   UNK N   1      26.176  18.654   5.093  0.00  0.00     0.684 A 
HETATM    3  N   UNK N   1      26.128  19.983   5.372  0.00  0.00    -0.202 N 
ATOM      4  HN  UNK N   1      25.515  20.590   4.828  1.00  0.00     0.183 HD
HETATM    5  C   UNK N   1      26.885  20.512   6.365  0.00  0.00     0.110 A 
HETATM    6  C   UNK N   1      27.691  19.679   7.119  0.00  0.00     0.066 A 
HETATM    7  C   UNK N   1      27.706  18.307   6.842  0.00  0.00     0.122 A 
HETATM    8  N   UNK N   1      26.958  17.822   5.819  0.00  0.00    -0.176 N 
ATOM      9  HN  UNK N   1      26.987  16.827   5.595  1.00  0.00     0.186 HD
HETATM   10  H   UNK N   1      25.667  17.527   3.417  0.00  0.00     0.184 HD
ENDROOT
BRANCH   1  11
HETATM   11  C   UNK N   1      23.935  18.422   4.158  0.00  0.00     0.050 A 
HETATM   12  C   UNK N   1      23.387  19.396   3.307  0.00  0.00     0.030 A 
HETATM   13  C   UNK N   1      22.034  19.724   3.388  0.00  0.00     0.004 A 
HETATM   14  C   UNK N   1      21.216  19.073   4.315  0.00  0.00     0.023 A 
HETATM   15  C   UNK N   1      21.759  18.097   5.161  0.00  0.00     0.061 A 
HETATM   16  C   UNK N   1      23.124  17.790   5.086  0.00  0.00     0.053 A 
BRANCH  15  17
HETATM   17  S   UNK N   1      20.720  17.212   6.328  0.00  0.00     0.172 S 
HETATM   18  C   UNK N   1      20.343  15.666   7.193  0.00  0.00     0.167 C 
HETATM   19  O   UNK N   1      22.104  16.619   6.639  0.00  0.00    -0.223 OA
HETATM   20  O   UNK N   1      20.835  18.147   7.541  0.00  0.00    -0.223 OA
ENDBRANCH  15  17
ENDBRANCH   1  11
BRANCH   7  21
HETATM   21  N   UNK N   1      28.542  17.425   7.567  0.00  0.00    -0.338 N 
HETATM   22  H   UNK N   1      28.140  16.736   8.144  0.00  0.00     0.167 HD
BRANCH  21  23
HETATM   23  C   UNK N   1      29.949  17.522   7.469  0.00  0.00     0.092 A 
HETATM   24  C   UNK N   1      30.650  17.025   6.364  0.00  0.00     0.133 A 
HETATM   25  O   UNK N   1      30.173  16.486   5.240  0.00  0.00    -0.321 OA
HETATM   26  C   UNK N   1      31.985  17.023   6.318  0.00  0.00     0.107 A 
HETATM   27  C   UNK N   1      31.253  16.115   4.434  0.00  0.00     0.352 A 
HETATM   28  O   UNK N   1      32.385  16.478   5.171  0.00  0.00    -0.323 OA
HETATM   29  C   UNK N   1      32.765  17.519   7.360  0.00  0.00     0.041 A 
HETATM   30  C   UNK N   1      32.100  18.047   8.485  0.00  0.00     0.029 A 
HETATM   31  C   UNK N   1      30.690  18.053   8.539  0.00  0.00     0.063 A 
HETATM   32 Cl   UNK N   1      29.873  18.662   9.970  0.00  0.00    -0.082 Cl
ENDBRANCH  21  23
ENDBRANCH   7  21
TORSDOF 4
ENDMDL
MODEL 8
REMARK VINA RESULT:      -7.5      3.998      7.969
REMARK  4 active torsions:
REMARK  status: ('A' for Active; 'I' for Inactive)
REMARK       I    between atoms: N_1  and  C_2 
REMARK    1  A    between atoms: N_1  and  C_29 
REMARK    2  A    between atoms: C_7  and  N_8 
REMARK    3  A    between atoms: N_8  and  C_9 
REMARK    4  A    between atoms: S_22  and  C_25 
ROOT
HETATM    1  N   UNK N   1      26.741  18.490   5.149  0.00  0.00    -0.192 N 
HETATM    2  C   UNK N   1      27.725  17.713   4.507  0.00  0.00     0.684 A 
HETATM    3  N   UNK N   1      27.349  16.724   3.653  0.00  0.00    -0.202 N 
ATOM      4  HN  UNK N   1      26.359  16.510   3.536  1.00  0.00     0.183 HD
HETATM    5  C   UNK N   1      28.274  16.021   2.955  0.00  0.00     0.110 A 
HETATM    6  C   UNK N   1      29.613  16.338   3.094  0.00  0.00     0.066 A 
HETATM    7  C   UNK N   1      29.984  17.380   3.952  0.00  0.00     0.122 A 
HETATM    8  N   UNK N   1      29.030  18.039   4.658  0.00  0.00    -0.176 N 
ATOM      9  HN  UNK N   1      29.297  18.781   5.305  1.00  0.00     0.186 HD
HETATM   10  H   UNK N   1      26.788  18.641   6.120  0.00  0.00     0.184 HD
ENDROOT
BRANCH   1  11
HETATM   11  C   UNK N   1      25.688  19.051   4.395  0.00  0.00     0.050 A 
HETATM   12  C   UNK N   1      25.924  20.108   3.499  0.00  0.00     0.030 A 
HETATM   13  C   UNK N   1      24.867  20.685   2.796  0.00  0.00     0.004 A 
HETATM   14  C   UNK N   1      23.567  20.204   2.975  0.00  0.00     0.023 A 
HETATM   15  C   UNK N   1      23.331  19.145   3.863  0.00  0.00     0.061 A 
HETATM   16  C   UNK N   1      24.397  18.587   4.582  0.00  0.00     0.053 A 
BRANCH  15  17
HETATM   17  S   UNK N   1      21.680  18.476   4.076  0.00  0.00     0.172 S 
HETATM   18  C   UNK N   1      20.605  17.230   4.834  0.00  0.00     0.167 C 
HETATM   19  O   UNK N   1      22.267  18.295   5.485  0.00  0.00    -0.223 OA
HETATM   20  O   UNK N   1      20.941  19.743   4.535  0.00  0.00    -0.223 OA
ENDBRANCH  15  17
ENDBRANCH   1  11
BRANCH   7  21
HETATM   21  N   UNK N   1      31.345  17.715   4.150  0.00  0.00    -0.338 N 
HETATM   22  H   UNK N   1      31.727  18.495   3.688  0.00  0.00     0.167 HD
BRANCH  21  23
HETATM   23  C   UNK N   1      32.160  16.938   5.005  0.00  0.00     0.092 A 
HETATM   24  C   UNK N   1      32.009  16.965   6.396  0.00  0.00     0.133 A 
HETATM   25  O   UNK N   1      31.095  17.602   7.130  0.00  0.00    -0.321 OA
HETATM   26  C   UNK N   1      32.846  16.313   7.209  0.00  0.00     0.107 A 
HETATM   27  C   UNK N   1      31.357  17.352   8.480  0.00  0.00     0.352 A 
HETATM   28  O   UNK N   1      32.487  16.527   8.473  0.00  0.00    -0.323 OA
HETATM   29  C   UNK N   1      33.915  15.562   6.727  0.00  0.00     0.041 A 
HETATM   30  C   UNK N   1      34.093  15.492   5.331  0.00  0.00     0.029 A 
HETATM   31  C   UNK N   1      33.212  16.177   4.467  0.00  0.00     0.063 A 
HETATM   32 Cl   UNK N   1      33.477  16.127   2.731  0.00  0.00    -0.082 Cl
ENDBRANCH  21  23
ENDBRANCH   7  21
TORSDOF 4
ENDMDL
MODEL 9
REMARK VINA RESULT:      -7.4      5.011      8.546
REMARK  4 active torsions:
REMARK  status: ('A' for Active; 'I' for Inactive)
REMARK       I    between atoms: N_1  and  C_2 
REMARK    1  A    between atoms: N_1  and  C_29 
REMARK    2  A    between atoms: C_7  and  N_8 
REMARK    3  A    between atoms: N_8  and  C_9 
REMARK    4  A    between atoms: S_22  and  C_25 
ROOT
HETATM    1  N   UNK N   1      24.049  16.696   5.749  0.00  0.00    -0.192 N 
HETATM    2  C   UNK N   1      25.249  16.519   5.033  0.00  0.00     0.684 A 
HETATM    3  N   UNK N   1      25.287  15.646   3.992  0.00  0.00    -0.202 N 
ATOM      4  HN  UNK N   1      24.467  15.078   3.781  1.00  0.00     0.183 HD
HETATM    5  C   UNK N   1      26.402  15.522   3.230  0.00  0.00     0.110 A 
HETATM    6  C   UNK N   1      27.500  16.318   3.502  0.00  0.00     0.066 A 
HETATM    7  C   UNK N   1      27.436  17.236   4.556  0.00  0.00     0.122 A 
HETATM    8  N   UNK N   1      26.313  17.307   5.315  0.00  0.00    -0.176 N 
ATOM      9  HN  UNK N   1      26.271  17.955   6.102  1.00  0.00     0.186 HD
HETATM   10  H   UNK N   1      24.053  16.665   6.732  0.00  0.00     0.184 HD
ENDROOT
BRANCH   1  11
HETATM   11  C   UNK N   1      22.843  16.919   5.052  0.00  0.00     0.050 A 
HETATM   12  C   UNK N   1      21.840  15.936   5.009  0.00  0.00     0.030 A 
HETATM   13  C   UNK N   1      20.673  16.150   4.276  0.00  0.00     0.004 A 
HETATM   14  C   UNK N   1      20.494  17.354   3.589  0.00  0.00     0.023 A 
HETATM   15  C   UNK N   1      21.490  18.339   3.637  0.00  0.00     0.061 A 
HETATM   16  C   UNK N   1      22.669  18.105   4.357  0.00  0.00     0.053 A 
BRANCH  15  17
HETATM   17  S   UNK N   1      21.266  19.912   2.803  0.00  0.00     0.172 S 
HETATM   18  C   UNK N   1      20.751  20.812   1.317  0.00  0.00     0.167 C 
HETATM   19  O   UNK N   1      20.044  19.125   2.303  0.00  0.00    -0.223 OA
HETATM   20  O   UNK N   1      20.391  20.635   3.838  0.00  0.00    -0.223 OA
ENDBRANCH  15  17
ENDBRANCH   1  11
BRANCH   7  21
HETATM   21  N   UNK N   1      28.548  18.045   4.889  0.00  0.00    -0.338 N 
HETATM   22  H   UNK N   1      28.675  18.909   4.435  0.00  0.00     0.167 HD
BRANCH  21  23
HETATM   23  C   UNK N   1      29.477  17.624   5.868  0.00  0.00     0.092 A 
HETATM   24  C   UNK N   1      29.180  17.667   7.236  0.00  0.00     0.133 A 
HETATM   25  O   UNK N   1      28.038  18.001   7.837  0.00  0.00    -0.321 OA
HETATM   26  C   UNK N   1      30.093  17.369   8.165  0.00  0.00     0.107 A 
HETATM   27  C   UNK N   1      28.224  17.918   9.220  0.00  0.00     0.352 A 
HETATM   28  O   UNK N   1      29.554  17.513   9.373  0.00  0.00    -0.323 OA
HETATM   29  C   UNK N   1      31.393  16.991   7.835  0.00  0.00     0.041 A 
HETATM   30  C   UNK N   1      31.729  16.916   6.468  0.00  0.00     0.029 A 
HETATM   31  C   UNK N   1      30.769  17.228   5.482  0.00  0.00     0.063 A 
HETATM   32 Cl   UNK N   1      31.215  17.185   3.784  0.00  0.00    -0.082 Cl
ENDBRANCH  21  23
ENDBRANCH   7  21
TORSDOF 4
ENDMDL
