REMARK  4 active torsions:
REMARK  status: ('A' for Active; 'I' for Inactive)
REMARK       I    between atoms: N_1  and  C_2 
REMARK    1  A    between atoms: N_1  and  C_29 
REMARK    2  A    between atoms: C_7  and  N_8 
REMARK    3  A    between atoms: N_8  and  C_9 
REMARK    4  A    between atoms: S_22  and  C_25 
ROOT
HETATM    1  N   UNK N   1       6.450   1.102  -0.032  0.00  0.00    -0.192 N 
HETATM    2  C   UNK N   1       6.505   2.455  -0.419  0.00  0.00     0.684 A 
HETATM    3  N   UNK N   1       5.690   2.904  -1.410  0.00  0.00    -0.202 N 
ATOM      4  HN  UNK N   1       5.095   2.244  -1.910  1.00  0.00     0.183 HD
HETATM    5  C   UNK N   1       5.659   4.218  -1.741  0.00  0.00     0.110 A 
HETATM    6  C   UNK N   1       6.445   5.113  -1.038  0.00  0.00     0.066 A 
HETATM    7  C   UNK N   1       7.255   4.642   0.002  0.00  0.00     0.122 A 
HETATM    8  N   UNK N   1       7.282   3.314   0.281  0.00  0.00    -0.176 N 
ATOM      9  HN  UNK N   1       7.891   2.962   1.020  1.00  0.00     0.186 HD
HETATM   10  H   UNK N   1       7.279   0.580   0.055  0.00  0.00     0.184 HD
ENDROOT
BRANCH   1  11
HETATM   11  C   UNK N   1       5.202   0.498   0.231  0.00  0.00     0.050 A 
HETATM   12  C   UNK N   1       4.063   1.277   0.497  0.00  0.00     0.030 A 
HETATM   13  C   UNK N   1       2.847   0.667   0.803  0.00  0.00     0.004 A 
HETATM   14  C   UNK N   1       2.757  -0.727   0.835  0.00  0.00     0.023 A 
HETATM   15  C   UNK N   1       3.890  -1.506   0.563  0.00  0.00     0.061 A 
HETATM   16  C   UNK N   1       5.113  -0.883   0.279  0.00  0.00     0.053 A 
BRANCH  15  17
HETATM   17  S   UNK N   1       3.791  -3.298   0.551  0.00  0.00     0.172 S 
HETATM   18  C   UNK N   1       3.097  -4.800  -0.186  0.00  0.00     0.167 C 
HETATM   19  O   UNK N   1       3.741  -2.979  -0.952  0.00  0.00    -0.223 OA
HETATM   20  O   UNK N   1       5.284  -3.642   0.440  0.00  0.00    -0.223 OA
ENDBRANCH  15  17
ENDBRANCH   1  11
BRANCH   7  21
HETATM   21  N   UNK N   1       8.100   5.518   0.724  0.00  0.00    -0.338 N 
HETATM   22  H   UNK N   1       8.643   5.169   1.467  0.00  0.00     0.167 HD
BRANCH  21  23
HETATM   23  C   UNK N   1       8.172   6.889   0.387  0.00  0.00     0.092 A 
HETATM   24  C   UNK N   1       7.034   7.703   0.353  0.00  0.00     0.133 A 
HETATM   25  O   UNK N   1       5.777   7.404   0.684  0.00  0.00    -0.321 OA
HETATM   26  C   UNK N   1       7.086   8.971  -0.066  0.00  0.00     0.107 A 
HETATM   27  C   UNK N   1       4.980   8.531   0.464  0.00  0.00     0.352 A 
HETATM   28  O   UNK N   1       5.866   9.501  -0.017  0.00  0.00    -0.323 OA
HETATM   29  C   UNK N   1       8.273   9.565  -0.489  0.00  0.00     0.041 A 
HETATM   30  C   UNK N   1       9.447   8.787  -0.453  0.00  0.00     0.029 A 
HETATM   31  C   UNK N   1       9.399   7.448  -0.010  0.00  0.00     0.063 A 
HETATM   32 Cl   UNK N   1      10.859   6.471  -0.022  0.00  0.00    -0.082 Cl
ENDBRANCH  21  23
ENDBRANCH   7  21
TORSDOF 4
