MODEL 1
REMARK VINA RESULT:      -8.0      0.000      0.000
REMARK  5 active torsions:
REMARK  status: ('A' for Active; 'I' for Inactive)
REMARK       I    between atoms: N_1  and  C_2 
REMARK    1  A    between atoms: N_1  and  C_30 
REMARK    2  A    between atoms: C_7  and  N_8 
REMARK    3  A    between atoms: N_8  and  C_9 
REMARK    4  A    between atoms: S_22  and  N_25 
REMARK    5  A    between atoms: N_25  and  C_26 
ROOT
HETATM    1  N   UNK N   1      33.330  14.887  10.223  0.00  0.00    -0.192 N 
HETATM    2  C   UNK N   1      33.196  15.653   9.071  0.00  0.00     0.684 A 
HETATM    3  N   UNK N   1      34.216  16.463   8.661  0.00  0.00    -0.202 N 
ATOM      4  HN  UNK N   1      35.036  16.578   9.258  1.00  0.00     0.183 HD
HETATM    5  C   UNK N   1      34.161  17.109   7.486  0.00  0.00     0.110 A 
HETATM    6  C   UNK N   1      33.056  16.943   6.684  0.00  0.00     0.066 A 
HETATM    7  C   UNK N   1      32.018  16.089   7.091  0.00  0.00     0.122 A 
HETATM    8  N   UNK N   1      32.109  15.474   8.283  0.00  0.00    -0.176 N 
ATOM      9  HN  UNK N   1      31.352  14.866   8.596  1.00  0.00     0.186 HD
HETATM   10  H   UNK N   1      32.538  14.723  10.783  0.00  0.00     0.184 HD
ENDROOT
BRANCH   1  11
HETATM   11  C   UNK N   1      34.568  14.339  10.610  0.00  0.00     0.051 A 
HETATM   12  C   UNK N   1      35.266  13.399   9.828  0.00  0.00     0.030 A 
HETATM   13  C   UNK N   1      36.432  12.807  10.318  0.00  0.00     0.005 A 
HETATM   14  C   UNK N   1      36.896  13.146  11.595  0.00  0.00     0.030 A 
HETATM   15  C   UNK N   1      36.182  14.071  12.367  0.00  0.00     0.044 A 
HETATM   16  C   UNK N   1      35.024  14.646  11.861  0.00  0.00     0.060 A 
BRANCH  15  17
HETATM   17  N   UNK N   1      36.650  14.474  13.641  0.00  0.00    -0.285 N 
HETATM   18  H   UNK N   1      36.952  15.403  13.769  0.00  0.00     0.178 HD
BRANCH  17  19
HETATM   19  S   UNK N   1      36.709  13.353  15.011  0.00  0.00     0.227 S 
HETATM   20  C   UNK N   1      35.647  13.063  16.448  0.00  0.00     0.186 C 
HETATM   21  O   UNK N   1      37.029  14.607  15.833  0.00  0.00    -0.206 OA
HETATM   22  O   UNK N   1      35.199  13.613  14.875  0.00  0.00    -0.206 OA
ENDBRANCH  17  19
ENDBRANCH  15  17
ENDBRANCH   1  11
BRANCH   7  23
HETATM   23  N   UNK N   1      30.829  15.972   6.327  0.00  0.00    -0.338 N 
HETATM   24  H   UNK N   1      30.606  15.120   5.887  0.00  0.00     0.167 HD
BRANCH  23  25
HETATM   25  C   UNK N   1      29.969  17.084   6.203  0.00  0.00     0.092 A 
HETATM   26  C   UNK N   1      29.375  17.693   7.320  0.00  0.00     0.133 A 
HETATM   27  O   UNK N   1      29.607  17.476   8.617  0.00  0.00    -0.321 OA
HETATM   28  C   UNK N   1      28.403  18.594   7.196  0.00  0.00     0.107 A 
HETATM   29  C   UNK N   1      28.719  18.250   9.365  0.00  0.00     0.352 A 
HETATM   30  O   UNK N   1      27.976  18.948   8.408  0.00  0.00    -0.323 OA
HETATM   31  C   UNK N   1      27.937  19.020   5.956  0.00  0.00     0.041 A 
HETATM   32  C   UNK N   1      28.543  18.477   4.804  0.00  0.00     0.029 A 
HETATM   33  C   UNK N   1      29.559  17.507   4.926  0.00  0.00     0.063 A 
HETATM   34 Cl   UNK N   1      30.243  16.777   3.479  0.00  0.00    -0.082 Cl
ENDBRANCH  23  25
ENDBRANCH   7  23
TORSDOF 5
ENDMDL
MODEL 2
REMARK VINA RESULT:      -7.9      6.237     11.266
REMARK  5 active torsions:
REMARK  status: ('A' for Active; 'I' for Inactive)
REMARK       I    between atoms: N_1  and  C_2 
REMARK    1  A    between atoms: N_1  and  C_30 
REMARK    2  A    between atoms: C_7  and  N_8 
REMARK    3  A    between atoms: N_8  and  C_9 
REMARK    4  A    between atoms: S_22  and  N_25 
REMARK    5  A    between atoms: N_25  and  C_26 
ROOT
HETATM    1  N   UNK N   1      26.594  18.067   5.729  0.00  0.00    -0.192 N 
HETATM    2  C   UNK N   1      27.575  17.108   5.506  0.00  0.00     0.684 A 
HETATM    3  N   UNK N   1      27.628  16.444   4.314  0.00  0.00    -0.202 N 
ATOM      4  HN  UNK N   1      26.885  16.585   3.628  1.00  0.00     0.183 HD
HETATM    5  C   UNK N   1      28.641  15.612   4.026  0.00  0.00     0.110 A 
HETATM    6  C   UNK N   1      29.642  15.434   4.953  0.00  0.00     0.066 A 
HETATM    7  C   UNK N   1      29.603  16.137   6.168  0.00  0.00     0.122 A 
HETATM    8  N   UNK N   1      28.561  16.948   6.420  0.00  0.00    -0.176 N 
ATOM      9  HN  UNK N   1      28.515  17.449   7.307  1.00  0.00     0.186 HD
HETATM   10  H   UNK N   1      26.227  18.173   6.636  0.00  0.00     0.184 HD
ENDROOT
BRANCH   1  11
HETATM   11  C   UNK N   1      26.113  18.891   4.694  0.00  0.00     0.051 A 
HETATM   12  C   UNK N   1      26.941  19.765   3.964  0.00  0.00     0.030 A 
HETATM   13  C   UNK N   1      26.386  20.639   3.028  0.00  0.00     0.005 A 
HETATM   14  C   UNK N   1      25.000  20.650   2.829  0.00  0.00     0.030 A 
HETATM   15  C   UNK N   1      24.187  19.787   3.574  0.00  0.00     0.044 A 
HETATM   16  C   UNK N   1      24.760  18.928   4.501  0.00  0.00     0.060 A 
BRANCH  15  17
HETATM   17  N   UNK N   1      22.789  19.737   3.361  0.00  0.00    -0.285 N 
HETATM   18  H   UNK N   1      22.385  20.323   2.681  0.00  0.00     0.178 HD
BRANCH  17  19
HETATM   19  S   UNK N   1      21.743  18.646   4.287  0.00  0.00     0.227 S 
HETATM   20  C   UNK N   1      20.195  17.778   3.927  0.00  0.00     0.186 C 
HETATM   21  O   UNK N   1      20.768  19.828   4.298  0.00  0.00    -0.206 OA
HETATM   22  O   UNK N   1      21.465  18.204   2.839  0.00  0.00    -0.206 OA
ENDBRANCH  17  19
ENDBRANCH  15  17
ENDBRANCH   1  11
BRANCH   7  23
HETATM   23  N   UNK N   1      30.573  15.902   7.177  0.00  0.00    -0.338 N 
HETATM   24  H   UNK N   1      30.421  15.207   7.856  0.00  0.00     0.167 HD
BRANCH  23  25
HETATM   25  C   UNK N   1      31.754  16.673   7.198  0.00  0.00     0.092 A 
HETATM   26  C   UNK N   1      32.900  16.298   6.479  0.00  0.00     0.133 A 
HETATM   27  O   UNK N   1      33.045  15.320   5.580  0.00  0.00    -0.321 OA
HETATM   28  C   UNK N   1      34.075  16.896   6.666  0.00  0.00     0.107 A 
HETATM   29  C   UNK N   1      34.384  15.265   5.194  0.00  0.00     0.352 A 
HETATM   30  O   UNK N   1      34.998  16.295   5.913  0.00  0.00    -0.323 OA
HETATM   31  C   UNK N   1      34.239  17.954   7.555  0.00  0.00     0.041 A 
HETATM   32  C   UNK N   1      33.103  18.403   8.259  0.00  0.00     0.029 A 
HETATM   33  C   UNK N   1      31.859  17.762   8.083  0.00  0.00     0.063 A 
HETATM   34 Cl   UNK N   1      30.472  18.279   9.033  0.00  0.00    -0.082 Cl
ENDBRANCH  23  25
ENDBRANCH   7  23
TORSDOF 5
ENDMDL
MODEL 3
REMARK VINA RESULT:      -7.8      5.590      8.745
REMARK  5 active torsions:
REMARK  status: ('A' for Active; 'I' for Inactive)
REMARK       I    between atoms: N_1  and  C_2 
REMARK    1  A    between atoms: N_1  and  C_30 
REMARK    2  A    between atoms: C_7  and  N_8 
REMARK    3  A    between atoms: N_8  and  C_9 
REMARK    4  A    between atoms: S_22  and  N_25 
REMARK    5  A    between atoms: N_25  and  C_26 
ROOT
HETATM    1  N   UNK N   1      28.293  17.790   5.620  0.00  0.00    -0.192 N 
HETATM    2  C   UNK N   1      27.276  18.565   5.076  0.00  0.00     0.684 A 
HETATM    3  N   UNK N   1      27.566  19.541   4.167  0.00  0.00    -0.202 N 
ATOM      4  HN  UNK N   1      28.542  19.764   3.966  1.00  0.00     0.183 HD
HETATM    5  C   UNK N   1      26.592  20.212   3.533  0.00  0.00     0.110 A 
HETATM    6  C   UNK N   1      25.281  19.900   3.805  0.00  0.00     0.066 A 
HETATM    7  C   UNK N   1      24.980  18.877   4.719  0.00  0.00     0.122 A 
HETATM    8  N   UNK N   1      25.987  18.242   5.342  0.00  0.00    -0.176 N 
ATOM      9  HN  UNK N   1      25.779  17.510   6.022  1.00  0.00     0.186 HD
HETATM   10  H   UNK N   1      28.214  17.481   6.551  0.00  0.00     0.184 HD
ENDROOT
BRANCH   1  11
HETATM   11  C   UNK N   1      29.434  17.433   4.875  0.00  0.00     0.051 A 
HETATM   12  C   UNK N   1      29.360  16.790   3.624  0.00  0.00     0.030 A 
HETATM   13  C   UNK N   1      30.526  16.360   2.987  0.00  0.00     0.005 A 
HETATM   14  C   UNK N   1      31.766  16.562   3.605  0.00  0.00     0.030 A 
HETATM   15  C   UNK N   1      31.822  17.189   4.856  0.00  0.00     0.044 A 
HETATM   16  C   UNK N   1      30.651  17.607   5.472  0.00  0.00     0.060 A 
BRANCH  15  17
HETATM   17  N   UNK N   1      33.062  17.455   5.484  0.00  0.00    -0.285 N 
HETATM   18  H   UNK N   1      33.875  17.525   4.932  0.00  0.00     0.178 HD
BRANCH  17  19
HETATM   19  S   UNK N   1      33.193  17.666   7.239  0.00  0.00     0.227 S 
HETATM   20  C   UNK N   1      34.566  17.595   8.417  0.00  0.00     0.186 C 
HETATM   21  O   UNK N   1      33.453  16.155   7.253  0.00  0.00    -0.206 OA
HETATM   22  O   UNK N   1      34.597  18.080   6.761  0.00  0.00    -0.206 OA
ENDBRANCH  17  19
ENDBRANCH  15  17
ENDBRANCH   1  11
BRANCH   7  23
HETATM   23  N   UNK N   1      23.638  18.599   5.085  0.00  0.00    -0.338 N 
HETATM   24  H   UNK N   1      23.341  18.732   6.014  0.00  0.00     0.167 HD
BRANCH  23  25
HETATM   25  C   UNK N   1      22.734  18.130   4.109  0.00  0.00     0.092 A 
HETATM   26  C   UNK N   1      21.853  18.991   3.437  0.00  0.00     0.133 A 
HETATM   27  O   UNK N   1      21.806  20.326   3.455  0.00  0.00    -0.321 OA
HETATM   28  C   UNK N   1      20.857  18.531   2.681  0.00  0.00     0.107 A 
HETATM   29  C   UNK N   1      20.707  20.744   2.703  0.00  0.00     0.352 A 
HETATM   30  O   UNK N   1      20.139  19.558   2.228  0.00  0.00    -0.323 OA
HETATM   31  C   UNK N   1      20.646  17.170   2.478  0.00  0.00     0.041 A 
HETATM   32  C   UNK N   1      21.540  16.267   3.088  0.00  0.00     0.029 A 
HETATM   33  C   UNK N   1      22.585  16.745   3.906  0.00  0.00     0.063 A 
HETATM   34 Cl   UNK N   1      23.638  15.603   4.729  0.00  0.00    -0.082 Cl
ENDBRANCH  23  25
ENDBRANCH   7  23
TORSDOF 5
ENDMDL
MODEL 4
REMARK VINA RESULT:      -7.8      5.829     10.725
REMARK  5 active torsions:
REMARK  status: ('A' for Active; 'I' for Inactive)
REMARK       I    between atoms: N_1  and  C_2 
REMARK    1  A    between atoms: N_1  and  C_30 
REMARK    2  A    between atoms: C_7  and  N_8 
REMARK    3  A    between atoms: N_8  and  C_9 
REMARK    4  A    between atoms: S_22  and  N_25 
REMARK    5  A    between atoms: N_25  and  C_26 
ROOT
HETATM    1  N   UNK N   1      27.839  18.780   4.008  0.00  0.00    -0.192 N 
HETATM    2  C   UNK N   1      28.266  18.672   5.326  0.00  0.00     0.684 A 
HETATM    3  N   UNK N   1      27.790  19.530   6.275  0.00  0.00    -0.202 N 
ATOM      4  HN  UNK N   1      27.198  20.312   5.993  1.00  0.00     0.183 HD
HETATM    5  C   UNK N   1      28.085  19.363   7.574  0.00  0.00     0.110 A 
HETATM    6  C   UNK N   1      28.878  18.303   7.947  0.00  0.00     0.066 A 
HETATM    7  C   UNK N   1      29.346  17.403   6.976  0.00  0.00     0.122 A 
HETATM    8  N   UNK N   1      29.037  17.618   5.685  0.00  0.00    -0.176 N 
ATOM      9  HN  UNK N   1      29.387  16.981   4.969  1.00  0.00     0.186 HD
HETATM   10  H   UNK N   1      28.469  18.567   3.282  0.00  0.00     0.184 HD
ENDROOT
BRANCH   1  11
HETATM   11  C   UNK N   1      26.530  19.184   3.682  0.00  0.00     0.051 A 
HETATM   12  C   UNK N   1      26.235  20.440   3.120  0.00  0.00     0.030 A 
HETATM   13  C   UNK N   1      24.909  20.828   2.925  0.00  0.00     0.005 A 
HETATM   14  C   UNK N   1      23.874  19.964   3.302  0.00  0.00     0.030 A 
HETATM   15  C   UNK N   1      24.182  18.724   3.876  0.00  0.00     0.044 A 
HETATM   16  C   UNK N   1      25.508  18.360   4.062  0.00  0.00     0.060 A 
BRANCH  15  17
HETATM   17  N   UNK N   1      23.161  17.806   4.222  0.00  0.00    -0.285 N 
HETATM   18  H   UNK N   1      22.949  17.069   3.603  0.00  0.00     0.178 HD
BRANCH  17  19
HETATM   19  S   UNK N   1      22.255  17.946   5.738  0.00  0.00     0.227 S 
HETATM   20  C   UNK N   1      20.891  17.015   6.481  0.00  0.00     0.186 C 
HETATM   21  O   UNK N   1      21.103  18.401   4.836  0.00  0.00    -0.206 OA
HETATM   22  O   UNK N   1      22.134  16.442   5.430  0.00  0.00    -0.206 OA
ENDBRANCH  17  19
ENDBRANCH  15  17
ENDBRANCH   1  11
BRANCH   7  23
HETATM   23  N   UNK N   1      30.238  16.356   7.321  0.00  0.00    -0.338 N 
HETATM   24  H   UNK N   1      29.984  15.696   8.006  0.00  0.00     0.167 HD
BRANCH  23  25
HETATM   25  C   UNK N   1      31.491  16.269   6.678  0.00  0.00     0.092 A 
HETATM   26  C   UNK N   1      32.580  17.066   7.061  0.00  0.00     0.133 A 
HETATM   27  O   UNK N   1      32.699  17.875   8.118  0.00  0.00    -0.321 OA
HETATM   28  C   UNK N   1      33.688  17.145   6.326  0.00  0.00     0.107 A 
HETATM   29  C   UNK N   1      33.928  18.530   8.042  0.00  0.00     0.352 A 
HETATM   30  O   UNK N   1      34.522  18.025   6.882  0.00  0.00    -0.323 OA
HETATM   31  C   UNK N   1      33.855  16.416   5.153  0.00  0.00     0.041 A 
HETATM   32  C   UNK N   1      32.809  15.558   4.757  0.00  0.00     0.029 A 
HETATM   33  C   UNK N   1      31.624  15.484   5.518  0.00  0.00     0.063 A 
HETATM   34 Cl   UNK N   1      30.295  14.474   4.964  0.00  0.00    -0.082 Cl
ENDBRANCH  23  25
ENDBRANCH   7  23
TORSDOF 5
ENDMDL
MODEL 5
REMARK VINA RESULT:      -7.8      3.609      9.458
REMARK  5 active torsions:
REMARK  status: ('A' for Active; 'I' for Inactive)
REMARK       I    between atoms: N_1  and  C_2 
REMARK    1  A    between atoms: N_1  and  C_30 
REMARK    2  A    between atoms: C_7  and  N_8 
REMARK    3  A    between atoms: N_8  and  C_9 
REMARK    4  A    between atoms: S_22  and  N_25 
REMARK    5  A    between atoms: N_25  and  C_26 
ROOT
HETATM    1  N   UNK N   1      33.922  15.026  10.797  0.00  0.00    -0.192 N 
HETATM    2  C   UNK N   1      34.993  14.143  10.843  0.00  0.00     0.684 A 
HETATM    3  N   UNK N   1      35.565  13.695   9.687  0.00  0.00    -0.202 N 
ATOM      4  HN  UNK N   1      35.138  13.934   8.792  1.00  0.00     0.183 HD
HETATM    5  C   UNK N   1      36.680  12.948   9.707  0.00  0.00     0.110 A 
HETATM    6  C   UNK N   1      37.252  12.636  10.918  0.00  0.00     0.066 A 
HETATM    7  C   UNK N   1      36.681  13.119  12.107  0.00  0.00     0.122 A 
HETATM    8  N   UNK N   1      35.556  13.851  12.040  0.00  0.00    -0.176 N 
ATOM      9  HN  UNK N   1      35.123  14.191  12.899  1.00  0.00     0.186 HD
HETATM   10  H   UNK N   1      33.222  14.967  11.487  0.00  0.00     0.184 HD
ENDROOT
BRANCH   1  11
HETATM   11  C   UNK N   1      33.809  16.005   9.791  0.00  0.00     0.051 A 
HETATM   12  C   UNK N   1      34.854  16.890   9.465  0.00  0.00     0.030 A 
HETATM   13  C   UNK N   1      34.644  17.913   8.539  0.00  0.00     0.005 A 
HETATM   14  C   UNK N   1      33.385  18.059   7.944  0.00  0.00     0.030 A 
HETATM   15  C   UNK N   1      32.350  17.181   8.290  0.00  0.00     0.044 A 
HETATM   16  C   UNK N   1      32.581  16.173   9.216  0.00  0.00     0.060 A 
BRANCH  15  17
HETATM   17  N   UNK N   1      31.080  17.269   7.671  0.00  0.00    -0.285 N 
HETATM   18  H   UNK N   1      31.020  17.214   6.689  0.00  0.00     0.178 HD
BRANCH  17  19
HETATM   19  S   UNK N   1      29.594  17.475   8.614  0.00  0.00     0.227 S 
HETATM   20  C   UNK N   1      28.161  18.573   8.482  0.00  0.00     0.186 C 
HETATM   21  O   UNK N   1      30.233  18.797   9.055  0.00  0.00    -0.206 OA
HETATM   22  O   UNK N   1      29.156  17.950   7.217  0.00  0.00    -0.206 OA
ENDBRANCH  17  19
ENDBRANCH  15  17
ENDBRANCH   1  11
BRANCH   7  23
HETATM   23  N   UNK N   1      37.199  12.737  13.372  0.00  0.00    -0.338 N 
HETATM   24  H   UNK N   1      38.107  12.363  13.442  0.00  0.00     0.167 HD
BRANCH  23  25
HETATM   25  C   UNK N   1      36.403  12.896  14.526  0.00  0.00     0.092 A 
HETATM   26  C   UNK N   1      36.609  13.947  15.432  0.00  0.00     0.133 A 
HETATM   27  O   UNK N   1      37.412  15.009  15.319  0.00  0.00    -0.321 OA
HETATM   28  C   UNK N   1      36.012  13.978  16.622  0.00  0.00     0.107 A 
HETATM   29  C   UNK N   1      37.354  15.740  16.505  0.00  0.00     0.352 A 
HETATM   30  O   UNK N   1      36.443  15.041  17.302  0.00  0.00    -0.323 OA
HETATM   31  C   UNK N   1      35.117  12.994  17.031  0.00  0.00     0.041 A 
HETATM   32  C   UNK N   1      34.835  11.946  16.131  0.00  0.00     0.029 A 
HETATM   33  C   UNK N   1      35.479  11.894  14.877  0.00  0.00     0.063 A 
HETATM   34 Cl   UNK N   1      35.181  10.535  13.801  0.00  0.00    -0.082 Cl
ENDBRANCH  23  25
ENDBRANCH   7  23
TORSDOF 5
ENDMDL
MODEL 6
REMARK VINA RESULT:      -7.8      3.899      9.514
REMARK  5 active torsions:
REMARK  status: ('A' for Active; 'I' for Inactive)
REMARK       I    between atoms: N_1  and  C_2 
REMARK    1  A    between atoms: N_1  and  C_30 
REMARK    2  A    between atoms: C_7  and  N_8 
REMARK    3  A    between atoms: N_8  and  C_9 
REMARK    4  A    between atoms: S_22  and  N_25 
REMARK    5  A    between atoms: N_25  and  C_26 
ROOT
HETATM    1  N   UNK N   1      33.602  15.297  10.518  0.00  0.00    -0.192 N 
HETATM    2  C   UNK N   1      34.708  14.472  10.682  0.00  0.00     0.684 A 
HETATM    3  N   UNK N   1      35.249  13.825   9.608  0.00  0.00    -0.202 N 
ATOM      4  HN  UNK N   1      34.776  13.871   8.705  1.00  0.00     0.183 HD
HETATM    5  C   UNK N   1      36.392  13.129   9.719  0.00  0.00     0.110 A 
HETATM    6  C   UNK N   1      37.026  13.078  10.938  0.00  0.00     0.066 A 
HETATM    7  C   UNK N   1      36.487  13.766  12.037  0.00  0.00     0.122 A 
HETATM    8  N   UNK N   1      35.332  14.437  11.884  0.00  0.00    -0.176 N 
ATOM      9  HN  UNK N   1      34.922  14.925  12.680  1.00  0.00     0.186 HD
HETATM   10  H   UNK N   1      32.935  15.353  11.239  0.00  0.00     0.184 HD
ENDROOT
BRANCH   1  11
HETATM   11  C   UNK N   1      33.410  16.057   9.347  0.00  0.00     0.051 A 
HETATM   12  C   UNK N   1      34.194  17.182   9.029  0.00  0.00     0.030 A 
HETATM   13  C   UNK N   1      33.882  17.961   7.913  0.00  0.00     0.005 A 
HETATM   14  C   UNK N   1      32.779  17.622   7.120  0.00  0.00     0.030 A 
HETATM   15  C   UNK N   1      31.999  16.509   7.459  0.00  0.00     0.044 A 
HETATM   16  C   UNK N   1      32.326  15.750   8.573  0.00  0.00     0.060 A 
BRANCH  15  17
HETATM   17  N   UNK N   1      30.908  16.109   6.650  0.00  0.00    -0.285 N 
HETATM   18  H   UNK N   1      30.783  15.152   6.452  0.00  0.00     0.178 HD
BRANCH  17  19
HETATM   19  S   UNK N   1      29.760  17.283   5.984  0.00  0.00     0.227 S 
HETATM   20  C   UNK N   1      28.079  17.790   6.423  0.00  0.00     0.186 C 
HETATM   21  O   UNK N   1      28.983  16.043   5.528  0.00  0.00    -0.206 OA
HETATM   22  O   UNK N   1      29.335  17.223   7.462  0.00  0.00    -0.206 OA
ENDBRANCH  17  19
ENDBRANCH  15  17
ENDBRANCH   1  11
BRANCH   7  23
HETATM   23  N   UNK N   1      37.070  13.655  13.325  0.00  0.00    -0.338 N 
HETATM   24  H   UNK N   1      38.017  13.890  13.461  0.00  0.00     0.167 HD
BRANCH  23  25
HETATM   25  C   UNK N   1      36.286  13.205  14.408  0.00  0.00     0.092 A 
HETATM   26  C   UNK N   1      35.329  12.188  14.261  0.00  0.00     0.133 A 
HETATM   27  O   UNK N   1      35.100  11.396  13.210  0.00  0.00    -0.321 OA
HETATM   28  C   UNK N   1      34.443  11.912  15.216  0.00  0.00     0.107 A 
HETATM   29  C   UNK N   1      33.993  10.594  13.489  0.00  0.00     0.352 A 
HETATM   30  O   UNK N   1      33.614  10.961  14.784  0.00  0.00    -0.323 OA
HETATM   31  C   UNK N   1      34.429  12.584  16.434  0.00  0.00     0.041 A 
HETATM   32  C   UNK N   1      35.407  13.576  16.650  0.00  0.00     0.029 A 
HETATM   33  C   UNK N   1      36.336  13.890  15.636  0.00  0.00     0.063 A 
HETATM   34 Cl   UNK N   1      37.494  15.189  15.888  0.00  0.00    -0.082 Cl
ENDBRANCH  23  25
ENDBRANCH   7  23
TORSDOF 5
ENDMDL
MODEL 7
REMARK VINA RESULT:      -7.4      6.412     10.810
REMARK  5 active torsions:
REMARK  status: ('A' for Active; 'I' for Inactive)
REMARK       I    between atoms: N_1  and  C_2 
REMARK    1  A    between atoms: N_1  and  C_30 
REMARK    2  A    between atoms: C_7  and  N_8 
REMARK    3  A    between atoms: N_8  and  C_9 
REMARK    4  A    between atoms: S_22  and  N_25 
REMARK    5  A    between atoms: N_25  and  C_26 
ROOT
HETATM    1  N   UNK N   1      27.621  18.925   3.860  0.00  0.00    -0.192 N 
HETATM    2  C   UNK N   1      28.094  18.831   5.163  0.00  0.00     0.684 A 
HETATM    3  N   UNK N   1      27.582  19.635   6.140  0.00  0.00    -0.202 N 
ATOM      4  HN  UNK N   1      26.922  20.372   5.889  1.00  0.00     0.183 HD
HETATM    5  C   UNK N   1      27.929  19.473   7.427  0.00  0.00     0.110 A 
HETATM    6  C   UNK N   1      28.813  18.473   7.758  0.00  0.00     0.066 A 
HETATM    7  C   UNK N   1      29.320  17.627   6.758  0.00  0.00     0.122 A 
HETATM    8  N   UNK N   1      28.957  17.836   5.481  0.00  0.00    -0.176 N 
ATOM      9  HN  UNK N   1      29.333  17.239   4.745  1.00  0.00     0.186 HD
HETATM   10  H   UNK N   1      28.243  18.773   3.112  0.00  0.00     0.184 HD
ENDROOT
BRANCH   1  11
HETATM   11  C   UNK N   1      26.275  19.229   3.579  0.00  0.00     0.051 A 
HETATM   12  C   UNK N   1      25.860  20.484   3.095  0.00  0.00     0.030 A 
HETATM   13  C   UNK N   1      24.500  20.764   2.944  0.00  0.00     0.005 A 
HETATM   14  C   UNK N   1      23.553  19.792   3.289  0.00  0.00     0.030 A 
HETATM   15  C   UNK N   1      23.980  18.554   3.785  0.00  0.00     0.044 A 
HETATM   16  C   UNK N   1      25.337  18.299   3.928  0.00  0.00     0.060 A 
BRANCH  15  17
HETATM   17  N   UNK N   1      23.051  17.531   4.094  0.00  0.00    -0.285 N 
HETATM   18  H   UNK N   1      22.427  17.223   3.397  0.00  0.00     0.178 HD
BRANCH  17  19
HETATM   19  S   UNK N   1      22.979  16.791   5.702  0.00  0.00     0.227 S 
HETATM   20  C   UNK N   1      21.657  16.046   6.688  0.00  0.00     0.186 C 
HETATM   21  O   UNK N   1      22.194  18.050   6.085  0.00  0.00    -0.206 OA
HETATM   22  O   UNK N   1      21.826  16.081   4.971  0.00  0.00    -0.206 OA
ENDBRANCH  17  19
ENDBRANCH  15  17
ENDBRANCH   1  11
BRANCH   7  23
HETATM   23  N   UNK N   1      30.301  16.648   7.060  0.00  0.00    -0.338 N 
HETATM   24  H   UNK N   1      30.149  16.003   7.787  0.00  0.00     0.167 HD
BRANCH  23  25
HETATM   25  C   UNK N   1      31.497  16.608   6.311  0.00  0.00     0.092 A 
HETATM   26  C   UNK N   1      31.607  15.864   5.126  0.00  0.00     0.133 A 
HETATM   27  O   UNK N   1      30.650  15.236   4.436  0.00  0.00    -0.321 OA
HETATM   28  C   UNK N   1      32.782  15.648   4.537  0.00  0.00     0.107 A 
HETATM   29  C   UNK N   1      31.242  14.556   3.372  0.00  0.00     0.352 A 
HETATM   30  O   UNK N   1      32.604  14.855   3.480  0.00  0.00    -0.323 OA
HETATM   31  C   UNK N   1      33.970  16.174   5.034  0.00  0.00     0.041 A 
HETATM   32  C   UNK N   1      33.902  16.975   6.192  0.00  0.00     0.029 A 
HETATM   33  C   UNK N   1      32.665  17.192   6.834  0.00  0.00     0.063 A 
HETATM   34 Cl   UNK N   1      32.610  18.122   8.326  0.00  0.00    -0.082 Cl
ENDBRANCH  23  25
ENDBRANCH   7  23
TORSDOF 5
ENDMDL
MODEL 8
REMARK VINA RESULT:      -7.4      5.999      8.258
REMARK  5 active torsions:
REMARK  status: ('A' for Active; 'I' for Inactive)
REMARK       I    between atoms: N_1  and  C_2 
REMARK    1  A    between atoms: N_1  and  C_30 
REMARK    2  A    between atoms: C_7  and  N_8 
REMARK    3  A    between atoms: N_8  and  C_9 
REMARK    4  A    between atoms: S_22  and  N_25 
REMARK    5  A    between atoms: N_25  and  C_26 
ROOT
HETATM    1  N   UNK N   1      27.732  17.764   7.410  0.00  0.00    -0.192 N 
HETATM    2  C   UNK N   1      27.241  18.591   6.407  0.00  0.00     0.684 A 
HETATM    3  N   UNK N   1      27.814  19.810   6.179  0.00  0.00    -0.202 N 
ATOM      4  HN  UNK N   1      28.538  20.150   6.813  1.00  0.00     0.183 HD
HETATM    5  C   UNK N   1      27.444  20.567   5.135  0.00  0.00     0.110 A 
HETATM    6  C   UNK N   1      26.473  20.098   4.281  0.00  0.00     0.066 A 
HETATM    7  C   UNK N   1      25.902  18.833   4.498  0.00  0.00     0.122 A 
HETATM    8  N   UNK N   1      26.293  18.116   5.566  0.00  0.00    -0.176 N 
ATOM      9  HN  UNK N   1      25.871  17.204   5.743  1.00  0.00     0.186 HD
HETATM   10  H   UNK N   1      27.106  17.191   7.907  0.00  0.00     0.184 HD
ENDROOT
BRANCH   1  11
HETATM   11  C   UNK N   1      29.102  17.723   7.735  0.00  0.00     0.051 A 
HETATM   12  C   UNK N   1      29.646  18.400   8.843  0.00  0.00     0.030 A 
HETATM   13  C   UNK N   1      31.027  18.415   9.047  0.00  0.00     0.005 A 
HETATM   14  C   UNK N   1      31.867  17.763   8.137  0.00  0.00     0.030 A 
HETATM   15  C   UNK N   1      31.313  17.108   7.030  0.00  0.00     0.044 A 
HETATM   16  C   UNK N   1      29.938  17.108   6.846  0.00  0.00     0.060 A 
BRANCH  15  17
HETATM   17  N   UNK N   1      32.130  16.396   6.119  0.00  0.00    -0.285 N 
HETATM   18  H   UNK N   1      32.771  15.734   6.465  0.00  0.00     0.178 HD
BRANCH  17  19
HETATM   19  S   UNK N   1      32.030  16.664   4.370  0.00  0.00     0.227 S 
HETATM   20  C   UNK N   1      33.125  16.301   2.975  0.00  0.00     0.186 C 
HETATM   21  O   UNK N   1      33.126  17.707   4.616  0.00  0.00    -0.206 OA
HETATM   22  O   UNK N   1      32.943  15.428   4.453  0.00  0.00    -0.206 OA
ENDBRANCH  17  19
ENDBRANCH  15  17
ENDBRANCH   1  11
BRANCH   7  23
HETATM   23  N   UNK N   1      24.836  18.366   3.687  0.00  0.00    -0.338 N 
HETATM   24  H   UNK N   1      25.002  18.112   2.751  0.00  0.00     0.167 HD
BRANCH  23  25
HETATM   25  C   UNK N   1      23.538  18.268   4.233  0.00  0.00     0.092 A 
HETATM   26  C   UNK N   1      23.163  17.208   5.073  0.00  0.00     0.133 A 
HETATM   27  O   UNK N   1      23.926  16.254   5.614  0.00  0.00    -0.321 OA
HETATM   28  C   UNK N   1      21.893  16.994   5.411  0.00  0.00     0.107 A 
HETATM   29  C   UNK N   1      23.103  15.366   6.307  0.00  0.00     0.352 A 
HETATM   30  O   UNK N   1      21.816  15.886   6.149  0.00  0.00    -0.323 OA
HETATM   31  C   UNK N   1      20.860  17.826   4.988  0.00  0.00     0.041 A 
HETATM   32  C   UNK N   1      21.196  18.937   4.187  0.00  0.00     0.029 A 
HETATM   33  C   UNK N   1      22.536  19.159   3.807  0.00  0.00     0.063 A 
HETATM   34 Cl   UNK N   1      22.926  20.500   2.738  0.00  0.00    -0.082 Cl
ENDBRANCH  23  25
ENDBRANCH   7  23
TORSDOF 5
ENDMDL
MODEL 9
REMARK VINA RESULT:      -7.4     15.368     17.318
REMARK  5 active torsions:
REMARK  status: ('A' for Active; 'I' for Inactive)
REMARK       I    between atoms: N_1  and  C_2 
REMARK    1  A    between atoms: N_1  and  C_30 
REMARK    2  A    between atoms: C_7  and  N_8 
REMARK    3  A    between atoms: N_8  and  C_9 
REMARK    4  A    between atoms: S_22  and  N_25 
REMARK    5  A    between atoms: N_25  and  C_26 
ROOT
HETATM    1  N   UNK N   1      30.815  21.868  -2.690  0.00  0.00    -0.192 N 
HETATM    2  C   UNK N   1      30.324  23.120  -3.040  0.00  0.00     0.684 A 
HETATM    3  N   UNK N   1      31.157  24.060  -3.575  0.00  0.00    -0.202 N 
ATOM      4  HN  UNK N   1      32.159  23.874  -3.621  1.00  0.00     0.183 HD
HETATM    5  C   UNK N   1      30.681  25.226  -4.041  0.00  0.00     0.110 A 
HETATM    6  C   UNK N   1      29.328  25.466  -3.981  0.00  0.00     0.066 A 
HETATM    7  C   UNK N   1      28.466  24.488  -3.457  0.00  0.00     0.122 A 
HETATM    8  N   UNK N   1      28.989  23.342  -2.987  0.00  0.00    -0.176 N 
ATOM      9  HN  UNK N   1      28.373  22.633  -2.588  1.00  0.00     0.186 HD
HETATM   10  H   UNK N   1      30.433  21.405  -1.910  0.00  0.00     0.184 HD
ENDROOT
BRANCH   1  11
HETATM   11  C   UNK N   1      31.845  21.244  -3.419  0.00  0.00     0.051 A 
HETATM   12  C   UNK N   1      33.164  21.135  -2.939  0.00  0.00     0.030 A 
HETATM   13  C   UNK N   1      34.167  20.608  -3.755  0.00  0.00     0.005 A 
HETATM   14  C   UNK N   1      33.854  20.198  -5.057  0.00  0.00     0.030 A 
HETATM   15  C   UNK N   1      32.541  20.328  -5.526  0.00  0.00     0.044 A 
HETATM   16  C   UNK N   1      31.560  20.857  -4.698  0.00  0.00     0.060 A 
BRANCH  15  17
HETATM   17  N   UNK N   1      32.179  19.877  -6.819  0.00  0.00    -0.285 N 
HETATM   18  H   UNK N   1      32.886  19.597  -7.445  0.00  0.00     0.178 HD
BRANCH  17  19
HETATM   19  S   UNK N   1      30.488  19.801  -7.342  0.00  0.00     0.227 S 
HETATM   20  C   UNK N   1      29.671  19.451  -8.919  0.00  0.00     0.186 C 
HETATM   21  O   UNK N   1      30.820  21.090  -8.103  0.00  0.00    -0.206 OA
HETATM   22  O   UNK N   1      31.171  18.836  -8.327  0.00  0.00    -0.206 OA
ENDBRANCH  17  19
ENDBRANCH  15  17
ENDBRANCH   1  11
BRANCH   7  23
HETATM   23  N   UNK N   1      27.081  24.747  -3.300  0.00  0.00    -0.338 N 
HETATM   24  H   UNK N   1      26.628  24.519  -2.456  0.00  0.00     0.167 HD
BRANCH  23  25
HETATM   25  C   UNK N   1      26.357  25.333  -4.361  0.00  0.00     0.092 A 
HETATM   26  C   UNK N   1      26.051  24.623  -5.532  0.00  0.00     0.133 A 
HETATM   27  O   UNK N   1      26.217  23.323  -5.795  0.00  0.00    -0.321 OA
HETATM   28  C   UNK N   1      25.565  25.227  -6.615  0.00  0.00     0.107 A 
HETATM   29  C   UNK N   1      25.851  23.086  -7.120  0.00  0.00     0.352 A 
HETATM   30  O   UNK N   1      25.439  24.334  -7.597  0.00  0.00    -0.323 OA
HETATM   31  C   UNK N   1      25.293  26.592  -6.645  0.00  0.00     0.041 A 
HETATM   32  C   UNK N   1      25.532  27.337  -5.472  0.00  0.00     0.029 A 
HETATM   33  C   UNK N   1      26.067  26.709  -4.329  0.00  0.00     0.063 A 
HETATM   34 Cl   UNK N   1      26.439  27.668  -2.903  0.00  0.00    -0.082 Cl
ENDBRANCH  23  25
ENDBRANCH   7  23
TORSDOF 5
ENDMDL
