MODEL 1
REMARK VINA RESULT:      -8.7      0.000      0.000
REMARK  4 active torsions:
REMARK  status: ('A' for Active; 'I' for Inactive)
REMARK    1  A    between atoms: C_10  and  N_11 
REMARK    2  A    between atoms: N_11  and  C_12 
REMARK       I    between atoms: C_17  and  N_18 
REMARK    3  A    between atoms: N_18  and  C_19 
REMARK    4  A    between atoms: C_23  and  N_25 
ROOT
HETATM    1  C   UNK N   1      36.468  13.778  12.038  0.00  0.00     0.122 A 
HETATM    2  C   UNK N   1      37.068  13.175  10.924  0.00  0.00     0.066 A 
HETATM    3  C   UNK N   1      36.466  13.290   9.687  0.00  0.00     0.110 A 
HETATM    4  N   UNK N   1      35.310  13.980   9.578  0.00  0.00    -0.202 N 
ATOM      5  HN  UNK N   1      34.873  14.084   8.661  1.00  0.00     0.183 HD
HETATM    6  C   UNK N   1      34.717  14.537  10.668  0.00  0.00     0.684 A 
HETATM    7  N   UNK N   1      33.555  15.313  10.494  0.00  0.00    -0.192 N 
HETATM    8  N   UNK N   1      35.289  14.435  11.893  0.00  0.00    -0.176 N 
ATOM      9  HN  UNK N   1      34.834  14.853  12.704  1.00  0.00     0.186 HD
HETATM   10  H   UNK N   1      32.796  15.230  11.115  0.00  0.00     0.184 HD
ENDROOT
BRANCH   7  11
HETATM   11  C   UNK N   1      33.503  16.215   9.410  0.00  0.00     0.051 A 
HETATM   12  C   UNK N   1      34.547  17.131   9.205  0.00  0.00     0.030 A 
HETATM   13  C   UNK N   1      34.504  18.027   8.143  0.00  0.00     0.004 A 
HETATM   14  C   UNK N   1      33.420  18.001   7.269  0.00  0.00     0.029 A 
HETATM   15  C   UNK N   1      32.371  17.081   7.454  0.00  0.00     0.032 A 
HETATM   16  C   UNK N   1      32.420  16.196   8.540  0.00  0.00     0.059 A 
BRANCH  15  17
HETATM   17  N   UNK N   1      31.266  17.054   6.559  0.00  0.00    -0.377 N 
HETATM   18  C   UNK N   1      31.516  17.124   5.121  0.00  0.00     0.149 C 
HETATM   19  C   UNK N   1      30.227  17.152   4.305  0.00  0.00     0.187 C 
HETATM   20  O   UNK N   1      29.258  17.899   4.983  0.00  0.00    -0.388 OA
HETATM   21  C   UNK N   1      28.846  17.055   6.018  0.00  0.00     0.187 C 
HETATM   22  C   UNK N   1      29.912  17.042   7.106  0.00  0.00     0.149 C 
ENDBRANCH  15  17
ENDBRANCH   7  11
BRANCH   1  23
HETATM   23  N   UNK N   1      37.048  13.651  13.323  0.00  0.00    -0.338 N 
HETATM   24  H   UNK N   1      38.001  13.859  13.456  0.00  0.00     0.167 HD
BRANCH  23  25
HETATM   25  C   UNK N   1      36.257  13.224  14.415  0.00  0.00     0.092 A 
HETATM   26  C   UNK N   1      36.337  13.898  15.646  0.00  0.00     0.063 A 
HETATM   27 Cl   UNK N   1      37.475  15.217  15.867  0.00  0.00    -0.082 Cl
HETATM   28  C   UNK N   1      35.453  13.549  16.691  0.00  0.00     0.029 A 
HETATM   29  C   UNK N   1      34.499  12.529  16.505  0.00  0.00     0.041 A 
HETATM   30  C   UNK N   1      34.473  11.881  15.271  0.00  0.00     0.107 A 
HETATM   31  O   UNK N   1      33.662  10.906  14.865  0.00  0.00    -0.323 OA
HETATM   32  C   UNK N   1      35.307  12.205  14.280  0.00  0.00     0.133 A 
HETATM   33  C   UNK N   1      33.991  10.579  13.545  0.00  0.00     0.352 A 
HETATM   34  O   UNK N   1      35.045  11.438  13.220  0.00  0.00    -0.321 OA
ENDBRANCH  23  25
ENDBRANCH   1  23
TORSDOF 4
ENDMDL
MODEL 2
REMARK VINA RESULT:      -8.5      6.732      9.834
REMARK  4 active torsions:
REMARK  status: ('A' for Active; 'I' for Inactive)
REMARK    1  A    between atoms: C_10  and  N_11 
REMARK    2  A    between atoms: N_11  and  C_12 
REMARK       I    between atoms: C_17  and  N_18 
REMARK    3  A    between atoms: N_18  and  C_19 
REMARK    4  A    between atoms: C_23  and  N_25 
ROOT
HETATM    1  C   UNK N   1      29.430  17.490   7.035  0.00  0.00     0.122 A 
HETATM    2  C   UNK N   1      28.968  18.349   8.042  0.00  0.00     0.066 A 
HETATM    3  C   UNK N   1      28.134  19.397   7.706  0.00  0.00     0.110 A 
HETATM    4  N   UNK N   1      27.785  19.574   6.413  0.00  0.00    -0.202 N 
ATOM      5  HN  UNK N   1      27.153  20.335   6.164  1.00  0.00     0.183 HD
HETATM    6  C   UNK N   1      28.262  18.755   5.437  0.00  0.00     0.684 A 
HETATM    7  N   UNK N   1      27.809  18.928   4.115  0.00  0.00    -0.192 N 
HETATM    8  N   UNK N   1      29.083  17.720   5.743  0.00  0.00    -0.176 N 
ATOM      9  HN  UNK N   1      29.438  17.115   5.003  1.00  0.00     0.186 HD
HETATM   10  H   UNK N   1      28.434  18.876   3.357  0.00  0.00     0.184 HD
ENDROOT
BRANCH   7  11
HETATM   11  C   UNK N   1      26.436  19.177   3.901  0.00  0.00     0.051 A 
HETATM   12  C   UNK N   1      26.033  20.291   3.147  0.00  0.00     0.030 A 
HETATM   13  C   UNK N   1      24.684  20.550   2.935  0.00  0.00     0.004 A 
HETATM   14  C   UNK N   1      23.728  19.685   3.465  0.00  0.00     0.029 A 
HETATM   15  C   UNK N   1      24.118  18.559   4.212  0.00  0.00     0.032 A 
HETATM   16  C   UNK N   1      25.482  18.321   4.434  0.00  0.00     0.059 A 
BRANCH  15  17
HETATM   17  N   UNK N   1      23.141  17.675   4.751  0.00  0.00    -0.377 N 
HETATM   18  C   UNK N   1      22.172  18.191   5.714  0.00  0.00     0.149 C 
HETATM   19  C   UNK N   1      21.240  17.105   6.244  0.00  0.00     0.187 C 
HETATM   20  O   UNK N   1      21.949  15.908   6.389  0.00  0.00    -0.388 OA
HETATM   21  C   UNK N   1      22.104  15.447   5.079  0.00  0.00     0.187 C 
HETATM   22  C   UNK N   1      23.189  16.262   4.388  0.00  0.00     0.149 C 
ENDBRANCH  15  17
ENDBRANCH   7  11
BRANCH   1  23
HETATM   23  N   UNK N   1      30.309  16.425   7.348  0.00  0.00    -0.338 N 
HETATM   24  H   UNK N   1      30.052  15.757   8.023  0.00  0.00     0.167 HD
BRANCH  23  25
HETATM   25  C   UNK N   1      31.557  16.325   6.690  0.00  0.00     0.092 A 
HETATM   26  C   UNK N   1      31.687  15.507   5.554  0.00  0.00     0.063 A 
HETATM   27 Cl   UNK N   1      30.333  14.542   4.991  0.00  0.00    -0.082 Cl
HETATM   28  C   UNK N   1      32.898  15.510   4.827  0.00  0.00     0.029 A 
HETATM   29  C   UNK N   1      33.972  16.323   5.239  0.00  0.00     0.041 A 
HETATM   30  C   UNK N   1      33.797  17.101   6.381  0.00  0.00     0.107 A 
HETATM   31  O   UNK N   1      34.657  17.947   6.948  0.00  0.00    -0.323 OA
HETATM   32  C   UNK N   1      32.655  17.102   7.073  0.00  0.00     0.133 A 
HETATM   33  C   UNK N   1      34.041  18.519   8.067  0.00  0.00     0.352 A 
HETATM   34  O   UNK N   1      32.766  17.948   8.100  0.00  0.00    -0.321 OA
ENDBRANCH  23  25
ENDBRANCH   1  23
TORSDOF 4
ENDMDL
MODEL 3
REMARK VINA RESULT:      -8.5      6.816      9.976
REMARK  4 active torsions:
REMARK  status: ('A' for Active; 'I' for Inactive)
REMARK    1  A    between atoms: C_10  and  N_11 
REMARK    2  A    between atoms: N_11  and  C_12 
REMARK       I    between atoms: C_17  and  N_18 
REMARK    3  A    between atoms: N_18  and  C_19 
REMARK    4  A    between atoms: C_23  and  N_25 
ROOT
HETATM    1  C   UNK N   1      29.164  15.028   5.314  0.00  0.00     0.122 A 
HETATM    2  C   UNK N   1      28.482  14.285   4.341  0.00  0.00     0.066 A 
HETATM    3  C   UNK N   1      27.250  14.724   3.896  0.00  0.00     0.110 A 
HETATM    4  N   UNK N   1      26.729  15.860   4.412  0.00  0.00    -0.202 N 
ATOM      5  HN  UNK N   1      25.829  16.197   4.070  1.00  0.00     0.183 HD
HETATM    6  C   UNK N   1      27.384  16.559   5.377  0.00  0.00     0.684 A 
HETATM    7  N   UNK N   1      26.841  17.778   5.828  0.00  0.00    -0.192 N 
HETATM    8  N   UNK N   1      28.593  16.146   5.830  0.00  0.00    -0.176 N 
ATOM      9  HN  UNK N   1      29.073  16.675   6.558  1.00  0.00     0.186 HD
HETATM   10  H   UNK N   1      26.836  18.004   6.786  0.00  0.00     0.184 HD
ENDROOT
BRANCH   7  11
HETATM   11  C   UNK N   1      26.303  18.668   4.875  0.00  0.00     0.051 A 
HETATM   12  C   UNK N   1      27.155  19.494   4.123  0.00  0.00     0.030 A 
HETATM   13  C   UNK N   1      26.635  20.378   3.185  0.00  0.00     0.004 A 
HETATM   14  C   UNK N   1      25.258  20.433   2.984  0.00  0.00     0.029 A 
HETATM   15  C   UNK N   1      24.393  19.604   3.722  0.00  0.00     0.032 A 
HETATM   16  C   UNK N   1      24.930  18.730   4.677  0.00  0.00     0.059 A 
BRANCH  15  17
HETATM   17  N   UNK N   1      22.987  19.659   3.513  0.00  0.00    -0.377 N 
HETATM   18  C   UNK N   1      22.437  20.705   2.653  0.00  0.00     0.149 C 
HETATM   19  C   UNK N   1      20.913  20.666   2.588  0.00  0.00     0.187 C 
HETATM   20  O   UNK N   1      20.397  20.309   3.838  0.00  0.00    -0.388 OA
HETATM   21  C   UNK N   1      20.650  18.938   3.928  0.00  0.00     0.187 C 
HETATM   22  C   UNK N   1      22.128  18.721   4.230  0.00  0.00     0.149 C 
ENDBRANCH  15  17
ENDBRANCH   7  11
BRANCH   1  23
HETATM   23  N   UNK N   1      30.415  14.584   5.808  0.00  0.00    -0.338 N 
HETATM   24  H   UNK N   1      30.508  13.671   6.164  0.00  0.00     0.167 HD
BRANCH  23  25
HETATM   25  C   UNK N   1      31.529  15.455   5.790  0.00  0.00     0.092 A 
HETATM   26  C   UNK N   1      32.388  15.474   4.677  0.00  0.00     0.063 A 
HETATM   27 Cl   UNK N   1      32.137  14.363   3.340  0.00  0.00    -0.082 Cl
HETATM   28  C   UNK N   1      33.421  16.433   4.609  0.00  0.00     0.029 A 
HETATM   29  C   UNK N   1      33.597  17.365   5.651  0.00  0.00     0.041 A 
HETATM   30  C   UNK N   1      32.729  17.292   6.739  0.00  0.00     0.107 A 
HETATM   31  O   UNK N   1      32.695  18.065   7.824  0.00  0.00    -0.323 OA
HETATM   32  C   UNK N   1      31.750  16.387   6.810  0.00  0.00     0.133 A 
HETATM   33  C   UNK N   1      31.643  17.634   8.641  0.00  0.00     0.352 A 
HETATM   34  O   UNK N   1      31.073  16.562   7.947  0.00  0.00    -0.321 OA
ENDBRANCH  23  25
ENDBRANCH   1  23
TORSDOF 4
ENDMDL
MODEL 4
REMARK VINA RESULT:      -8.4      1.894      2.552
REMARK  4 active torsions:
REMARK  status: ('A' for Active; 'I' for Inactive)
REMARK    1  A    between atoms: C_10  and  N_11 
REMARK    2  A    between atoms: N_11  and  C_12 
REMARK       I    between atoms: C_17  and  N_18 
REMARK    3  A    between atoms: N_18  and  C_19 
REMARK    4  A    between atoms: C_23  and  N_25 
ROOT
HETATM    1  C   UNK N   1      36.587  13.107  12.259  0.00  0.00     0.122 A 
HETATM    2  C   UNK N   1      37.088  12.517  11.091  0.00  0.00     0.066 A 
HETATM    3  C   UNK N   1      36.446  12.743   9.890  0.00  0.00     0.110 A 
HETATM    4  N   UNK N   1      35.347  13.528   9.867  0.00  0.00    -0.202 N 
ATOM      5  HN  UNK N   1      34.883  13.714   8.978  1.00  0.00     0.183 HD
HETATM    6  C   UNK N   1      34.849  14.074  11.009  0.00  0.00     0.684 A 
HETATM    7  N   UNK N   1      33.748  14.949  10.927  0.00  0.00    -0.192 N 
HETATM    8  N   UNK N   1      35.461  13.864  12.200  0.00  0.00    -0.176 N 
ATOM      9  HN  UNK N   1      35.076  14.274  13.051  1.00  0.00     0.186 HD
HETATM   10  H   UNK N   1      33.012  14.895  11.577  0.00  0.00     0.184 HD
ENDROOT
BRANCH   7  11
HETATM   11  C   UNK N   1      33.725  15.907   9.890  0.00  0.00     0.051 A 
HETATM   12  C   UNK N   1      34.805  16.789   9.723  0.00  0.00     0.030 A 
HETATM   13  C   UNK N   1      34.790  17.739   8.709  0.00  0.00     0.004 A 
HETATM   14  C   UNK N   1      33.699  17.803   7.845  0.00  0.00     0.029 A 
HETATM   15  C   UNK N   1      32.615  16.918   7.993  0.00  0.00     0.032 A 
HETATM   16  C   UNK N   1      32.636  15.977   9.032  0.00  0.00     0.059 A 
BRANCH  15  17
HETATM   17  N   UNK N   1      31.503  16.983   7.108  0.00  0.00    -0.377 N 
HETATM   18  C   UNK N   1      30.153  16.973   7.665  0.00  0.00     0.149 C 
HETATM   19  C   UNK N   1      29.076  16.979   6.584  0.00  0.00     0.187 C 
HETATM   20  O   UNK N   1      29.496  16.205   5.497  0.00  0.00    -0.388 OA
HETATM   21  C   UNK N   1      30.450  17.004   4.863  0.00  0.00     0.187 C 
HETATM   22  C   UNK N   1      31.743  16.973   5.668  0.00  0.00     0.149 C 
ENDBRANCH  15  17
ENDBRANCH   7  11
BRANCH   1  23
HETATM   23  N   UNK N   1      37.208  12.867  13.508  0.00  0.00    -0.338 N 
HETATM   24  H   UNK N   1      38.156  12.606  13.545  0.00  0.00     0.167 HD
BRANCH  23  25
HETATM   25  C   UNK N   1      36.464  13.003  14.704  0.00  0.00     0.092 A 
HETATM   26  C   UNK N   1      35.563  11.995  15.089  0.00  0.00     0.063 A 
HETATM   27 Cl   UNK N   1      35.290  10.602  14.055  0.00  0.00    -0.082 Cl
HETATM   28  C   UNK N   1      34.920  12.076  16.343  0.00  0.00     0.029 A 
HETATM   29  C   UNK N   1      35.174  13.162  17.204  0.00  0.00     0.041 A 
HETATM   30  C   UNK N   1      36.062  14.143  16.767  0.00  0.00     0.107 A 
HETATM   31  O   UNK N   1      36.462  15.242  17.405  0.00  0.00    -0.323 OA
HETATM   32  C   UNK N   1      36.673  14.073  15.582  0.00  0.00     0.133 A 
HETATM   33  C   UNK N   1      37.373  15.921  16.588  0.00  0.00     0.352 A 
HETATM   34  O   UNK N   1      37.473  15.132  15.438  0.00  0.00    -0.321 OA
ENDBRANCH  23  25
ENDBRANCH   1  23
TORSDOF 4
ENDMDL
MODEL 5
REMARK VINA RESULT:      -8.3      7.065     11.210
REMARK  4 active torsions:
REMARK  status: ('A' for Active; 'I' for Inactive)
REMARK    1  A    between atoms: C_10  and  N_11 
REMARK    2  A    between atoms: N_11  and  C_12 
REMARK       I    between atoms: C_17  and  N_18 
REMARK    3  A    between atoms: N_18  and  C_19 
REMARK    4  A    between atoms: C_23  and  N_25 
ROOT
HETATM    1  C   UNK N   1      24.499  15.185   5.751  0.00  0.00     0.122 A 
HETATM    2  C   UNK N   1      25.264  14.037   5.508  0.00  0.00     0.066 A 
HETATM    3  C   UNK N   1      26.642  14.119   5.559  0.00  0.00     0.110 A 
HETATM    4  N   UNK N   1      27.221  15.307   5.839  0.00  0.00    -0.202 N 
ATOM      5  HN  UNK N   1      28.238  15.367   5.897  1.00  0.00     0.183 HD
HETATM    6  C   UNK N   1      26.473  16.424   6.044  0.00  0.00     0.684 A 
HETATM    7  N   UNK N   1      27.116  17.622   6.411  0.00  0.00    -0.192 N 
HETATM    8  N   UNK N   1      25.119  16.368   5.997  0.00  0.00    -0.176 N 
ATOM      9  HN  UNK N   1      24.568  17.212   6.148  1.00  0.00     0.186 HD
HETATM   10  H   UNK N   1      26.847  18.481   6.013  0.00  0.00     0.184 HD
ENDROOT
BRANCH   7  11
HETATM   11  C   UNK N   1      28.158  17.563   7.362  0.00  0.00     0.051 A 
HETATM   12  C   UNK N   1      27.858  17.554   8.734  0.00  0.00     0.030 A 
HETATM   13  C   UNK N   1      28.876  17.502   9.678  0.00  0.00     0.004 A 
HETATM   14  C   UNK N   1      30.202  17.444   9.256  0.00  0.00     0.029 A 
HETATM   15  C   UNK N   1      30.517  17.441   7.884  0.00  0.00     0.032 A 
HETATM   16  C   UNK N   1      29.481  17.513   6.942  0.00  0.00     0.059 A 
BRANCH  15  17
HETATM   17  N   UNK N   1      31.871  17.379   7.454  0.00  0.00    -0.377 N 
HETATM   18  C   UNK N   1      32.912  17.960   8.298  0.00  0.00     0.149 C 
HETATM   19  C   UNK N   1      34.297  17.871   7.664  0.00  0.00     0.187 C 
HETATM   20  O   UNK N   1      34.194  18.061   6.282  0.00  0.00    -0.388 OA
HETATM   21  C   UNK N   1      33.659  16.858   5.816  0.00  0.00     0.187 C 
HETATM   22  C   UNK N   1      32.172  16.812   6.142  0.00  0.00     0.149 C 
ENDBRANCH  15  17
ENDBRANCH   7  11
BRANCH   1  23
HETATM   23  N   UNK N   1      23.086  15.135   5.676  0.00  0.00    -0.338 N 
HETATM   24  H   UNK N   1      22.641  15.062   4.801  0.00  0.00     0.167 HD
BRANCH  23  25
HETATM   25  C   UNK N   1      22.315  15.190   6.861  0.00  0.00     0.092 A 
HETATM   26  C   UNK N   1      21.564  16.340   7.158  0.00  0.00     0.063 A 
HETATM   27 Cl   UNK N   1      21.638  17.747   6.109  0.00  0.00    -0.082 Cl
HETATM   28  C   UNK N   1      20.698  16.340   8.273  0.00  0.00     0.029 A 
HETATM   29  C   UNK N   1      20.589  15.196   9.089  0.00  0.00     0.041 A 
HETATM   30  C   UNK N   1      21.369  14.089   8.761  0.00  0.00     0.107 A 
HETATM   31  O   UNK N   1      21.425  12.906   9.371  0.00  0.00    -0.323 OA
HETATM   32  C   UNK N   1      22.190  14.083   7.708  0.00  0.00     0.133 A 
HETATM   33  C   UNK N   1      22.334  12.095   8.681  0.00  0.00     0.352 A 
HETATM   34  O   UNK N   1      22.791  12.894   7.629  0.00  0.00    -0.321 OA
ENDBRANCH  23  25
ENDBRANCH   1  23
TORSDOF 4
ENDMDL
MODEL 6
REMARK VINA RESULT:      -8.2      4.027     10.796
REMARK  4 active torsions:
REMARK  status: ('A' for Active; 'I' for Inactive)
REMARK    1  A    between atoms: C_10  and  N_11 
REMARK    2  A    between atoms: N_11  and  C_12 
REMARK       I    between atoms: C_17  and  N_18 
REMARK    3  A    between atoms: N_18  and  C_19 
REMARK    4  A    between atoms: C_23  and  N_25 
ROOT
HETATM    1  C   UNK N   1      28.601  18.124   5.669  0.00  0.00     0.122 A 
HETATM    2  C   UNK N   1      28.178  18.754   6.848  0.00  0.00     0.066 A 
HETATM    3  C   UNK N   1      28.829  18.476   8.033  0.00  0.00     0.110 A 
HETATM    4  N   UNK N   1      29.858  17.601   8.031  0.00  0.00    -0.202 N 
ATOM      5  HN  UNK N   1      30.354  17.410   8.902  1.00  0.00     0.183 HD
HETATM    6  C   UNK N   1      30.244  16.971   6.890  0.00  0.00     0.684 A 
HETATM    7  N   UNK N   1      31.372  16.128   6.919  0.00  0.00    -0.192 N 
HETATM    8  N   UNK N   1      29.619  17.227   5.714  0.00  0.00    -0.176 N 
ATOM      9  HN  UNK N   1      29.913  16.745   4.865  1.00  0.00     0.186 HD
HETATM   10  H   UNK N   1      31.367  15.264   6.449  0.00  0.00     0.184 HD
ENDROOT
BRANCH   7  11
HETATM   11  C   UNK N   1      32.510  16.550   7.640  0.00  0.00     0.051 A 
HETATM   12  C   UNK N   1      33.100  17.793   7.358  0.00  0.00     0.030 A 
HETATM   13  C   UNK N   1      34.223  18.217   8.058  0.00  0.00     0.004 A 
HETATM   14  C   UNK N   1      34.757  17.404   9.056  0.00  0.00     0.029 A 
HETATM   15  C   UNK N   1      34.170  16.161   9.357  0.00  0.00     0.032 A 
HETATM   16  C   UNK N   1      33.047  15.739   8.630  0.00  0.00     0.059 A 
BRANCH  15  17
HETATM   17  N   UNK N   1      34.713  15.333  10.378  0.00  0.00    -0.377 N 
HETATM   18  C   UNK N   1      34.415  13.903  10.366  0.00  0.00     0.149 C 
HETATM   19  C   UNK N   1      35.015  13.171  11.562  0.00  0.00     0.187 C 
HETATM   20  O   UNK N   1      34.951  13.989  12.695  0.00  0.00    -0.388 OA
HETATM   21  C   UNK N   1      35.958  14.935  12.486  0.00  0.00     0.187 C 
HETATM   22  C   UNK N   1      35.483  15.951  11.454  0.00  0.00     0.149 C 
ENDBRANCH  15  17
ENDBRANCH   7  11
BRANCH   1  23
HETATM   23  N   UNK N   1      27.933  18.368   4.445  0.00  0.00    -0.338 N 
HETATM   24  H   UNK N   1      28.076  19.216   3.966  0.00  0.00     0.167 HD
BRANCH  23  25
HETATM   25  C   UNK N   1      27.058  17.392   3.913  0.00  0.00     0.092 A 
HETATM   26  C   UNK N   1      25.667  17.547   4.048  0.00  0.00     0.063 A 
HETATM   27 Cl   UNK N   1      25.005  18.902   4.946  0.00  0.00    -0.082 Cl
HETATM   28  C   UNK N   1      24.799  16.638   3.404  0.00  0.00     0.029 A 
HETATM   29  C   UNK N   1      25.320  15.579   2.635  0.00  0.00     0.041 A 
HETATM   30  C   UNK N   1      26.706  15.461   2.548  0.00  0.00     0.107 A 
HETATM   31  O   UNK N   1      27.420  14.558   1.877  0.00  0.00    -0.323 OA
HETATM   32  C   UNK N   1      27.533  16.316   3.154  0.00  0.00     0.133 A 
HETATM   33  C   UNK N   1      28.778  14.841   2.064  0.00  0.00     0.352 A 
HETATM   34  O   UNK N   1      28.794  15.972   2.885  0.00  0.00    -0.321 OA
ENDBRANCH  23  25
ENDBRANCH   1  23
TORSDOF 4
ENDMDL
MODEL 7
REMARK VINA RESULT:      -8.2      2.943      4.673
REMARK  4 active torsions:
REMARK  status: ('A' for Active; 'I' for Inactive)
REMARK    1  A    between atoms: C_10  and  N_11 
REMARK    2  A    between atoms: N_11  and  C_12 
REMARK       I    between atoms: C_17  and  N_18 
REMARK    3  A    between atoms: N_18  and  C_19 
REMARK    4  A    between atoms: C_23  and  N_25 
ROOT
HETATM    1  C   UNK N   1      35.802  11.126  15.022  0.00  0.00     0.122 A 
HETATM    2  C   UNK N   1      34.744  10.418  14.436  0.00  0.00     0.066 A 
HETATM    3  C   UNK N   1      34.117  10.940  13.322  0.00  0.00     0.110 A 
HETATM    4  N   UNK N   1      34.537  12.123  12.822  0.00  0.00    -0.202 N 
ATOM      5  HN  UNK N   1      34.089  12.501  11.987  1.00  0.00     0.183 HD
HETATM    6  C   UNK N   1      35.544  12.819  13.414  0.00  0.00     0.684 A 
HETATM    7  N   UNK N   1      36.001  14.008  12.814  0.00  0.00    -0.192 N 
HETATM    8  N   UNK N   1      36.173  12.327  14.510  0.00  0.00    -0.176 N 
ATOM      9  HN  UNK N   1      36.924  12.860  14.949  1.00  0.00     0.186 HD
HETATM   10  H   UNK N   1      36.205  14.802  13.359  0.00  0.00     0.184 HD
ENDROOT
BRANCH   7  11
HETATM   11  C   UNK N   1      36.160  14.036  11.412  0.00  0.00     0.051 A 
HETATM   12  C   UNK N   1      37.000  13.105  10.780  0.00  0.00     0.030 A 
HETATM   13  C   UNK N   1      37.169  13.127   9.401  0.00  0.00     0.004 A 
HETATM   14  C   UNK N   1      36.485  14.074   8.641  0.00  0.00     0.029 A 
HETATM   15  C   UNK N   1      35.631  15.006   9.259  0.00  0.00     0.032 A 
HETATM   16  C   UNK N   1      35.485  14.984  10.654  0.00  0.00     0.059 A 
BRANCH  15  17
HETATM   17  N   UNK N   1      34.931  15.971   8.483  0.00  0.00    -0.377 N 
HETATM   18  C   UNK N   1      34.708  15.712   7.062  0.00  0.00     0.149 C 
HETATM   19  C   UNK N   1      34.005  16.871   6.361  0.00  0.00     0.187 C 
HETATM   20  O   UNK N   1      34.459  18.084   6.888  0.00  0.00    -0.388 OA
HETATM   21  C   UNK N   1      33.831  18.166   8.134  0.00  0.00     0.187 C 
HETATM   22  C   UNK N   1      34.531  17.228   9.109  0.00  0.00     0.149 C 
ENDBRANCH  15  17
ENDBRANCH   7  11
BRANCH   1  23
HETATM   23  N   UNK N   1      36.442  10.628  16.183  0.00  0.00    -0.338 N 
HETATM   24  H   UNK N   1      37.287  10.130  16.104  0.00  0.00     0.167 HD
BRANCH  23  25
HETATM   25  C   UNK N   1      35.865  10.849  17.456  0.00  0.00     0.092 A 
HETATM   26  C   UNK N   1      35.665   9.768  18.333  0.00  0.00     0.063 A 
HETATM   27 Cl   UNK N   1      36.050   8.130  17.830  0.00  0.00    -0.082 Cl
HETATM   28  C   UNK N   1      35.210  10.012  19.647  0.00  0.00     0.029 A 
HETATM   29  C   UNK N   1      34.951  11.328  20.078  0.00  0.00     0.041 A 
HETATM   30  C   UNK N   1      35.149  12.361  19.164  0.00  0.00     0.107 A 
HETATM   31  O   UNK N   1      34.983  13.670  19.345  0.00  0.00    -0.323 OA
HETATM   32  C   UNK N   1      35.579  12.138  17.920  0.00  0.00     0.133 A 
HETATM   33  C   UNK N   1      35.318  14.327  18.155  0.00  0.00     0.352 A 
HETATM   34  O   UNK N   1      35.692  13.304  17.280  0.00  0.00    -0.321 OA
ENDBRANCH  23  25
ENDBRANCH   1  23
TORSDOF 4
ENDMDL
MODEL 8
REMARK VINA RESULT:      -8.1      6.978     10.770
REMARK  4 active torsions:
REMARK  status: ('A' for Active; 'I' for Inactive)
REMARK    1  A    between atoms: C_10  and  N_11 
REMARK    2  A    between atoms: N_11  and  C_12 
REMARK       I    between atoms: C_17  and  N_18 
REMARK    3  A    between atoms: N_18  and  C_19 
REMARK    4  A    between atoms: C_23  and  N_25 
ROOT
HETATM    1  C   UNK N   1      28.504  18.049   6.328  0.00  0.00     0.122 A 
HETATM    2  C   UNK N   1      28.202  19.074   7.236  0.00  0.00     0.066 A 
HETATM    3  C   UNK N   1      27.318  20.067   6.864  0.00  0.00     0.110 A 
HETATM    4  N   UNK N   1      26.765  20.030   5.632  0.00  0.00    -0.202 N 
ATOM      5  HN  UNK N   1      26.095  20.751   5.362  1.00  0.00     0.183 HD
HETATM    6  C   UNK N   1      27.085  19.049   4.746  0.00  0.00     0.684 A 
HETATM    7  N   UNK N   1      26.425  19.006   3.503  0.00  0.00    -0.192 N 
HETATM    8  N   UNK N   1      27.953  18.065   5.088  0.00  0.00    -0.176 N 
ATOM      9  HN  UNK N   1      28.189  17.337   4.414  1.00  0.00     0.186 HD
HETATM   10  H   UNK N   1      26.921  18.815   2.675  0.00  0.00     0.184 HD
ENDROOT
BRANCH   7  11
HETATM   11  C   UNK N   1      25.034  19.243   3.471  0.00  0.00     0.051 A 
HETATM   12  C   UNK N   1      24.529  20.387   2.832  0.00  0.00     0.030 A 
HETATM   13  C   UNK N   1      23.162  20.633   2.800  0.00  0.00     0.004 A 
HETATM   14  C   UNK N   1      22.288  19.726   3.395  0.00  0.00     0.029 A 
HETATM   15  C   UNK N   1      22.777  18.570   4.029  0.00  0.00     0.032 A 
HETATM   16  C   UNK N   1      24.161  18.344   4.070  0.00  0.00     0.059 A 
BRANCH  15  17
HETATM   17  N   UNK N   1      21.884  17.643   4.634  0.00  0.00    -0.377 N 
HETATM   18  C   UNK N   1      22.344  16.855   5.774  0.00  0.00     0.149 C 
HETATM   19  C   UNK N   1      21.291  15.863   6.262  0.00  0.00     0.187 C 
HETATM   20  O   UNK N   1      20.588  15.348   5.168  0.00  0.00    -0.388 OA
HETATM   21  C   UNK N   1      19.746  16.394   4.785  0.00  0.00     0.187 C 
HETATM   22  C   UNK N   1      20.562  17.447   4.045  0.00  0.00     0.149 C 
ENDBRANCH  15  17
ENDBRANCH   7  11
BRANCH   1  23
HETATM   23  N   UNK N   1      29.430  17.035   6.673  0.00  0.00    -0.338 N 
HETATM   24  H   UNK N   1      29.108  16.160   6.986  0.00  0.00     0.167 HD
BRANCH  23  25
HETATM   25  C   UNK N   1      30.819  17.283   6.567  0.00  0.00     0.092 A 
HETATM   26  C   UNK N   1      31.581  17.520   7.724  0.00  0.00     0.063 A 
HETATM   27 Cl   UNK N   1      30.808  17.593   9.299  0.00  0.00    -0.082 Cl
HETATM   28  C   UNK N   1      32.984  17.638   7.623  0.00  0.00     0.029 A 
HETATM   29  C   UNK N   1      33.619  17.526   6.371  0.00  0.00     0.041 A 
HETATM   30  C   UNK N   1      32.817  17.308   5.253  0.00  0.00     0.107 A 
HETATM   31  O   UNK N   1      33.188  17.159   3.982  0.00  0.00    -0.323 OA
HETATM   32  C   UNK N   1      31.489  17.196   5.341  0.00  0.00     0.133 A 
HETATM   33  C   UNK N   1      32.042  16.944   3.209  0.00  0.00     0.352 A 
HETATM   34  O   UNK N   1      30.986  16.976   4.124  0.00  0.00    -0.321 OA
ENDBRANCH  23  25
ENDBRANCH   1  23
TORSDOF 4
ENDMDL
MODEL 9
REMARK VINA RESULT:      -8.0      7.622     11.924
REMARK  4 active torsions:
REMARK  status: ('A' for Active; 'I' for Inactive)
REMARK    1  A    between atoms: C_10  and  N_11 
REMARK    2  A    between atoms: N_11  and  C_12 
REMARK       I    between atoms: C_17  and  N_18 
REMARK    3  A    between atoms: N_18  and  C_19 
REMARK    4  A    between atoms: C_23  and  N_25 
ROOT
HETATM    1  C   UNK N   1      25.916  18.879   4.597  0.00  0.00     0.122 A 
HETATM    2  C   UNK N   1      26.431  20.169   4.413  0.00  0.00     0.066 A 
HETATM    3  C   UNK N   1      27.446  20.615   5.235  0.00  0.00     0.110 A 
HETATM    4  N   UNK N   1      27.919  19.798   6.202  0.00  0.00    -0.202 N 
ATOM      5  HN  UNK N   1      28.683  20.117   6.798  1.00  0.00     0.183 HD
HETATM    6  C   UNK N   1      27.394  18.558   6.394  0.00  0.00     0.684 A 
HETATM    7  N   UNK N   1      27.971  17.712   7.361  0.00  0.00    -0.192 N 
HETATM    8  N   UNK N   1      26.395  18.100   5.600  0.00  0.00    -0.176 N 
ATOM      9  HN  UNK N   1      26.006  17.170   5.756  1.00  0.00     0.186 HD
HETATM   10  H   UNK N   1      27.406  17.173   7.960  0.00  0.00     0.184 HD
ENDROOT
BRANCH   7  11
HETATM   11  C   UNK N   1      29.378  17.654   7.451  0.00  0.00     0.051 A 
HETATM   12  C   UNK N   1      30.027  18.093   8.616  0.00  0.00     0.030 A 
HETATM   13  C   UNK N   1      31.413  18.046   8.714  0.00  0.00     0.004 A 
HETATM   14  C   UNK N   1      32.158  17.545   7.649  0.00  0.00     0.029 A 
HETATM   15  C   UNK N   1      31.522  17.090   6.480  0.00  0.00     0.032 A 
HETATM   16  C   UNK N   1      30.124  17.161   6.388  0.00  0.00     0.059 A 
BRANCH  15  17
HETATM   17  N   UNK N   1      32.284  16.576   5.394  0.00  0.00    -0.377 N 
HETATM   18  C   UNK N   1      32.227  17.255   4.102  0.00  0.00     0.149 C 
HETATM   19  C   UNK N   1      33.044  16.541   3.030  0.00  0.00     0.187 C 
HETATM   20  O   UNK N   1      32.947  15.157   3.208  0.00  0.00    -0.388 OA
HETATM   21  C   UNK N   1      33.761  14.901   4.315  0.00  0.00     0.187 C 
HETATM   22  C   UNK N   1      33.035  15.337   5.581  0.00  0.00     0.149 C 
ENDBRANCH  15  17
ENDBRANCH   7  11
BRANCH   1  23
HETATM   23  N   UNK N   1      24.855  18.407   3.787  0.00  0.00    -0.338 N 
HETATM   24  H   UNK N   1      25.020  18.176   2.844  0.00  0.00     0.167 HD
BRANCH  23  25
HETATM   25  C   UNK N   1      23.557  18.270   4.333  0.00  0.00     0.092 A 
HETATM   26  C   UNK N   1      22.527  19.135   3.924  0.00  0.00     0.063 A 
HETATM   27 Cl   UNK N   1      22.857  20.441   2.798  0.00  0.00    -0.082 Cl
HETATM   28  C   UNK N   1      21.208  18.912   4.376  0.00  0.00     0.029 A 
HETATM   29  C   UNK N   1      20.924  17.833   5.236  0.00  0.00     0.041 A 
HETATM   30  C   UNK N   1      21.984  17.016   5.625  0.00  0.00     0.107 A 
HETATM   31  O   UNK N   1      21.956  15.943   6.414  0.00  0.00    -0.323 OA
HETATM   32  C   UNK N   1      23.233  17.222   5.203  0.00  0.00     0.133 A 
HETATM   33  C   UNK N   1      23.255  15.432   6.510  0.00  0.00     0.352 A 
HETATM   34  O   UNK N   1      24.030  16.284   5.718  0.00  0.00    -0.321 OA
ENDBRANCH  23  25
ENDBRANCH   1  23
TORSDOF 4
ENDMDL
