MODEL 1
REMARK VINA RESULT:      -8.1      0.000      0.000
REMARK  4 active torsions:
REMARK  status: ('A' for Active; 'I' for Inactive)
REMARK       I    between atoms: N_1  and  C_2 
REMARK    1  A    between atoms: N_1  and  C_28 
REMARK    2  A    between atoms: C_7  and  N_8 
REMARK    3  A    between atoms: N_8  and  C_9 
REMARK       I    between atoms: N_21  and  C_22 
REMARK    4  A    between atoms: C_22  and  C_24 
ROOT
HETATM    1  N   UNK N   1      33.962  14.293  11.096  0.00  0.00    -0.192 N 
HETATM    2  C   UNK N   1      35.124  13.513  11.311  0.00  0.00     0.684 A 
HETATM    3  N   UNK N   1      35.703  12.867  10.259  0.00  0.00    -0.202 N 
ATOM      4  HN  UNK N   1      35.306  12.976   9.327  1.00  0.00     0.183 HD
HETATM    5  C   UNK N   1      36.793  12.086  10.427  0.00  0.00     0.110 A 
HETATM    6  C   UNK N   1      37.344  11.946  11.689  0.00  0.00     0.066 A 
HETATM    7  C   UNK N   1      36.767  12.630  12.764  0.00  0.00     0.122 A 
HETATM    8  N   UNK N   1      35.650  13.380  12.559  0.00  0.00    -0.176 N 
ATOM      9  HN  UNK N   1      35.202  13.847  13.348  1.00  0.00     0.186 HD
HETATM   10  H   UNK N   1      33.365  14.508  11.849  0.00  0.00     0.184 HD
ENDROOT
BRANCH   1  11
HETATM   11  C   UNK N   1      33.660  14.761   9.794  0.00  0.00     0.050 A 
HETATM   12  C   UNK N   1      32.716  14.082   9.006  0.00  0.00     0.030 A 
HETATM   13  C   UNK N   1      32.344  14.584   7.762  0.00  0.00     0.003 A 
HETATM   14  C   UNK N   1      32.884  15.787   7.310  0.00  0.00     0.017 A 
HETATM   15  C   UNK N   1      33.822  16.481   8.089  0.00  0.00     0.034 A 
HETATM   16  C   UNK N   1      34.217  15.955   9.330  0.00  0.00     0.047 A 
BRANCH  15  17
HETATM   17  C   UNK N   1      34.347  17.780   7.624  0.00  0.00     0.249 C 
HETATM   18  N   UNK N   1      34.812  18.684   8.511  0.00  0.00    -0.366 N 
HETATM   19  H   UNK N   1      35.333  19.465   8.211  0.00  0.00     0.159 HD
HETATM   20  H   UNK N   1      34.630  18.562   9.470  0.00  0.00     0.159 HD
HETATM   21  O   UNK N   1      34.339  18.054   6.434  0.00  0.00    -0.268 OA
ENDBRANCH  15  17
ENDBRANCH   1  11
BRANCH   7  22
HETATM   22  N   UNK N   1      37.298  12.502  14.075  0.00  0.00    -0.338 N 
HETATM   23  H   UNK N   1      38.208  12.138  14.164  0.00  0.00     0.167 HD
BRANCH  22  24
HETATM   24  C   UNK N   1      36.614  12.862  15.276  0.00  0.00     0.092 A 
HETATM   25  C   UNK N   1      36.798  14.101  15.922  0.00  0.00     0.133 A 
HETATM   26  O   UNK N   1      37.561  15.137  15.567  0.00  0.00    -0.321 OA
HETATM   27  C   UNK N   1      36.156  14.410  17.057  0.00  0.00     0.107 A 
HETATM   28  C   UNK N   1      37.421  16.148  16.522  0.00  0.00     0.352 A 
HETATM   29  O   UNK N   1      36.514  15.632  17.449  0.00  0.00    -0.323 OA
HETATM   30  C   UNK N   1      35.263  13.541  17.672  0.00  0.00     0.041 A 
HETATM   31  C   UNK N   1      35.029  12.300  17.055  0.00  0.00     0.029 A 
HETATM   32  C   UNK N   1      35.696  11.961  15.856  0.00  0.00     0.063 A 
HETATM   33 Cl   UNK N   1      35.385  10.398  15.118  0.00  0.00    -0.082 Cl
ENDBRANCH  22  24
ENDBRANCH   7  22
TORSDOF 4
ENDMDL
MODEL 2
REMARK VINA RESULT:      -8.1      1.860      2.418
REMARK  4 active torsions:
REMARK  status: ('A' for Active; 'I' for Inactive)
REMARK       I    between atoms: N_1  and  C_2 
REMARK    1  A    between atoms: N_1  and  C_28 
REMARK    2  A    between atoms: C_7  and  N_8 
REMARK    3  A    between atoms: N_8  and  C_9 
REMARK       I    between atoms: N_21  and  C_22 
REMARK    4  A    between atoms: C_22  and  C_24 
ROOT
HETATM    1  N   UNK N   1      33.995  14.399  11.125  0.00  0.00    -0.192 N 
HETATM    2  C   UNK N   1      35.196  13.682  11.349  0.00  0.00     0.684 A 
HETATM    3  N   UNK N   1      35.809  13.057  10.305  0.00  0.00    -0.202 N 
ATOM      4  HN  UNK N   1      35.408  13.136   9.371  1.00  0.00     0.183 HD
HETATM    5  C   UNK N   1      36.938  12.335  10.482  0.00  0.00     0.110 A 
HETATM    6  C   UNK N   1      37.493  12.236  11.746  0.00  0.00     0.066 A 
HETATM    7  C   UNK N   1      36.880  12.900  12.813  0.00  0.00     0.122 A 
HETATM    8  N   UNK N   1      35.726  13.589  12.600  0.00  0.00    -0.176 N 
ATOM      9  HN  UNK N   1      35.253  14.040  13.384  1.00  0.00     0.186 HD
HETATM   10  H   UNK N   1      33.386  14.590  11.876  0.00  0.00     0.184 HD
ENDROOT
BRANCH   1  11
HETATM   11  C   UNK N   1      33.671  14.838   9.818  0.00  0.00     0.050 A 
HETATM   12  C   UNK N   1      32.720  14.137   9.059  0.00  0.00     0.030 A 
HETATM   13  C   UNK N   1      32.327  14.610   7.810  0.00  0.00     0.003 A 
HETATM   14  C   UNK N   1      32.854  15.807   7.325  0.00  0.00     0.017 A 
HETATM   15  C   UNK N   1      33.799  16.522   8.076  0.00  0.00     0.034 A 
HETATM   16  C   UNK N   1      34.215  16.025   9.322  0.00  0.00     0.047 A 
BRANCH  15  17
HETATM   17  C   UNK N   1      34.309  17.814   7.576  0.00  0.00     0.249 C 
HETATM   18  N   UNK N   1      34.775  18.742   8.437  0.00  0.00    -0.366 N 
HETATM   19  H   UNK N   1      35.287  19.520   8.115  0.00  0.00     0.159 HD
HETATM   20  H   UNK N   1      34.602  18.641   9.401  0.00  0.00     0.159 HD
HETATM   21  O   UNK N   1      34.289  18.060   6.380  0.00  0.00    -0.268 OA
ENDBRANCH  15  17
ENDBRANCH   1  11
BRANCH   7  22
HETATM   22  N   UNK N   1      37.414  12.813  14.126  0.00  0.00    -0.338 N 
HETATM   23  H   UNK N   1      38.393  12.768  14.217  0.00  0.00     0.167 HD
BRANCH  22  24
HETATM   24  C   UNK N   1      36.642  12.786  15.327  0.00  0.00     0.092 A 
HETATM   25  C   UNK N   1      35.988  11.628  15.794  0.00  0.00     0.133 A 
HETATM   26  O   UNK N   1      35.976  10.397  15.279  0.00  0.00    -0.321 OA
HETATM   27  C   UNK N   1      35.256  11.632  16.917  0.00  0.00     0.107 A 
HETATM   28  C   UNK N   1      35.187   9.577  16.092  0.00  0.00     0.352 A 
HETATM   29  O   UNK N   1      34.754  10.415  17.121  0.00  0.00    -0.323 OA
HETATM   30  C   UNK N   1      35.095  12.768  17.701  0.00  0.00     0.041 A 
HETATM   31  C   UNK N   1      35.744  13.944  17.288  0.00  0.00     0.029 A 
HETATM   32  C   UNK N   1      36.522  13.956  16.109  0.00  0.00     0.063 A 
HETATM   33 Cl   UNK N   1      37.312  15.446  15.621  0.00  0.00    -0.082 Cl
ENDBRANCH  22  24
ENDBRANCH   7  22
TORSDOF 4
ENDMDL
MODEL 3
REMARK VINA RESULT:      -7.8      3.535      4.642
REMARK  4 active torsions:
REMARK  status: ('A' for Active; 'I' for Inactive)
REMARK       I    between atoms: N_1  and  C_2 
REMARK    1  A    between atoms: N_1  and  C_28 
REMARK    2  A    between atoms: C_7  and  N_8 
REMARK    3  A    between atoms: N_8  and  C_9 
REMARK       I    between atoms: N_21  and  C_22 
REMARK    4  A    between atoms: C_22  and  C_24 
ROOT
HETATM    1  N   UNK N   1      32.612  14.709   9.016  0.00  0.00    -0.192 N 
HETATM    2  C   UNK N   1      33.692  15.108   9.841  0.00  0.00     0.684 A 
HETATM    3  N   UNK N   1      34.196  16.369   9.724  0.00  0.00    -0.202 N 
ATOM      4  HN  UNK N   1      33.770  17.017   9.062  1.00  0.00     0.183 HD
HETATM    5  C   UNK N   1      35.248  16.778  10.466  0.00  0.00     0.110 A 
HETATM    6  C   UNK N   1      35.821  15.906  11.376  0.00  0.00     0.066 A 
HETATM    7  C   UNK N   1      35.287  14.621  11.516  0.00  0.00     0.122 A 
HETATM    8  N   UNK N   1      34.249  14.236  10.725  0.00  0.00    -0.176 N 
ATOM      9  HN  UNK N   1      33.884  13.286  10.796  1.00  0.00     0.186 HD
HETATM   10  H   UNK N   1      32.436  13.753   8.860  0.00  0.00     0.184 HD
ENDROOT
BRANCH   1  11
HETATM   11  C   UNK N   1      31.786  15.690   8.416  0.00  0.00     0.050 A 
HETATM   12  C   UNK N   1      31.692  15.766   7.017  0.00  0.00     0.030 A 
HETATM   13  C   UNK N   1      30.814  16.665   6.416  0.00  0.00     0.003 A 
HETATM   14  C   UNK N   1      29.998  17.471   7.209  0.00  0.00     0.017 A 
HETATM   15  C   UNK N   1      30.074  17.400   8.608  0.00  0.00     0.034 A 
HETATM   16  C   UNK N   1      30.983  16.513   9.209  0.00  0.00     0.047 A 
BRANCH  15  17
HETATM   17  C   UNK N   1      29.168  18.219   9.436  0.00  0.00     0.249 C 
HETATM   18  N   UNK N   1      27.844  18.243   9.178  0.00  0.00    -0.366 N 
HETATM   19  H   UNK N   1      27.209  18.627   9.826  0.00  0.00     0.159 HD
HETATM   20  H   UNK N   1      27.507  17.872   8.331  0.00  0.00     0.159 HD
HETATM   21  O   UNK N   1      29.615  18.900  10.346  0.00  0.00    -0.268 OA
ENDBRANCH  15  17
ENDBRANCH   1  11
BRANCH   7  22
HETATM   22  N   UNK N   1      35.855  13.695  12.432  0.00  0.00    -0.338 N 
HETATM   23  H   UNK N   1      36.801  13.815  12.672  0.00  0.00     0.167 HD
BRANCH  22  24
HETATM   24  C   UNK N   1      35.159  12.602  13.031  0.00  0.00     0.092 A 
HETATM   25  C   UNK N   1      34.609  11.540  12.285  0.00  0.00     0.133 A 
HETATM   26  O   UNK N   1      34.644  11.322  10.969  0.00  0.00    -0.321 OA
HETATM   27  C   UNK N   1      33.947  10.532  12.870  0.00  0.00     0.107 A 
HETATM   28  C   UNK N   1      33.959  10.136  10.690  0.00  0.00     0.352 A 
HETATM   29  O   UNK N   1      33.535   9.673  11.938  0.00  0.00    -0.323 OA
HETATM   30  C   UNK N   1      33.761  10.457  14.244  0.00  0.00     0.041 A 
HETATM   31  C   UNK N   1      34.309  11.481  15.035  0.00  0.00     0.029 A 
HETATM   32  C   UNK N   1      35.013  12.549  14.434  0.00  0.00     0.063 A 
HETATM   33 Cl   UNK N   1      35.676  13.816  15.453  0.00  0.00    -0.082 Cl
ENDBRANCH  22  24
ENDBRANCH   7  22
TORSDOF 4
ENDMDL
MODEL 4
REMARK VINA RESULT:      -7.8      2.718      3.311
REMARK  4 active torsions:
REMARK  status: ('A' for Active; 'I' for Inactive)
REMARK       I    between atoms: N_1  and  C_2 
REMARK    1  A    between atoms: N_1  and  C_28 
REMARK    2  A    between atoms: C_7  and  N_8 
REMARK    3  A    between atoms: N_8  and  C_9 
REMARK       I    between atoms: N_21  and  C_22 
REMARK    4  A    between atoms: C_22  and  C_24 
ROOT
HETATM    1  N   UNK N   1      32.575  14.544   8.843  0.00  0.00    -0.192 N 
HETATM    2  C   UNK N   1      33.705  14.794   9.660  0.00  0.00     0.684 A 
HETATM    3  N   UNK N   1      34.308  16.015   9.617  0.00  0.00    -0.202 N 
ATOM      4  HN  UNK N   1      33.920  16.743   9.017  1.00  0.00     0.183 HD
HETATM    5  C   UNK N   1      35.408  16.283  10.355  0.00  0.00     0.110 A 
HETATM    6  C   UNK N   1      35.930  15.304  11.181  0.00  0.00     0.066 A 
HETATM    7  C   UNK N   1      35.296  14.059  11.247  0.00  0.00     0.122 A 
HETATM    8  N   UNK N   1      34.210  13.818  10.463  0.00  0.00    -0.176 N 
ATOM      9  HN  UNK N   1      33.771  12.897  10.477  1.00  0.00     0.186 HD
HETATM   10  H   UNK N   1      32.318  13.619   8.625  0.00  0.00     0.184 HD
ENDROOT
BRANCH   1  11
HETATM   11  C   UNK N   1      31.818  15.630   8.339  0.00  0.00     0.050 A 
HETATM   12  C   UNK N   1      31.823  15.909   6.963  0.00  0.00     0.030 A 
HETATM   13  C   UNK N   1      31.011  16.915   6.444  0.00  0.00     0.003 A 
HETATM   14  C   UNK N   1      30.164  17.627   7.292  0.00  0.00     0.017 A 
HETATM   15  C   UNK N   1      30.142  17.355   8.668  0.00  0.00     0.034 A 
HETATM   16  C   UNK N   1      30.985  16.359   9.190  0.00  0.00     0.047 A 
BRANCH  15  17
HETATM   17  C   UNK N   1      29.203  18.078   9.546  0.00  0.00     0.249 C 
HETATM   18  N   UNK N   1      27.886  18.115   9.253  0.00  0.00    -0.366 N 
HETATM   19  H   UNK N   1      27.229  18.427   9.918  0.00  0.00     0.159 HD
HETATM   20  H   UNK N   1      27.578  17.827   8.364  0.00  0.00     0.159 HD
HETATM   21  O   UNK N   1      29.616  18.670  10.531  0.00  0.00    -0.268 OA
ENDBRANCH  15  17
ENDBRANCH   1  11
BRANCH   7  22
HETATM   22  N   UNK N   1      35.808  13.025  12.076  0.00  0.00    -0.338 N 
HETATM   23  H   UNK N   1      36.442  12.391  11.671  0.00  0.00     0.167 HD
BRANCH  22  24
HETATM   24  C   UNK N   1      35.476  12.836  13.451  0.00  0.00     0.092 A 
HETATM   25  C   UNK N   1      36.006  13.632  14.486  0.00  0.00     0.133 A 
HETATM   26  O   UNK N   1      36.839  14.672  14.412  0.00  0.00    -0.321 OA
HETATM   27  C   UNK N   1      35.690  13.425  15.772  0.00  0.00     0.107 A 
HETATM   28  C   UNK N   1      37.087  15.144  15.705  0.00  0.00     0.352 A 
HETATM   29  O   UNK N   1      36.329  14.313  16.533  0.00  0.00    -0.323 OA
HETATM   30  C   UNK N   1      34.818  12.422  16.176  0.00  0.00     0.041 A 
HETATM   31  C   UNK N   1      34.245  11.614  15.179  0.00  0.00     0.029 A 
HETATM   32  C   UNK N   1      34.566  11.821  13.819  0.00  0.00     0.063 A 
HETATM   33 Cl   UNK N   1      33.838  10.786  12.602  0.00  0.00    -0.082 Cl
ENDBRANCH  22  24
ENDBRANCH   7  22
TORSDOF 4
ENDMDL
MODEL 5
REMARK VINA RESULT:      -7.8      2.737      3.494
REMARK  4 active torsions:
REMARK  status: ('A' for Active; 'I' for Inactive)
REMARK       I    between atoms: N_1  and  C_2 
REMARK    1  A    between atoms: N_1  and  C_28 
REMARK    2  A    between atoms: C_7  and  N_8 
REMARK    3  A    between atoms: N_8  and  C_9 
REMARK       I    between atoms: N_21  and  C_22 
REMARK    4  A    between atoms: C_22  and  C_24 
ROOT
HETATM    1  N   UNK N   1      33.405  15.550  10.289  0.00  0.00    -0.192 N 
HETATM    2  C   UNK N   1      34.674  14.941  10.446  0.00  0.00     0.684 A 
HETATM    3  N   UNK N   1      35.384  14.572   9.343  0.00  0.00    -0.202 N 
ATOM      4  HN  UNK N   1      35.002  14.765   8.417  1.00  0.00     0.183 HD
HETATM    5  C   UNK N   1      36.582  13.958   9.450  0.00  0.00     0.110 A 
HETATM    6  C   UNK N   1      37.110  13.706  10.704  0.00  0.00     0.066 A 
HETATM    7  C   UNK N   1      36.396  14.109  11.837  0.00  0.00     0.122 A 
HETATM    8  N   UNK N   1      35.176  14.695  11.687  0.00  0.00    -0.176 N 
ATOM      9  HN  UNK N   1      34.634  14.952  12.512  1.00  0.00     0.186 HD
HETATM   10  H   UNK N   1      32.758  15.544  11.031  0.00  0.00     0.184 HD
ENDROOT
BRANCH   1  11
HETATM   11  C   UNK N   1      33.069  16.167   9.059  0.00  0.00     0.050 A 
HETATM   12  C   UNK N   1      33.747  17.326   8.648  0.00  0.00     0.030 A 
HETATM   13  C   UNK N   1      33.491  17.888   7.401  0.00  0.00     0.003 A 
HETATM   14  C   UNK N   1      32.581  17.277   6.539  0.00  0.00     0.017 A 
HETATM   15  C   UNK N   1      31.902  16.114   6.931  0.00  0.00     0.034 A 
HETATM   16  C   UNK N   1      32.142  15.567   8.203  0.00  0.00     0.047 A 
BRANCH  15  17
HETATM   17  C   UNK N   1      30.982  15.446   5.990  0.00  0.00     0.249 C 
HETATM   18  N   UNK N   1      30.985  14.102   5.871  0.00  0.00    -0.366 N 
HETATM   19  H   UNK N   1      30.260  13.635   5.396  0.00  0.00     0.159 HD
HETATM   20  H   UNK N   1      31.722  13.582   6.264  0.00  0.00     0.159 HD
HETATM   21  O   UNK N   1      30.229  16.109   5.294  0.00  0.00    -0.268 OA
ENDBRANCH  15  17
ENDBRANCH   1  11
BRANCH   7  22
HETATM   22  N   UNK N   1      36.900  13.860  13.141  0.00  0.00    -0.338 N 
HETATM   23  H   UNK N   1      37.850  14.056  13.306  0.00  0.00     0.167 HD
BRANCH  22  24
HETATM   24  C   UNK N   1      36.136  13.346  14.232  0.00  0.00     0.092 A 
HETATM   25  C   UNK N   1      35.220  12.284  14.096  0.00  0.00     0.133 A 
HETATM   26  O   UNK N   1      34.915  11.562  13.016  0.00  0.00    -0.321 OA
HETATM   27  C   UNK N   1      34.503  11.829  15.133  0.00  0.00     0.107 A 
HETATM   28  C   UNK N   1      33.947  10.616  13.365  0.00  0.00     0.352 A 
HETATM   29  O   UNK N   1      33.721  10.830  14.726  0.00  0.00    -0.323 OA
HETATM   30  C   UNK N   1      34.615  12.363  16.411  0.00  0.00     0.041 A 
HETATM   31  C   UNK N   1      35.531  13.411  16.604  0.00  0.00     0.029 A 
HETATM   32  C   UNK N   1      36.297  13.899  15.521  0.00  0.00     0.063 A 
HETATM   33 Cl   UNK N   1      37.425  15.216  15.798  0.00  0.00    -0.082 Cl
ENDBRANCH  22  24
ENDBRANCH   7  22
TORSDOF 4
ENDMDL
MODEL 6
REMARK VINA RESULT:      -7.8      3.329      4.544
REMARK  4 active torsions:
REMARK  status: ('A' for Active; 'I' for Inactive)
REMARK       I    between atoms: N_1  and  C_2 
REMARK    1  A    between atoms: N_1  and  C_28 
REMARK    2  A    between atoms: C_7  and  N_8 
REMARK    3  A    between atoms: N_8  and  C_9 
REMARK       I    between atoms: N_21  and  C_22 
REMARK    4  A    between atoms: C_22  and  C_24 
ROOT
HETATM    1  N   UNK N   1      32.505  14.662   9.382  0.00  0.00    -0.192 N 
HETATM    2  C   UNK N   1      33.646  15.129  10.080  0.00  0.00     0.684 A 
HETATM    3  N   UNK N   1      34.201  16.325   9.737  0.00  0.00    -0.202 N 
ATOM      4  HN  UNK N   1      33.771  16.881   8.997  1.00  0.00     0.183 HD
HETATM    5  C   UNK N   1      35.309  16.790  10.354  0.00  0.00     0.110 A 
HETATM    6  C   UNK N   1      35.889  16.045  11.367  0.00  0.00     0.066 A 
HETATM    7  C   UNK N   1      35.304  14.831  11.740  0.00  0.00     0.122 A 
HETATM    8  N   UNK N   1      34.208  14.381  11.070  0.00  0.00    -0.176 N 
ATOM      9  HN  UNK N   1      33.803  13.476  11.311  1.00  0.00     0.186 HD
HETATM   10  H   UNK N   1      32.277  13.705   9.393  0.00  0.00     0.184 HD
ENDROOT
BRANCH   1  11
HETATM   11  C   UNK N   1      31.695  15.578   8.667  0.00  0.00     0.050 A 
HETATM   12  C   UNK N   1      31.601  15.487   7.269  0.00  0.00     0.030 A 
HETATM   13  C   UNK N   1      30.738  16.322   6.564  0.00  0.00     0.003 A 
HETATM   14  C   UNK N   1      29.936  17.231   7.254  0.00  0.00     0.017 A 
HETATM   15  C   UNK N   1      30.013  17.328   8.651  0.00  0.00     0.034 A 
HETATM   16  C   UNK N   1      30.908  16.504   9.355  0.00  0.00     0.047 A 
BRANCH  15  17
HETATM   17  C   UNK N   1      29.122  18.255   9.374  0.00  0.00     0.249 C 
HETATM   18  N   UNK N   1      27.816  18.341   9.046  0.00  0.00    -0.366 N 
HETATM   19  H   UNK N   1      27.177  18.807   9.633  0.00  0.00     0.159 HD
HETATM   20  H   UNK N   1      27.498  17.933   8.209  0.00  0.00     0.159 HD
HETATM   21  O   UNK N   1      29.567  18.971  10.258  0.00  0.00    -0.268 OA
ENDBRANCH  15  17
ENDBRANCH   1  11
BRANCH   7  22
HETATM   22  N   UNK N   1      35.876  14.034  12.767  0.00  0.00    -0.338 N 
HETATM   23  H   UNK N   1      36.199  14.496  13.573  0.00  0.00     0.167 HD
BRANCH  22  24
HETATM   24  C   UNK N   1      36.017  12.614  12.722  0.00  0.00     0.092 A 
HETATM   25  C   UNK N   1      35.172  11.736  13.430  0.00  0.00     0.133 A 
HETATM   26  O   UNK N   1      34.121  12.012  14.206  0.00  0.00    -0.321 OA
HETATM   27  C   UNK N   1      35.333  10.406  13.384  0.00  0.00     0.107 A 
HETATM   28  C   UNK N   1      33.596  10.813  14.697  0.00  0.00     0.352 A 
HETATM   29  O   UNK N   1      34.406   9.821  14.141  0.00  0.00    -0.323 OA
HETATM   30  C   UNK N   1      36.334   9.800  12.634  0.00  0.00     0.041 A 
HETATM   31  C   UNK N   1      37.190  10.632  11.893  0.00  0.00     0.029 A 
HETATM   32  C   UNK N   1      37.031  12.035  11.929  0.00  0.00     0.063 A 
HETATM   33 Cl   UNK N   1      38.125  13.044  10.997  0.00  0.00    -0.082 Cl
ENDBRANCH  22  24
ENDBRANCH   7  22
TORSDOF 4
ENDMDL
MODEL 7
REMARK VINA RESULT:      -7.7     12.087     16.361
REMARK  4 active torsions:
REMARK  status: ('A' for Active; 'I' for Inactive)
REMARK       I    between atoms: N_1  and  C_2 
REMARK    1  A    between atoms: N_1  and  C_28 
REMARK    2  A    between atoms: C_7  and  N_8 
REMARK    3  A    between atoms: N_8  and  C_9 
REMARK       I    between atoms: N_21  and  C_22 
REMARK    4  A    between atoms: C_22  and  C_24 
ROOT
HETATM    1  N   UNK N   1      21.752  13.483   7.536  0.00  0.00    -0.192 N 
HETATM    2  C   UNK N   1      21.602  14.826   7.112  0.00  0.00     0.684 A 
HETATM    3  N   UNK N   1      21.017  15.733   7.944  0.00  0.00    -0.202 N 
ATOM      4  HN  UNK N   1      20.719  15.437   8.873  1.00  0.00     0.183 HD
HETATM    5  C   UNK N   1      20.825  17.015   7.565  0.00  0.00     0.110 A 
HETATM    6  C   UNK N   1      21.241  17.424   6.310  0.00  0.00     0.066 A 
HETATM    7  C   UNK N   1      21.866  16.502   5.465  0.00  0.00     0.122 A 
HETATM    8  N   UNK N   1      22.011  15.211   5.872  0.00  0.00    -0.176 N 
ATOM      9  HN  UNK N   1      22.429  14.526   5.242  1.00  0.00     0.186 HD
HETATM   10  H   UNK N   1      21.878  12.766   6.873  0.00  0.00     0.184 HD
ENDROOT
BRANCH   1  11
HETATM   11  C   UNK N   1      21.716  13.175   8.918  0.00  0.00     0.050 A 
HETATM   12  C   UNK N   1      20.482  13.028   9.572  0.00  0.00     0.030 A 
HETATM   13  C   UNK N   1      20.433  12.635  10.907  0.00  0.00     0.003 A 
HETATM   14  C   UNK N   1      21.615  12.352  11.589  0.00  0.00     0.017 A 
HETATM   15  C   UNK N   1      22.856  12.486  10.947  0.00  0.00     0.034 A 
HETATM   16  C   UNK N   1      22.901  12.912   9.609  0.00  0.00     0.047 A 
BRANCH  15  17
HETATM   17  C   UNK N   1      24.096  12.132  11.663  0.00  0.00     0.249 C 
HETATM   18  N   UNK N   1      25.270  12.063  11.001  0.00  0.00    -0.366 N 
HETATM   19  H   UNK N   1      26.124  12.015  11.490  0.00  0.00     0.159 HD
HETATM   20  H   UNK N   1      25.273  12.061  10.017  0.00  0.00     0.159 HD
HETATM   21  O   UNK N   1      24.064  11.874  12.857  0.00  0.00    -0.268 OA
ENDBRANCH  15  17
ENDBRANCH   1  11
BRANCH   7  22
HETATM   22  N   UNK N   1      22.298  16.882   4.166  0.00  0.00    -0.338 N 
HETATM   23  H   UNK N   1      22.103  16.266   3.424  0.00  0.00     0.167 HD
BRANCH  22  24
HETATM   24  C   UNK N   1      22.991  18.090   3.852  0.00  0.00     0.092 A 
HETATM   25  C   UNK N   1      22.342  19.245   3.371  0.00  0.00     0.133 A 
HETATM   26  O   UNK N   1      21.042  19.458   3.153  0.00  0.00    -0.321 OA
HETATM   27  C   UNK N   1      23.016  20.363   3.069  0.00  0.00     0.107 A 
HETATM   28  C   UNK N   1      20.873  20.759   2.672  0.00  0.00     0.352 A 
HETATM   29  O   UNK N   1      22.164  21.292   2.638  0.00  0.00    -0.323 OA
HETATM   30  C   UNK N   1      24.394  20.468   3.214  0.00  0.00     0.041 A 
HETATM   31  C   UNK N   1      25.086  19.349   3.711  0.00  0.00     0.029 A 
HETATM   32  C   UNK N   1      24.388  18.164   4.037  0.00  0.00     0.063 A 
HETATM   33 Cl   UNK N   1      25.287  16.784   4.646  0.00  0.00    -0.082 Cl
ENDBRANCH  22  24
ENDBRANCH   7  22
TORSDOF 4
ENDMDL
MODEL 8
REMARK VINA RESULT:      -7.6     11.233     14.697
REMARK  4 active torsions:
REMARK  status: ('A' for Active; 'I' for Inactive)
REMARK       I    between atoms: N_1  and  C_2 
REMARK    1  A    between atoms: N_1  and  C_28 
REMARK    2  A    between atoms: C_7  and  N_8 
REMARK    3  A    between atoms: N_8  and  C_9 
REMARK       I    between atoms: N_21  and  C_22 
REMARK    4  A    between atoms: C_22  and  C_24 
ROOT
HETATM    1  N   UNK N   1      22.971  14.182   7.078  0.00  0.00    -0.192 N 
HETATM    2  C   UNK N   1      22.752  15.495   6.595  0.00  0.00     0.684 A 
HETATM    3  N   UNK N   1      21.707  16.224   7.079  0.00  0.00    -0.202 N 
ATOM      4  HN  UNK N   1      21.112  15.822   7.804  1.00  0.00     0.183 HD
HETATM    5  C   UNK N   1      21.443  17.467   6.620  0.00  0.00     0.110 A 
HETATM    6  C   UNK N   1      22.255  18.021   5.647  0.00  0.00     0.066 A 
HETATM    7  C   UNK N   1      23.345  17.286   5.168  0.00  0.00     0.122 A 
HETATM    8  N   UNK N   1      23.557  16.024   5.632  0.00  0.00    -0.176 N 
ATOM      9  HN  UNK N   1      24.325  15.469   5.255  1.00  0.00     0.186 HD
HETATM   10  H   UNK N   1      23.501  13.543   6.549  0.00  0.00     0.184 HD
ENDROOT
BRANCH   1  11
HETATM   11  C   UNK N   1      22.423  13.791   8.324  0.00  0.00     0.050 A 
HETATM   12  C   UNK N   1      21.031  13.794   8.509  0.00  0.00     0.030 A 
HETATM   13  C   UNK N   1      20.477  13.325   9.697  0.00  0.00     0.003 A 
HETATM   14  C   UNK N   1      21.306  12.817  10.696  0.00  0.00     0.017 A 
HETATM   15  C   UNK N   1      22.699  12.801  10.523  0.00  0.00     0.034 A 
HETATM   16  C   UNK N   1      23.255  13.303   9.335  0.00  0.00     0.047 A 
BRANCH  15  17
HETATM   17  C   UNK N   1      23.563  12.212  11.564  0.00  0.00     0.249 C 
HETATM   18  N   UNK N   1      24.900  12.167  11.395  0.00  0.00    -0.366 N 
HETATM   19  H   UNK N   1      25.499  11.954  12.149  0.00  0.00     0.159 HD
HETATM   20  H   UNK N   1      25.284  12.348  10.508  0.00  0.00     0.159 HD
HETATM   21  O   UNK N   1      23.069  11.739  12.576  0.00  0.00    -0.268 OA
ENDBRANCH  15  17
ENDBRANCH   1  11
BRANCH   7  22
HETATM   22  N   UNK N   1      24.195  17.817   4.162  0.00  0.00    -0.338 N 
HETATM   23  H   UNK N   1      23.931  17.678   3.224  0.00  0.00     0.167 HD
BRANCH  22  24
HETATM   24  C   UNK N   1      25.403  18.538   4.405  0.00  0.00     0.092 A 
HETATM   25  C   UNK N   1      26.476  18.009   5.150  0.00  0.00     0.133 A 
HETATM   26  O   UNK N   1      26.603  16.807   5.716  0.00  0.00    -0.321 OA
HETATM   27  C   UNK N   1      27.595  18.711   5.377  0.00  0.00     0.107 A 
HETATM   28  C   UNK N   1      27.846  16.737   6.352  0.00  0.00     0.352 A 
HETATM   29  O   UNK N   1      28.437  17.978   6.104  0.00  0.00    -0.323 OA
HETATM   30  C   UNK N   1      27.781  20.000   4.892  0.00  0.00     0.041 A 
HETATM   31  C   UNK N   1      26.747  20.565   4.125  0.00  0.00     0.029 A 
HETATM   32  C   UNK N   1      25.563  19.836   3.874  0.00  0.00     0.063 A 
HETATM   33 Cl   UNK N   1      24.290  20.577   2.918  0.00  0.00    -0.082 Cl
ENDBRANCH  22  24
ENDBRANCH   7  22
TORSDOF 4
ENDMDL
MODEL 9
REMARK VINA RESULT:      -7.6      1.637      2.091
REMARK  4 active torsions:
REMARK  status: ('A' for Active; 'I' for Inactive)
REMARK       I    between atoms: N_1  and  C_2 
REMARK    1  A    between atoms: N_1  and  C_28 
REMARK    2  A    between atoms: C_7  and  N_8 
REMARK    3  A    between atoms: N_8  and  C_9 
REMARK       I    between atoms: N_21  and  C_22 
REMARK    4  A    between atoms: C_22  and  C_24 
ROOT
HETATM    1  N   UNK N   1      34.021  15.323  10.630  0.00  0.00    -0.192 N 
HETATM    2  C   UNK N   1      35.255  14.637  10.735  0.00  0.00     0.684 A 
HETATM    3  N   UNK N   1      36.050  14.513   9.635  0.00  0.00    -0.202 N 
ATOM      4  HN  UNK N   1      35.756  14.939   8.757  1.00  0.00     0.183 HD
HETATM    5  C   UNK N   1      37.218  13.836   9.684  0.00  0.00     0.110 A 
HETATM    6  C   UNK N   1      37.628  13.268  10.878  0.00  0.00     0.066 A 
HETATM    7  C   UNK N   1      36.827  13.418  12.014  0.00  0.00     0.122 A 
HETATM    8  N   UNK N   1      35.640  14.078  11.915  0.00  0.00    -0.176 N 
ATOM      9  HN  UNK N   1      35.034  14.154  12.732  1.00  0.00     0.186 HD
HETATM   10  H   UNK N   1      33.311  15.168  11.295  0.00  0.00     0.184 HD
ENDROOT
BRANCH   1  11
HETATM   11  C   UNK N   1      33.810  16.232   9.564  0.00  0.00     0.050 A 
HETATM   12  C   UNK N   1      34.686  17.315   9.383  0.00  0.00     0.030 A 
HETATM   13  C   UNK N   1      34.544  18.161   8.287  0.00  0.00     0.003 A 
HETATM   14  C   UNK N   1      33.547  17.912   7.344  0.00  0.00     0.017 A 
HETATM   15  C   UNK N   1      32.670  16.829   7.507  0.00  0.00     0.034 A 
HETATM   16  C   UNK N   1      32.799  15.996   8.631  0.00  0.00     0.047 A 
BRANCH  15  17
HETATM   17  C   UNK N   1      31.654  16.544   6.475  0.00  0.00     0.249 C 
HETATM   18  N   UNK N   1      31.643  17.238   5.318  0.00  0.00    -0.366 N 
HETATM   19  H   UNK N   1      31.101  16.937   4.553  0.00  0.00     0.159 HD
HETATM   20  H   UNK N   1      32.185  18.056   5.238  0.00  0.00     0.159 HD
HETATM   21  O   UNK N   1      30.800  15.694   6.673  0.00  0.00    -0.268 OA
ENDBRANCH  15  17
ENDBRANCH   1  11
BRANCH   7  22
HETATM   22  N   UNK N   1      37.208  12.840  13.254  0.00  0.00    -0.338 N 
HETATM   23  H   UNK N   1      38.056  12.341  13.281  0.00  0.00     0.167 HD
BRANCH  22  24
HETATM   24  C   UNK N   1      36.458  12.928  14.466  0.00  0.00     0.092 A 
HETATM   25  C   UNK N   1      36.666  13.939  15.426  0.00  0.00     0.133 A 
HETATM   26  O   UNK N   1      37.515  14.969  15.402  0.00  0.00    -0.321 OA
HETATM   27  C   UNK N   1      35.959  13.992  16.564  0.00  0.00     0.107 A 
HETATM   28  C   UNK N   1      37.364  15.705  16.580  0.00  0.00     0.352 A 
HETATM   29  O   UNK N   1      36.359  15.038  17.285  0.00  0.00    -0.323 OA
HETATM   30  C   UNK N   1      34.972  13.065  16.875  0.00  0.00     0.041 A 
HETATM   31  C   UNK N   1      34.712  12.049  15.939  0.00  0.00     0.029 A 
HETATM   32  C   UNK N   1      35.446  11.981  14.734  0.00  0.00     0.063 A 
HETATM   33 Cl   UNK N   1      35.099  10.693  13.593  0.00  0.00    -0.082 Cl
ENDBRANCH  22  24
ENDBRANCH   7  22
TORSDOF 4
ENDMDL
