MODEL 1
REMARK VINA RESULT:      -7.2      0.000      0.000
REMARK  4 active torsions:
REMARK  status: ('A' for Active; 'I' for Inactive)
REMARK    1  A    between atoms: C_9  and  C_10 
REMARK    2  A    between atoms: C_10  and  C_11 
REMARK    3  A    between atoms: C_11  and  O_12 
REMARK    4  A    between atoms: C_18  and  C_19 
ROOT
HETATM    1  O   UNK N   1      19.149  18.655   2.707  0.00  0.00    -0.267 OA
HETATM    2  C   UNK N   1      19.771  17.824   3.343  0.00  0.00     0.260 A 
HETATM    3  N   UNK N   1      19.224  16.670   3.763  0.00  0.00    -0.289 N 
HETATM    4  C   UNK N   1      20.211  16.008   4.425  0.00  0.00     0.260 A 
HETATM    5  O   UNK N   1      20.020  14.906   4.864  0.00  0.00    -0.267 OA
HETATM    6  C   UNK N   1      21.412  16.741   4.455  0.00  0.00     0.060 A 
HETATM    7  C   UNK N   1      21.093  17.907   3.717  0.00  0.00     0.062 A 
HETATM    8  C   UNK N   1      22.036  18.898   3.461  0.00  0.00     0.015 A 
HETATM    9  C   UNK N   1      22.023  20.127   2.798  0.00  0.00    -0.027 A 
HETATM   10  C   UNK N   1      23.309  20.645   2.894  0.00  0.00     0.099 A 
HETATM   11  N   UNK N   1      24.075  19.772   3.580  0.00  0.00    -0.360 N 
HETATM   12  C   UNK N   1      25.482  19.952   3.897  0.00  0.00     0.155 C 
HETATM   13  C   UNK N   1      23.298  18.732   3.926  0.00  0.00     0.046 A 
HETATM   14  C   UNK N   1      23.670  17.627   4.677  0.00  0.00     0.044 A 
HETATM   15  C   UNK N   1      22.765  16.571   5.014  0.00  0.00    -0.005 A 
HETATM   16  H   UNK N   1      18.298  16.366   3.622  0.00  0.00     0.172 HD
ENDROOT
BRANCH  15  17
HETATM   17  C   UNK N   1      23.445  15.502   5.933  0.00  0.00    -0.003 A 
HETATM   18  C   UNK N   1      24.810  15.269   5.597  0.00  0.00     0.014 A 
HETATM   19  C   UNK N   1      25.651  14.402   6.284  0.00  0.00     0.001 A 
HETATM   20  C   UNK N   1      25.167  13.699   7.364  0.00  0.00     0.002 A 
HETATM   21  C   UNK N   1      23.851  13.876   7.753  0.00  0.00     0.024 A 
HETATM   22  C   UNK N   1      22.980  14.752   7.083  0.00  0.00     0.045 A 
HETATM   23 Cl   UNK N   1      21.441  14.800   7.868  0.00  0.00    -0.083 Cl
ENDBRANCH  15  17
BRANCH   9  24
HETATM   24  C   UNK N   1      20.886  20.848   2.153  0.00  0.00     0.067 C 
BRANCH  24  25
HETATM   25  C   UNK N   1      20.961  20.799   0.641  0.00  0.00     0.168 C 
BRANCH  25  26
HETATM   26  O   UNK N   1      20.536  19.542   0.210  0.00  0.00    -0.401 OA
HETATM   27  H   UNK N   1      19.652  19.405  -0.167  0.00  0.00     0.209 HD
ENDBRANCH  25  26
ENDBRANCH  24  25
ENDBRANCH   9  24
TORSDOF 4
ENDMDL
MODEL 2
REMARK VINA RESULT:      -7.1      7.029      9.916
REMARK  4 active torsions:
REMARK  status: ('A' for Active; 'I' for Inactive)
REMARK    1  A    between atoms: C_9  and  C_10 
REMARK    2  A    between atoms: C_10  and  C_11 
REMARK    3  A    between atoms: C_11  and  O_12 
REMARK    4  A    between atoms: C_18  and  C_19 
ROOT
HETATM    1  O   UNK N   1      33.111  15.544   5.074  0.00  0.00    -0.267 OA
HETATM    2  C   UNK N   1      32.043  15.967   4.671  0.00  0.00     0.260 A 
HETATM    3  N   UNK N   1      31.635  15.821   3.399  0.00  0.00    -0.289 N 
HETATM    4  C   UNK N   1      30.410  16.408   3.330  0.00  0.00     0.260 A 
HETATM    5  O   UNK N   1      29.773  16.376   2.312  0.00  0.00    -0.267 OA
HETATM    6  C   UNK N   1      30.017  16.959   4.564  0.00  0.00     0.060 A 
HETATM    7  C   UNK N   1      31.096  16.628   5.419  0.00  0.00     0.062 A 
HETATM    8  C   UNK N   1      31.090  16.953   6.773  0.00  0.00     0.015 A 
HETATM    9  C   UNK N   1      31.980  16.780   7.835  0.00  0.00    -0.027 A 
HETATM   10  C   UNK N   1      31.374  17.334   8.956  0.00  0.00     0.099 A 
HETATM   11  N   UNK N   1      30.167  17.820   8.599  0.00  0.00    -0.360 N 
HETATM   12  C   UNK N   1      29.227  18.482   9.488  0.00  0.00     0.155 C 
HETATM   13  C   UNK N   1      30.011  17.596   7.284  0.00  0.00     0.046 A 
HETATM   14  C   UNK N   1      28.933  17.971   6.496  0.00  0.00     0.044 A 
HETATM   15  C   UNK N   1      28.861  17.706   5.091  0.00  0.00    -0.005 A 
HETATM   16  H   UNK N   1      32.123  15.381   2.666  0.00  0.00     0.172 HD
ENDROOT
BRANCH  15  17
HETATM   17  C   UNK N   1      27.566  18.315   4.457  0.00  0.00    -0.003 A 
HETATM   18  C   UNK N   1      27.577  19.740   4.435  0.00  0.00     0.014 A 
HETATM   19  C   UNK N   1      26.569  20.524   3.886  0.00  0.00     0.001 A 
HETATM   20  C   UNK N   1      25.468  19.919   3.323  0.00  0.00     0.002 A 
HETATM   21  C   UNK N   1      25.389  18.538   3.305  0.00  0.00     0.024 A 
HETATM   22  C   UNK N   1      26.396  17.719   3.844  0.00  0.00     0.045 A 
HETATM   23 Cl   UNK N   1      26.028  16.050   3.586  0.00  0.00    -0.083 Cl
ENDBRANCH  15  17
BRANCH   9  24
HETATM   24  C   UNK N   1      33.354  16.197   7.839  0.00  0.00     0.067 C 
BRANCH  24  25
HETATM   25  C   UNK N   1      34.429  17.264   7.814  0.00  0.00     0.168 C 
BRANCH  25  26
HETATM   26  O   UNK N   1      34.486  17.817   6.535  0.00  0.00    -0.401 OA
HETATM   27  H   UNK N   1      33.682  18.074   6.055  0.00  0.00     0.209 HD
ENDBRANCH  25  26
ENDBRANCH  24  25
ENDBRANCH   9  24
TORSDOF 4
ENDMDL
MODEL 3
REMARK VINA RESULT:      -7.0     17.225     20.322
REMARK  4 active torsions:
REMARK  status: ('A' for Active; 'I' for Inactive)
REMARK    1  A    between atoms: C_9  and  C_10 
REMARK    2  A    between atoms: C_10  and  C_11 
REMARK    3  A    between atoms: C_11  and  O_12 
REMARK    4  A    between atoms: C_18  and  C_19 
ROOT
HETATM    1  O   UNK N   1      34.788  11.060  20.846  0.00  0.00    -0.267 OA
HETATM    2  C   UNK N   1      35.002  11.708  19.839  0.00  0.00     0.260 A 
HETATM    3  N   UNK N   1      35.059  13.051  19.836  0.00  0.00    -0.289 N 
HETATM    4  C   UNK N   1      35.318  13.411  18.549  0.00  0.00     0.260 A 
HETATM    5  O   UNK N   1      35.482  14.565  18.259  0.00  0.00    -0.267 OA
HETATM    6  C   UNK N   1      35.413  12.295  17.697  0.00  0.00     0.060 A 
HETATM    7  C   UNK N   1      35.228  11.203  18.579  0.00  0.00     0.062 A 
HETATM    8  C   UNK N   1      35.296   9.883  18.142  0.00  0.00     0.015 A 
HETATM    9  C   UNK N   1      35.148   8.633  18.746  0.00  0.00    -0.027 A 
HETATM   10  C   UNK N   1      35.342   7.684  17.750  0.00  0.00     0.099 A 
HETATM   11  N   UNK N   1      35.600   8.322  16.590  0.00  0.00    -0.360 N 
HETATM   12  C   UNK N   1      35.854   7.680  15.311  0.00  0.00     0.155 C 
HETATM   13  C   UNK N   1      35.559   9.643  16.834  0.00  0.00     0.046 A 
HETATM   14  C   UNK N   1      35.726  10.666  15.913  0.00  0.00     0.044 A 
HETATM   15  C   UNK N   1      35.645  12.052  16.262  0.00  0.00    -0.005 A 
HETATM   16  H   UNK N   1      34.938  13.652  20.606  0.00  0.00     0.172 HD
ENDROOT
BRANCH  15  17
HETATM   17  C   UNK N   1      35.796  12.971  15.004  0.00  0.00    -0.003 A 
HETATM   18  C   UNK N   1      35.053  12.502  13.882  0.00  0.00     0.014 A 
HETATM   19  C   UNK N   1      34.981  13.157  12.659  0.00  0.00     0.001 A 
HETATM   20  C   UNK N   1      35.665  14.338  12.479  0.00  0.00     0.002 A 
HETATM   21  C   UNK N   1      36.406  14.858  13.526  0.00  0.00     0.024 A 
HETATM   22  C   UNK N   1      36.490  14.223  14.776  0.00  0.00     0.045 A 
HETATM   23 Cl   UNK N   1      37.422  15.171  15.880  0.00  0.00    -0.083 Cl
ENDBRANCH  15  17
BRANCH   9  24
HETATM   24  C   UNK N   1      34.784   8.293  20.153  0.00  0.00     0.067 C 
BRANCH  24  25
HETATM   25  C   UNK N   1      33.317   7.950  20.298  0.00  0.00     0.168 C 
BRANCH  25  26
HETATM   26  O   UNK N   1      32.638   9.067  20.786  0.00  0.00    -0.401 OA
HETATM   27  H   UNK N   1      33.086   9.919  20.913  0.00  0.00     0.209 HD
ENDBRANCH  25  26
ENDBRANCH  24  25
ENDBRANCH   9  24
TORSDOF 4
ENDMDL
MODEL 4
REMARK VINA RESULT:      -7.0     11.362     14.431
REMARK  4 active torsions:
REMARK  status: ('A' for Active; 'I' for Inactive)
REMARK    1  A    between atoms: C_9  and  C_10 
REMARK    2  A    between atoms: C_10  and  C_11 
REMARK    3  A    between atoms: C_11  and  O_12 
REMARK    4  A    between atoms: C_18  and  C_19 
ROOT
HETATM    1  O   UNK N   1      35.281  16.267  11.347  0.00  0.00    -0.267 OA
HETATM    2  C   UNK N   1      34.998  16.492  10.185  0.00  0.00     0.260 A 
HETATM    3  N   UNK N   1      35.053  17.722   9.647  0.00  0.00    -0.289 N 
HETATM    4  C   UNK N   1      34.676  17.578   8.347  0.00  0.00     0.260 A 
HETATM    5  O   UNK N   1      34.690  18.519   7.600  0.00  0.00    -0.267 OA
HETATM    6  C   UNK N   1      34.353  16.245   8.035  0.00  0.00     0.060 A 
HETATM    7  C   UNK N   1      34.601  15.563   9.251  0.00  0.00     0.062 A 
HETATM    8  C   UNK N   1      34.448  14.184   9.366  0.00  0.00     0.015 A 
HETATM    9  C   UNK N   1      34.597  13.256  10.400  0.00  0.00    -0.027 A 
HETATM   10  C   UNK N   1      34.293  12.011   9.863  0.00  0.00     0.099 A 
HETATM   11  N   UNK N   1      33.977  12.168   8.561  0.00  0.00    -0.360 N 
HETATM   12  C   UNK N   1      33.594  11.100   7.651  0.00  0.00     0.155 C 
HETATM   13  C   UNK N   1      34.062  13.477   8.276  0.00  0.00     0.046 A 
HETATM   14  C   UNK N   1      33.779  14.087   7.062  0.00  0.00     0.044 A 
HETATM   15  C   UNK N   1      33.880  15.499   6.855  0.00  0.00    -0.005 A 
HETATM   16  H   UNK N   1      35.313  18.557  10.100  0.00  0.00     0.172 HD
ENDROOT
BRANCH  15  17
HETATM   17  C   UNK N   1      33.424  15.902   5.413  0.00  0.00    -0.003 A 
HETATM   18  C   UNK N   1      32.549  17.028   5.401  0.00  0.00     0.014 A 
HETATM   19  C   UNK N   1      32.037  17.612   4.250  0.00  0.00     0.001 A 
HETATM   20  C   UNK N   1      32.369  17.093   3.019  0.00  0.00     0.002 A 
HETATM   21  C   UNK N   1      33.217  16.001   2.950  0.00  0.00     0.024 A 
HETATM   22  C   UNK N   1      33.757  15.395   4.096  0.00  0.00     0.045 A 
HETATM   23 Cl   UNK N   1      34.834  14.116   3.659  0.00  0.00    -0.083 Cl
ENDBRANCH  15  17
BRANCH   9  24
HETATM   24  C   UNK N   1      34.938  13.478  11.836  0.00  0.00     0.067 C 
BRANCH  24  25
HETATM   25  C   UNK N   1      36.357  13.062  12.158  0.00  0.00     0.168 C 
BRANCH  25  26
HETATM   26  O   UNK N   1      37.065  14.178  12.603  0.00  0.00    -0.401 OA
HETATM   27  H   UNK N   1      37.419  14.837  11.984  0.00  0.00     0.209 HD
ENDBRANCH  25  26
ENDBRANCH  24  25
ENDBRANCH   9  24
TORSDOF 4
ENDMDL
MODEL 5
REMARK VINA RESULT:      -6.9      3.588      7.575
REMARK  4 active torsions:
REMARK  status: ('A' for Active; 'I' for Inactive)
REMARK    1  A    between atoms: C_9  and  C_10 
REMARK    2  A    between atoms: C_10  and  C_11 
REMARK    3  A    between atoms: C_11  and  O_12 
REMARK    4  A    between atoms: C_18  and  C_19 
ROOT
HETATM    1  O   UNK N   1      20.409  13.180  10.538  0.00  0.00    -0.267 OA
HETATM    2  C   UNK N   1      20.433  14.045   9.684  0.00  0.00     0.260 A 
HETATM    3  N   UNK N   1      19.468  14.974   9.561  0.00  0.00    -0.289 N 
HETATM    4  C   UNK N   1      19.837  15.760   8.514  0.00  0.00     0.260 A 
HETATM    5  O   UNK N   1      19.182  16.720   8.210  0.00  0.00    -0.267 OA
HETATM    6  C   UNK N   1      21.046  15.334   7.933  0.00  0.00     0.060 A 
HETATM    7  C   UNK N   1      21.416  14.230   8.739  0.00  0.00     0.062 A 
HETATM    8  C   UNK N   1      22.602  13.532   8.532  0.00  0.00     0.015 A 
HETATM    9  C   UNK N   1      23.218  12.430   9.130  0.00  0.00    -0.027 A 
HETATM   10  C   UNK N   1      24.412  12.223   8.451  0.00  0.00     0.099 A 
HETATM   11  N   UNK N   1      24.525  13.157   7.484  0.00  0.00    -0.360 N 
HETATM   12  C   UNK N   1      25.634  13.276   6.551  0.00  0.00     0.155 C 
HETATM   13  C   UNK N   1      23.428  13.931   7.534  0.00  0.00     0.046 A 
HETATM   14  C   UNK N   1      23.113  14.987   6.692  0.00  0.00     0.044 A 
HETATM   15  C   UNK N   1      21.906  15.746   6.809  0.00  0.00    -0.005 A 
HETATM   16  H   UNK N   1      18.659  15.065  10.114  0.00  0.00     0.172 HD
ENDROOT
BRANCH  15  17
HETATM   17  C   UNK N   1      21.790  16.819   5.675  0.00  0.00    -0.003 A 
HETATM   18  C   UNK N   1      22.989  17.568   5.494  0.00  0.00     0.014 A 
HETATM   19  C   UNK N   1      23.164  18.548   4.525  0.00  0.00     0.001 A 
HETATM   20  C   UNK N   1      22.129  18.849   3.669  0.00  0.00     0.002 A 
HETATM   21  C   UNK N   1      20.934  18.161   3.782  0.00  0.00     0.024 A 
HETATM   22  C   UNK N   1      20.731  17.159   4.746  0.00  0.00     0.045 A 
HETATM   23 Cl   UNK N   1      19.167  16.447   4.565  0.00  0.00    -0.083 Cl
ENDBRANCH  15  17
BRANCH   9  24
HETATM   24  C   UNK N   1      22.729  11.548  10.232  0.00  0.00     0.067 C 
BRANCH  24  25
HETATM   25  C   UNK N   1      23.302  11.942  11.577  0.00  0.00     0.168 C 
BRANCH  25  26
HETATM   26  O   UNK N   1      22.361  11.661  12.568  0.00  0.00    -0.401 OA
HETATM   27  H   UNK N   1      21.636  12.273  12.770  0.00  0.00     0.209 HD
ENDBRANCH  25  26
ENDBRANCH  24  25
ENDBRANCH   9  24
TORSDOF 4
ENDMDL
MODEL 6
REMARK VINA RESULT:      -6.9      7.049     10.089
REMARK  4 active torsions:
REMARK  status: ('A' for Active; 'I' for Inactive)
REMARK    1  A    between atoms: C_9  and  C_10 
REMARK    2  A    between atoms: C_10  and  C_11 
REMARK    3  A    between atoms: C_11  and  O_12 
REMARK    4  A    between atoms: C_18  and  C_19 
ROOT
HETATM    1  O   UNK N   1      31.872  16.224   9.266  0.00  0.00    -0.267 OA
HETATM    2  C   UNK N   1      30.940  16.786   8.721  0.00  0.00     0.260 A 
HETATM    3  N   UNK N   1      29.893  17.286   9.399  0.00  0.00    -0.289 N 
HETATM    4  C   UNK N   1      29.069  17.834   8.465  0.00  0.00     0.260 A 
HETATM    5  O   UNK N   1      28.070  18.413   8.796  0.00  0.00    -0.267 OA
HETATM    6  C   UNK N   1      29.572  17.676   7.160  0.00  0.00     0.060 A 
HETATM    7  C   UNK N   1      30.804  17.012   7.370  0.00  0.00     0.062 A 
HETATM    8  C   UNK N   1      31.662  16.701   6.319  0.00  0.00     0.015 A 
HETATM    9  C   UNK N   1      32.897  16.060   6.208  0.00  0.00    -0.027 A 
HETATM   10  C   UNK N   1      33.231  16.069   4.859  0.00  0.00     0.099 A 
HETATM   11  N   UNK N   1      32.248  16.691   4.175  0.00  0.00    -0.360 N 
HETATM   12  C   UNK N   1      32.222  16.900   2.737  0.00  0.00     0.155 C 
HETATM   13  C   UNK N   1      31.305  17.056   5.060  0.00  0.00     0.046 A 
HETATM   14  C   UNK N   1      30.101  17.686   4.782  0.00  0.00     0.044 A 
HETATM   15  C   UNK N   1      29.144  18.021   5.792  0.00  0.00    -0.005 A 
HETATM   16  H   UNK N   1      29.751  17.261  10.373  0.00  0.00     0.172 HD
ENDROOT
BRANCH  15  17
HETATM   17  C   UNK N   1      27.851  18.649   5.173  0.00  0.00    -0.003 A 
HETATM   18  C   UNK N   1      27.148  17.747   4.322  0.00  0.00     0.014 A 
HETATM   19  C   UNK N   1      25.949  18.042   3.685  0.00  0.00     0.001 A 
HETATM   20  C   UNK N   1      25.375  19.282   3.857  0.00  0.00     0.002 A 
HETATM   21  C   UNK N   1      25.999  20.210   4.672  0.00  0.00     0.024 A 
HETATM   22  C   UNK N   1      27.206  19.937   5.337  0.00  0.00     0.045 A 
HETATM   23 Cl   UNK N   1      27.669  21.271   6.332  0.00  0.00    -0.083 Cl
ENDBRANCH  15  17
BRANCH   9  24
HETATM   24  C   UNK N   1      33.726  15.402   7.261  0.00  0.00     0.067 C 
BRANCH  24  25
HETATM   25  C   UNK N   1      33.541  13.900   7.280  0.00  0.00     0.168 C 
BRANCH  25  26
HETATM   26  O   UNK N   1      32.371  13.598   7.977  0.00  0.00    -0.401 OA
HETATM   27  H   UNK N   1      32.393  13.147   8.836  0.00  0.00     0.209 HD
ENDBRANCH  25  26
ENDBRANCH  24  25
ENDBRANCH   9  24
TORSDOF 4
ENDMDL
MODEL 7
REMARK VINA RESULT:      -6.9     12.562     13.756
REMARK  4 active torsions:
REMARK  status: ('A' for Active; 'I' for Inactive)
REMARK    1  A    between atoms: C_9  and  C_10 
REMARK    2  A    between atoms: C_10  and  C_11 
REMARK    3  A    between atoms: C_11  and  O_12 
REMARK    4  A    between atoms: C_18  and  C_19 
ROOT
HETATM    1  O   UNK N   1      25.109  27.131  -5.699  0.00  0.00    -0.267 OA
HETATM    2  C   UNK N   1      25.755  26.099  -5.678  0.00  0.00     0.260 A 
HETATM    3  N   UNK N   1      25.223  24.902  -5.980  0.00  0.00    -0.289 N 
HETATM    4  C   UNK N   1      26.235  24.001  -5.853  0.00  0.00     0.260 A 
HETATM    5  O   UNK N   1      26.060  22.844  -6.122  0.00  0.00    -0.267 OA
HETATM    6  C   UNK N   1      27.437  24.610  -5.448  0.00  0.00     0.060 A 
HETATM    7  C   UNK N   1      27.091  25.981  -5.370  0.00  0.00     0.062 A 
HETATM    8  C   UNK N   1      28.024  26.959  -5.042  0.00  0.00     0.015 A 
HETATM    9  C   UNK N   1      27.987  28.346  -4.876  0.00  0.00    -0.027 A 
HETATM   10  C   UNK N   1      29.277  28.742  -4.544  0.00  0.00     0.099 A 
HETATM   11  N   UNK N   1      30.069  27.650  -4.511  0.00  0.00    -0.360 N 
HETATM   12  C   UNK N   1      31.488  27.646  -4.197  0.00  0.00     0.155 C 
HETATM   13  C   UNK N   1      29.305  26.584  -4.800  0.00  0.00     0.046 A 
HETATM   14  C   UNK N   1      29.704  25.256  -4.835  0.00  0.00     0.044 A 
HETATM   15  C   UNK N   1      28.812  24.179  -5.135  0.00  0.00    -0.005 A 
HETATM   16  H   UNK N   1      24.292  24.714  -6.238  0.00  0.00     0.172 HD
ENDROOT
BRANCH  15  17
HETATM   17  C   UNK N   1      29.527  22.792  -5.022  0.00  0.00    -0.003 A 
HETATM   18  C   UNK N   1      29.556  22.080  -6.257  0.00  0.00     0.014 A 
HETATM   19  C   UNK N   1      30.169  20.846  -6.438  0.00  0.00     0.001 A 
HETATM   20  C   UNK N   1      30.795  20.236  -5.374  0.00  0.00     0.002 A 
HETATM   21  C   UNK N   1      30.810  20.869  -4.143  0.00  0.00     0.024 A 
HETATM   22  C   UNK N   1      30.207  22.120  -3.933  0.00  0.00     0.045 A 
HETATM   23 Cl   UNK N   1      30.478  22.662  -2.315  0.00  0.00    -0.083 Cl
ENDBRANCH  15  17
BRANCH   9  24
HETATM   24  C   UNK N   1      26.826  29.282  -4.949  0.00  0.00     0.067 C 
BRANCH  24  25
HETATM   25  C   UNK N   1      26.254  29.592  -3.582  0.00  0.00     0.168 C 
BRANCH  25  26
HETATM   26  O   UNK N   1      25.478  28.511  -3.162  0.00  0.00    -0.401 OA
HETATM   27  H   UNK N   1      24.881  28.046  -3.770  0.00  0.00     0.209 HD
ENDBRANCH  25  26
ENDBRANCH  24  25
ENDBRANCH   9  24
TORSDOF 4
ENDMDL
MODEL 8
REMARK VINA RESULT:      -6.8     10.779     14.301
REMARK  4 active torsions:
REMARK  status: ('A' for Active; 'I' for Inactive)
REMARK    1  A    between atoms: C_9  and  C_10 
REMARK    2  A    between atoms: C_10  and  C_11 
REMARK    3  A    between atoms: C_11  and  O_12 
REMARK    4  A    between atoms: C_18  and  C_19 
ROOT
HETATM    1  O   UNK N   1      35.715  15.653  11.408  0.00  0.00    -0.267 OA
HETATM    2  C   UNK N   1      35.211  16.060  10.377  0.00  0.00     0.260 A 
HETATM    3  N   UNK N   1      34.892  17.351  10.184  0.00  0.00    -0.289 N 
HETATM    4  C   UNK N   1      34.363  17.422   8.932  0.00  0.00     0.260 A 
HETATM    5  O   UNK N   1      34.041  18.480   8.464  0.00  0.00    -0.267 OA
HETATM    6  C   UNK N   1      34.319  16.163   8.305  0.00  0.00     0.060 A 
HETATM    7  C   UNK N   1      34.904  15.305   9.268  0.00  0.00     0.062 A 
HETATM    8  C   UNK N   1      35.099  13.949   9.025  0.00  0.00     0.015 A 
HETATM    9  C   UNK N   1      35.620  12.879   9.756  0.00  0.00    -0.027 A 
HETATM   10  C   UNK N   1      35.538  11.759   8.936  0.00  0.00     0.099 A 
HETATM   11  N   UNK N   1      34.997  12.128   7.756  0.00  0.00    -0.360 N 
HETATM   12  C   UNK N   1      34.740  11.242   6.633  0.00  0.00     0.155 C 
HETATM   13  C   UNK N   1      34.726  13.442   7.824  0.00  0.00     0.046 A 
HETATM   14  C   UNK N   1      34.125  14.221   6.847  0.00  0.00     0.044 A 
HETATM   15  C   UNK N   1      33.858  15.617   7.016  0.00  0.00    -0.005 A 
HETATM   16  H   UNK N   1      35.015  18.094  10.818  0.00  0.00     0.172 HD
ENDROOT
BRANCH  15  17
HETATM   17  C   UNK N   1      33.103  16.211   5.780  0.00  0.00    -0.003 A 
HETATM   18  C   UNK N   1      33.750  15.923   4.543  0.00  0.00     0.014 A 
HETATM   19  C   UNK N   1      33.263  16.296   3.297  0.00  0.00     0.001 A 
HETATM   20  C   UNK N   1      32.082  17.000   3.211  0.00  0.00     0.002 A 
HETATM   21  C   UNK N   1      31.395  17.313   4.371  0.00  0.00     0.024 A 
HETATM   22  C   UNK N   1      31.857  16.941   5.644  0.00  0.00     0.045 A 
HETATM   23 Cl   UNK N   1      30.729  17.413   6.865  0.00  0.00    -0.083 Cl
ENDBRANCH  15  17
BRANCH   9  24
HETATM   24  C   UNK N   1      36.116  12.839  11.163  0.00  0.00     0.067 C 
BRANCH  24  25
HETATM   25  C   UNK N   1      35.086  12.274  12.118  0.00  0.00     0.168 C 
BRANCH  25  26
HETATM   26  O   UNK N   1      34.434  13.329  12.755  0.00  0.00    -0.401 OA
HETATM   27  H   UNK N   1      33.586  13.204  13.210  0.00  0.00     0.209 HD
ENDBRANCH  25  26
ENDBRANCH  24  25
ENDBRANCH   9  24
TORSDOF 4
ENDMDL
MODEL 9
REMARK VINA RESULT:      -6.8     13.081     14.462
REMARK  4 active torsions:
REMARK  status: ('A' for Active; 'I' for Inactive)
REMARK    1  A    between atoms: C_9  and  C_10 
REMARK    2  A    between atoms: C_10  and  C_11 
REMARK    3  A    between atoms: C_11  and  O_12 
REMARK    4  A    between atoms: C_18  and  C_19 
ROOT
HETATM    1  O   UNK N   1      28.269  20.313  -8.274  0.00  0.00    -0.267 OA
HETATM    2  C   UNK N   1      27.710  21.301  -7.834  0.00  0.00     0.260 A 
HETATM    3  N   UNK N   1      26.551  21.764  -8.331  0.00  0.00    -0.289 N 
HETATM    4  C   UNK N   1      26.238  22.862  -7.591  0.00  0.00     0.260 A 
HETATM    5  O   UNK N   1      25.209  23.452  -7.778  0.00  0.00    -0.267 OA
HETATM    6  C   UNK N   1      27.210  23.131  -6.609  0.00  0.00     0.060 A 
HETATM    7  C   UNK N   1      28.139  22.077  -6.782  0.00  0.00     0.062 A 
HETATM    8  C   UNK N   1      29.256  21.938  -5.962  0.00  0.00     0.015 A 
HETATM    9  C   UNK N   1      30.326  21.043  -5.893  0.00  0.00    -0.027 A 
HETATM   10  C   UNK N   1      31.120  21.453  -4.829  0.00  0.00     0.099 A 
HETATM   11  N   UNK N   1      30.560  22.546  -4.269  0.00  0.00    -0.360 N 
HETATM   12  C   UNK N   1      31.092  23.278  -3.131  0.00  0.00     0.155 C 
HETATM   13  C   UNK N   1      29.448  22.835  -4.964  0.00  0.00     0.046 A 
HETATM   14  C   UNK N   1      28.590  23.905  -4.757  0.00  0.00     0.044 A 
HETATM   15  C   UNK N   1      27.433  24.147  -5.564  0.00  0.00    -0.005 A 
HETATM   16  H   UNK N   1      26.034  21.387  -9.080  0.00  0.00     0.172 HD
ENDROOT
BRANCH  15  17
HETATM   17  C   UNK N   1      26.705  25.467  -5.145  0.00  0.00    -0.003 A 
HETATM   18  C   UNK N   1      26.774  25.718  -3.743  0.00  0.00     0.014 A 
HETATM   19  C   UNK N   1      26.248  26.843  -3.120  0.00  0.00     0.001 A 
HETATM   20  C   UNK N   1      25.603  27.798  -3.873  0.00  0.00     0.002 A 
HETATM   21  C   UNK N   1      25.500  27.625  -5.242  0.00  0.00     0.024 A 
HETATM   22  C   UNK N   1      26.030  26.503  -5.902  0.00  0.00     0.045 A 
HETATM   23 Cl   UNK N   1      25.802  26.635  -7.609  0.00  0.00    -0.083 Cl
ENDBRANCH  15  17
BRANCH   9  24
HETATM   24  C   UNK N   1      30.666  19.896  -6.785  0.00  0.00     0.067 C 
BRANCH  24  25
HETATM   25  C   UNK N   1      31.728  20.256  -7.802  0.00  0.00     0.168 C 
BRANCH  25  26
HETATM   26  O   UNK N   1      31.161  21.082  -8.773  0.00  0.00    -0.401 OA
HETATM   27  H   UNK N   1      31.509  21.970  -8.952  0.00  0.00     0.209 HD
ENDBRANCH  25  26
ENDBRANCH  24  25
ENDBRANCH   9  24
TORSDOF 4
ENDMDL
