MODEL 1
REMARK VINA RESULT:      -6.1      0.000      0.000
REMARK  7 active torsions:
REMARK  status: ('A' for Active; 'I' for Inactive)
REMARK    1  A    between atoms: C_3  and  O_16 
REMARK    2  A    between atoms: C_7  and  C_6 
REMARK    3  A    between atoms: C_7  and  O_8 
REMARK    4  A    between atoms: C_9  and  C_7 
REMARK    5  A    between atoms: C_17  and  O_16 
REMARK    6  A    between atoms: C_17  and  C_18 
REMARK    7  A    between atoms: N_19  and  C_18 
ROOT
HETATM    1  C   UNK N   1      28.087  23.784  -2.793  0.00  0.00     0.013 A 
HETATM    2  C   UNK N   1      26.903  24.152  -3.432  0.00  0.00     0.037 A 
HETATM    3  C   UNK N   1      26.897  24.452  -4.805  0.00  0.00     0.068 A 
HETATM    4  C   UNK N   1      28.093  24.383  -5.524  0.00  0.00     0.037 A 
HETATM    5  C   UNK N   1      29.284  24.037  -4.881  0.00  0.00     0.013 A 
HETATM    6  C   UNK N   1      29.285  23.732  -3.512  0.00  0.00    -0.025 A 
ENDROOT
BRANCH   6   7
HETATM    7  C   UNK N   1      30.574  23.415  -2.807  0.00  0.00     0.184 C 
BRANCH   7   8
HETATM    8  O   UNK N   1      30.303  23.003  -1.498  0.00  0.00    -0.386 OA
HETATM    9  H   UNK N   1      30.747  22.776  -0.665  0.00  0.00     0.210 HD
ENDBRANCH   7   8
BRANCH   7  10
HETATM   10  C   UNK N   1      31.307  22.353  -3.586  0.00  0.00    -0.023 A 
HETATM   11  C   UNK N   1      30.800  21.054  -3.712  0.00  0.00     0.027 A 
HETATM   12  C   UNK N   1      31.503  20.113  -4.468  0.00  0.00     0.088 A 
HETATM   13  N   UNK N   1      32.672  20.456  -5.075  0.00  0.00    -0.375 N 
HETATM   14  C   UNK N   1      33.188  21.709  -4.962  0.00  0.00     0.088 A 
ATOM     15  HN  UNK N   1      33.171  19.758  -5.627  1.00  0.00     0.164 HD
HETATM   16  C   UNK N   1      32.516  22.677  -4.218  0.00  0.00     0.027 A 
ENDBRANCH   7  10
ENDBRANCH   6   7
BRANCH   3  17
HETATM   17  O   UNK N   1      25.760  24.804  -5.458  0.00  0.00    -0.349 OA
BRANCH  17  18
HETATM   18  C   UNK N   1      25.582  25.959  -6.203  0.00  0.00     0.206 C 
BRANCH  18  19
HETATM   19  C   UNK N   1      24.726  27.010  -5.501  0.00  0.00     0.299 C 
BRANCH  19  20
HETATM   20  N   UNK N   1      25.545  28.066  -4.929  0.00  0.00     0.090 N 
HETATM   21  C   UNK N   1      26.854  27.996  -5.560  0.00  0.00     0.272 C 
HETATM   22  C   UNK N   1      27.905  28.181  -4.482  0.00  0.00     0.032 C 
HETATM   23  C   UNK N   1      27.152  28.180  -3.176  0.00  0.00     0.032 C 
HETATM   24  C   UNK N   1      25.765  27.711  -3.537  0.00  0.00     0.272 C 
ENDBRANCH  19  20
ENDBRANCH  18  19
ENDBRANCH  17  18
ENDBRANCH   3  17
TORSDOF 7
ENDMDL
MODEL 2
REMARK VINA RESULT:      -6.0     12.232     14.035
REMARK  7 active torsions:
REMARK  status: ('A' for Active; 'I' for Inactive)
REMARK    1  A    between atoms: C_3  and  O_16 
REMARK    2  A    between atoms: C_7  and  C_6 
REMARK    3  A    between atoms: C_7  and  O_8 
REMARK    4  A    between atoms: C_9  and  C_7 
REMARK    5  A    between atoms: C_17  and  O_16 
REMARK    6  A    between atoms: C_17  and  C_18 
REMARK    7  A    between atoms: N_19  and  C_18 
ROOT
HETATM    1  C   UNK N   1      32.421  17.249   6.372  0.00  0.00     0.013 A 
HETATM    2  C   UNK N   1      31.048  17.078   6.201  0.00  0.00     0.037 A 
HETATM    3  C   UNK N   1      30.159  17.338   7.259  0.00  0.00     0.068 A 
HETATM    4  C   UNK N   1      30.669  17.766   8.488  0.00  0.00     0.037 A 
HETATM    5  C   UNK N   1      32.046  17.915   8.668  0.00  0.00     0.013 A 
HETATM    6  C   UNK N   1      32.928  17.660   7.609  0.00  0.00    -0.025 A 
ENDROOT
BRANCH   6   7
HETATM    7  C   UNK N   1      34.413  17.766   7.817  0.00  0.00     0.184 C 
BRANCH   7   8
HETATM    8  O   UNK N   1      34.732  19.048   8.276  0.00  0.00    -0.386 OA
HETATM    9  H   UNK N   1      34.373  19.776   8.809  0.00  0.00     0.210 HD
ENDBRANCH   7   8
BRANCH   7  10
HETATM   10  C   UNK N   1      34.846  16.700   8.792  0.00  0.00    -0.023 A 
HETATM   11  C   UNK N   1      34.951  15.357   8.412  0.00  0.00     0.027 A 
HETATM   12  C   UNK N   1      35.384  14.411   9.344  0.00  0.00     0.088 A 
HETATM   13  N   UNK N   1      35.697  14.793  10.613  0.00  0.00    -0.375 N 
HETATM   14  C   UNK N   1      35.596  16.090  11.008  0.00  0.00     0.088 A 
ATOM     15  HN  UNK N   1      36.015  14.091  11.281  1.00  0.00     0.164 HD
HETATM   16  C   UNK N   1      35.169  17.064  10.106  0.00  0.00     0.027 A 
ENDBRANCH   7  10
ENDBRANCH   6   7
BRANCH   3  17
HETATM   17  O   UNK N   1      28.817  17.191   7.122  0.00  0.00    -0.349 OA
BRANCH  17  18
HETATM   18  C   UNK N   1      27.989  18.006   6.366  0.00  0.00     0.206 C 
BRANCH  18  19
HETATM   19  C   UNK N   1      27.884  19.431   6.904  0.00  0.00     0.299 C 
BRANCH  19  20
HETATM   20  N   UNK N   1      27.523  20.369   5.853  0.00  0.00     0.090 N 
HETATM   21  C   UNK N   1      26.072  20.365   5.741  0.00  0.00     0.272 C 
HETATM   22  C   UNK N   1      25.716  20.360   4.267  0.00  0.00     0.032 C 
HETATM   23  C   UNK N   1      27.021  20.178   3.534  0.00  0.00     0.032 C 
HETATM   24  C   UNK N   1      28.011  19.803   4.607  0.00  0.00     0.272 C 
ENDBRANCH  19  20
ENDBRANCH  18  19
ENDBRANCH  17  18
ENDBRANCH   3  17
TORSDOF 7
ENDMDL
MODEL 3
REMARK VINA RESULT:      -5.8     23.028     25.567
REMARK  7 active torsions:
REMARK  status: ('A' for Active; 'I' for Inactive)
REMARK    1  A    between atoms: C_3  and  O_16 
REMARK    2  A    between atoms: C_7  and  C_6 
REMARK    3  A    between atoms: C_7  and  O_8 
REMARK    4  A    between atoms: C_9  and  C_7 
REMARK    5  A    between atoms: C_17  and  O_16 
REMARK    6  A    between atoms: C_17  and  C_18 
REMARK    7  A    between atoms: N_19  and  C_18 
ROOT
HETATM    1  C   UNK N   1      35.782  10.656  17.330  0.00  0.00     0.013 A 
HETATM    2  C   UNK N   1      35.556  11.365  16.151  0.00  0.00     0.037 A 
HETATM    3  C   UNK N   1      35.128  12.704  16.195  0.00  0.00     0.068 A 
HETATM    4  C   UNK N   1      34.925  13.315  17.435  0.00  0.00     0.037 A 
HETATM    5  C   UNK N   1      35.128  12.599  18.617  0.00  0.00     0.013 A 
HETATM    6  C   UNK N   1      35.561  11.266  18.569  0.00  0.00    -0.025 A 
ENDROOT
BRANCH   6   7
HETATM    7  C   UNK N   1      35.726  10.477  19.838  0.00  0.00     0.184 C 
BRANCH   7   8
HETATM    8  O   UNK N   1      36.338  11.275  20.810  0.00  0.00    -0.386 OA
HETATM    9  H   UNK N   1      37.208  11.476  21.191  0.00  0.00     0.210 HD
ENDBRANCH   7   8
BRANCH   7  10
HETATM   10  C   UNK N   1      34.372   9.988  20.287  0.00  0.00    -0.023 A 
HETATM   11  C   UNK N   1      33.767  10.474  21.453  0.00  0.00     0.027 A 
HETATM   12  C   UNK N   1      32.500  10.011  21.812  0.00  0.00     0.088 A 
HETATM   13  N   UNK N   1      31.860   9.093  21.037  0.00  0.00    -0.375 N 
HETATM   14  C   UNK N   1      32.430   8.601  19.905  0.00  0.00     0.088 A 
ATOM     15  HN  UNK N   1      30.933   8.768  21.311  1.00  0.00     0.164 HD
HETATM   16  C   UNK N   1      33.693   9.039  19.511  0.00  0.00     0.027 A 
ENDBRANCH   7  10
ENDBRANCH   6   7
BRANCH   3  17
HETATM   17  O   UNK N   1      34.908  13.424  15.065  0.00  0.00    -0.349 OA
BRANCH  17  18
HETATM   18  C   UNK N   1      35.549  13.236  13.851  0.00  0.00     0.206 C 
BRANCH  18  19
HETATM   19  C   UNK N   1      36.159  14.513  13.280  0.00  0.00     0.299 C 
BRANCH  19  20
HETATM   20  N   UNK N   1      36.077  14.537  11.829  0.00  0.00     0.090 N 
HETATM   21  C   UNK N   1      35.788  15.906  11.429  0.00  0.00     0.272 C 
HETATM   22  C   UNK N   1      34.738  15.862  10.335  0.00  0.00     0.032 C 
HETATM   23  C   UNK N   1      34.302  14.421  10.247  0.00  0.00     0.032 C 
HETATM   24  C   UNK N   1      34.899  13.768  11.468  0.00  0.00     0.272 C 
ENDBRANCH  19  20
ENDBRANCH  18  19
ENDBRANCH  17  18
ENDBRANCH   3  17
TORSDOF 7
ENDMDL
MODEL 4
REMARK VINA RESULT:      -5.8     15.172     18.537
REMARK  7 active torsions:
REMARK  status: ('A' for Active; 'I' for Inactive)
REMARK    1  A    between atoms: C_3  and  O_16 
REMARK    2  A    between atoms: C_7  and  C_6 
REMARK    3  A    between atoms: C_7  and  O_8 
REMARK    4  A    between atoms: C_9  and  C_7 
REMARK    5  A    between atoms: C_17  and  O_16 
REMARK    6  A    between atoms: C_17  and  C_18 
REMARK    7  A    between atoms: N_19  and  C_18 
ROOT
HETATM    1  C   UNK N   1      32.710  15.891   8.533  0.00  0.00     0.013 A 
HETATM    2  C   UNK N   1      33.831  15.710   9.343  0.00  0.00     0.037 A 
HETATM    3  C   UNK N   1      34.811  16.714   9.439  0.00  0.00     0.068 A 
HETATM    4  C   UNK N   1      34.652  17.895   8.709  0.00  0.00     0.037 A 
HETATM    5  C   UNK N   1      33.541  18.068   7.879  0.00  0.00     0.013 A 
HETATM    6  C   UNK N   1      32.563  17.067   7.791  0.00  0.00    -0.025 A 
ENDROOT
BRANCH   6   7
HETATM    7  C   UNK N   1      31.396  17.227   6.857  0.00  0.00     0.184 C 
BRANCH   7   8
HETATM    8  O   UNK N   1      31.248  16.068   6.088  0.00  0.00    -0.386 OA
HETATM    9  H   UNK N   1      30.727  15.251   6.038  0.00  0.00     0.210 HD
ENDBRANCH   7   8
BRANCH   7  10
HETATM   10  C   UNK N   1      30.159  17.521   7.667  0.00  0.00    -0.023 A 
HETATM   11  C   UNK N   1      30.218  18.265   8.852  0.00  0.00     0.027 A 
HETATM   12  C   UNK N   1      29.040  18.535   9.552  0.00  0.00     0.088 A 
HETATM   13  N   UNK N   1      27.846  18.076   9.087  0.00  0.00    -0.375 N 
HETATM   14  C   UNK N   1      27.764  17.346   7.943  0.00  0.00     0.088 A 
ATOM     15  HN  UNK N   1      26.994  18.285   9.609  1.00  0.00     0.164 HD
HETATM   16  C   UNK N   1      28.917  17.057   7.215  0.00  0.00     0.027 A 
ENDBRANCH   7  10
ENDBRANCH   6   7
BRANCH   3  17
HETATM   17  O   UNK N   1      35.908  16.573  10.225  0.00  0.00    -0.349 OA
BRANCH  17  18
HETATM   18  C   UNK N   1      36.309  15.401  10.847  0.00  0.00     0.206 C 
BRANCH  18  19
HETATM   19  C   UNK N   1      35.857  15.299  12.302  0.00  0.00     0.299 C 
BRANCH  19  20
HETATM   20  N   UNK N   1      35.708  13.914  12.715  0.00  0.00     0.090 N 
HETATM   21  C   UNK N   1      36.056  13.837  14.126  0.00  0.00     0.272 C 
HETATM   22  C   UNK N   1      36.909  12.599  14.331  0.00  0.00     0.032 C 
HETATM   23  C   UNK N   1      37.190  12.065  12.950  0.00  0.00     0.032 C 
HETATM   24  C   UNK N   1      36.738  13.161  12.018  0.00  0.00     0.272 C 
ENDBRANCH  19  20
ENDBRANCH  18  19
ENDBRANCH  17  18
ENDBRANCH   3  17
TORSDOF 7
ENDMDL
MODEL 5
REMARK VINA RESULT:      -5.8     12.868     16.154
REMARK  7 active torsions:
REMARK  status: ('A' for Active; 'I' for Inactive)
REMARK    1  A    between atoms: C_3  and  O_16 
REMARK    2  A    between atoms: C_7  and  C_6 
REMARK    3  A    between atoms: C_7  and  O_8 
REMARK    4  A    between atoms: C_9  and  C_7 
REMARK    5  A    between atoms: C_17  and  O_16 
REMARK    6  A    between atoms: C_17  and  C_18 
REMARK    7  A    between atoms: N_19  and  C_18 
ROOT
HETATM    1  C   UNK N   1      30.589  16.987   6.206  0.00  0.00     0.013 A 
HETATM    2  C   UNK N   1      31.969  17.076   6.388  0.00  0.00     0.037 A 
HETATM    3  C   UNK N   1      32.500  17.592   7.583  0.00  0.00     0.068 A 
HETATM    4  C   UNK N   1      31.628  18.021   8.588  0.00  0.00     0.037 A 
HETATM    5  C   UNK N   1      30.246  17.955   8.398  0.00  0.00     0.013 A 
HETATM    6  C   UNK N   1      29.720  17.434   7.207  0.00  0.00    -0.025 A 
ENDROOT
BRANCH   6   7
HETATM    7  C   UNK N   1      28.234  17.414   6.979  0.00  0.00     0.184 C 
BRANCH   7   8
HETATM    8  O   UNK N   1      27.572  17.372   8.210  0.00  0.00    -0.386 OA
HETATM    9  H   UNK N   1      26.681  17.325   8.593  0.00  0.00     0.210 HD
ENDBRANCH   7   8
BRANCH   7  10
HETATM   10  C   UNK N   1      27.847  18.633   6.179  0.00  0.00    -0.023 A 
HETATM   11  C   UNK N   1      27.628  18.564   4.798  0.00  0.00     0.027 A 
HETATM   12  C   UNK N   1      27.243  19.714   4.106  0.00  0.00     0.088 A 
HETATM   13  N   UNK N   1      27.086  20.892   4.769  0.00  0.00    -0.375 N 
HETATM   14  C   UNK N   1      27.300  20.986   6.108  0.00  0.00     0.088 A 
ATOM     15  HN  UNK N   1      26.802  21.723   4.249  1.00  0.00     0.164 HD
HETATM   16  C   UNK N   1      27.684  19.860   6.835  0.00  0.00     0.027 A 
ENDBRANCH   7  10
ENDBRANCH   6   7
BRANCH   3  17
HETATM   17  O   UNK N   1      33.838  17.682   7.794  0.00  0.00    -0.349 OA
BRANCH  17  18
HETATM   18  C   UNK N   1      34.507  17.240   8.923  0.00  0.00     0.206 C 
BRANCH  18  19
HETATM   19  C   UNK N   1      34.444  15.726   9.114  0.00  0.00     0.299 C 
BRANCH  19  20
HETATM   20  N   UNK N   1      34.301  15.374  10.517  0.00  0.00     0.090 N 
HETATM   21  C   UNK N   1      35.323  16.097  11.257  0.00  0.00     0.272 C 
HETATM   22  C   UNK N   1      35.927  15.146  12.273  0.00  0.00     0.032 C 
HETATM   23  C   UNK N   1      35.336  13.793  11.965  0.00  0.00     0.032 C 
HETATM   24  C   UNK N   1      34.657  13.970  10.630  0.00  0.00     0.272 C 
ENDBRANCH  19  20
ENDBRANCH  18  19
ENDBRANCH  17  18
ENDBRANCH   3  17
TORSDOF 7
ENDMDL
MODEL 6
REMARK VINA RESULT:      -5.7     23.574     26.317
REMARK  7 active torsions:
REMARK  status: ('A' for Active; 'I' for Inactive)
REMARK    1  A    between atoms: C_3  and  O_16 
REMARK    2  A    between atoms: C_7  and  C_6 
REMARK    3  A    between atoms: C_7  and  O_8 
REMARK    4  A    between atoms: C_9  and  C_7 
REMARK    5  A    between atoms: C_17  and  O_16 
REMARK    6  A    between atoms: C_17  and  C_18 
REMARK    7  A    between atoms: N_19  and  C_18 
ROOT
HETATM    1  C   UNK N   1      35.556  10.578  17.322  0.00  0.00     0.013 A 
HETATM    2  C   UNK N   1      35.319  11.262  16.130  0.00  0.00     0.037 A 
HETATM    3  C   UNK N   1      35.006  12.632  16.144  0.00  0.00     0.068 A 
HETATM    4  C   UNK N   1      34.931  13.303  17.368  0.00  0.00     0.037 A 
HETATM    5  C   UNK N   1      35.145  12.615  18.564  0.00  0.00     0.013 A 
HETATM    6  C   UNK N   1      35.462  11.249  18.546  0.00  0.00    -0.025 A 
ENDROOT
BRANCH   6   7
HETATM    7  C   UNK N   1      35.638  10.495  19.834  0.00  0.00     0.184 C 
BRANCH   7   8
HETATM    8  O   UNK N   1      36.220  11.332  20.792  0.00  0.00    -0.386 OA
HETATM    9  H   UNK N   1      36.008  11.822  21.602  0.00  0.00     0.210 HD
ENDBRANCH   7   8
BRANCH   7  10
HETATM   10  C   UNK N   1      34.294   9.980  20.285  0.00  0.00    -0.023 A 
HETATM   11  C   UNK N   1      33.613   8.985  19.574  0.00  0.00     0.027 A 
HETATM   12  C   UNK N   1      32.384   8.522  20.048  0.00  0.00     0.088 A 
HETATM   13  N   UNK N   1      31.852   9.036  21.191  0.00  0.00    -0.375 N 
HETATM   14  C   UNK N   1      32.491  10.008  21.896  0.00  0.00     0.088 A 
ATOM     15  HN  UNK N   1      30.955   8.684  21.526  1.00  0.00     0.164 HD
HETATM   16  C   UNK N   1      33.721  10.496  21.456  0.00  0.00     0.027 A 
ENDBRANCH   7  10
ENDBRANCH   6   7
BRANCH   3  17
HETATM   17  O   UNK N   1      34.779  13.328  15.000  0.00  0.00    -0.349 OA
BRANCH  17  18
HETATM   18  C   UNK N   1      35.740  13.679  14.066  0.00  0.00     0.206 C 
BRANCH  18  19
HETATM   19  C   UNK N   1      35.279  13.498  12.622  0.00  0.00     0.299 C 
BRANCH  19  20
HETATM   20  N   UNK N   1      35.881  12.321  12.017  0.00  0.00     0.090 N 
HETATM   21  C   UNK N   1      34.999  11.194  12.279  0.00  0.00     0.272 C 
HETATM   22  C   UNK N   1      35.859  10.008  12.676  0.00  0.00     0.032 C 
HETATM   23  C   UNK N   1      37.260  10.548  12.807  0.00  0.00     0.032 C 
HETATM   24  C   UNK N   1      37.096  12.046  12.766  0.00  0.00     0.272 C 
ENDBRANCH  19  20
ENDBRANCH  18  19
ENDBRANCH  17  18
ENDBRANCH   3  17
TORSDOF 7
ENDMDL
MODEL 7
REMARK VINA RESULT:      -5.7     15.979     19.414
REMARK  7 active torsions:
REMARK  status: ('A' for Active; 'I' for Inactive)
REMARK    1  A    between atoms: C_3  and  O_16 
REMARK    2  A    between atoms: C_7  and  C_6 
REMARK    3  A    between atoms: C_7  and  O_8 
REMARK    4  A    between atoms: C_9  and  C_7 
REMARK    5  A    between atoms: C_17  and  O_16 
REMARK    6  A    between atoms: C_17  and  C_18 
REMARK    7  A    between atoms: N_19  and  C_18 
ROOT
HETATM    1  C   UNK N   1      34.603  15.413   8.302  0.00  0.00     0.013 A 
HETATM    2  C   UNK N   1      35.151  14.513   9.216  0.00  0.00     0.037 A 
HETATM    3  C   UNK N   1      35.574  14.952  10.483  0.00  0.00     0.068 A 
HETATM    4  C   UNK N   1      35.445  16.303  10.815  0.00  0.00     0.037 A 
HETATM    5  C   UNK N   1      34.918  17.210   9.892  0.00  0.00     0.013 A 
HETATM    6  C   UNK N   1      34.491  16.767   8.631  0.00  0.00    -0.025 A 
ENDROOT
BRANCH   6   7
HETATM    7  C   UNK N   1      33.977  17.750   7.617  0.00  0.00     0.184 C 
BRANCH   7   8
HETATM    8  O   UNK N   1      34.636  17.554   6.399  0.00  0.00    -0.386 OA
HETATM    9  H   UNK N   1      35.459  17.198   6.029  0.00  0.00     0.210 HD
ENDBRANCH   7   8
BRANCH   7  10
HETATM   10  C   UNK N   1      32.486  17.573   7.480  0.00  0.00    -0.023 A 
HETATM   11  C   UNK N   1      31.610  17.893   8.525  0.00  0.00     0.027 A 
HETATM   12  C   UNK N   1      30.234  17.739   8.339  0.00  0.00     0.088 A 
HETATM   13  N   UNK N   1      29.751  17.279   7.153  0.00  0.00    -0.375 N 
HETATM   14  C   UNK N   1      30.581  16.955   6.126  0.00  0.00     0.088 A 
ATOM     15  HN  UNK N   1      28.743  17.175   7.032  1.00  0.00     0.164 HD
HETATM   16  C   UNK N   1      31.960  17.097   6.271  0.00  0.00     0.027 A 
ENDBRANCH   7  10
ENDBRANCH   6   7
BRANCH   3  17
HETATM   17  O   UNK N   1      36.102  14.100  11.398  0.00  0.00    -0.349 OA
BRANCH  17  18
HETATM   18  C   UNK N   1      35.438  13.590  12.502  0.00  0.00     0.206 C 
BRANCH  18  19
HETATM   19  C   UNK N   1      36.368  12.950  13.530  0.00  0.00     0.299 C 
BRANCH  19  20
HETATM   20  N   UNK N   1      35.828  11.693  14.023  0.00  0.00     0.090 N 
HETATM   21  C   UNK N   1      35.284  10.971  12.883  0.00  0.00     0.272 C 
HETATM   22  C   UNK N   1      33.953  10.375  13.297  0.00  0.00     0.032 C 
HETATM   23  C   UNK N   1      33.666  10.934  14.668  0.00  0.00     0.032 C 
HETATM   24  C   UNK N   1      34.683  12.031  14.852  0.00  0.00     0.272 C 
ENDBRANCH  19  20
ENDBRANCH  18  19
ENDBRANCH  17  18
ENDBRANCH   3  17
TORSDOF 7
ENDMDL
MODEL 8
REMARK VINA RESULT:      -5.7     15.296     16.622
REMARK  7 active torsions:
REMARK  status: ('A' for Active; 'I' for Inactive)
REMARK    1  A    between atoms: C_3  and  O_16 
REMARK    2  A    between atoms: C_7  and  C_6 
REMARK    3  A    between atoms: C_7  and  O_8 
REMARK    4  A    between atoms: C_9  and  C_7 
REMARK    5  A    between atoms: C_17  and  O_16 
REMARK    6  A    between atoms: C_17  and  C_18 
REMARK    7  A    between atoms: N_19  and  C_18 
ROOT
HETATM    1  C   UNK N   1      20.682  14.711   8.838  0.00  0.00     0.013 A 
HETATM    2  C   UNK N   1      20.634  16.061   8.492  0.00  0.00     0.037 A 
HETATM    3  C   UNK N   1      21.354  16.540   7.383  0.00  0.00     0.068 A 
HETATM    4  C   UNK N   1      22.124  15.646   6.633  0.00  0.00     0.037 A 
HETATM    5  C   UNK N   1      22.191  14.298   6.992  0.00  0.00     0.013 A 
HETATM    6  C   UNK N   1      21.467  13.824   8.095  0.00  0.00    -0.025 A 
ENDROOT
BRANCH   6   7
HETATM    7  C   UNK N   1      21.583  12.386   8.517  0.00  0.00     0.184 C 
BRANCH   7   8
HETATM    8  O   UNK N   1      22.062  11.622   7.448  0.00  0.00    -0.386 OA
HETATM    9  H   UNK N   1      22.685  11.660   6.705  0.00  0.00     0.210 HD
ENDBRANCH   7   8
BRANCH   7  10
HETATM   10  C   UNK N   1      22.494  12.301   9.715  0.00  0.00    -0.023 A 
HETATM   11  C   UNK N   1      21.988  12.168  11.014  0.00  0.00     0.027 A 
HETATM   12  C   UNK N   1      22.873  12.064  12.089  0.00  0.00     0.088 A 
HETATM   13  N   UNK N   1      24.217  12.096  11.875  0.00  0.00    -0.375 N 
HETATM   14  C   UNK N   1      24.733  12.232  10.625  0.00  0.00     0.088 A 
ATOM     15  HN  UNK N   1      24.850  12.016  12.671  1.00  0.00     0.164 HD
HETATM   16  C   UNK N   1      23.882  12.336   9.525  0.00  0.00     0.027 A 
ENDBRANCH   7  10
ENDBRANCH   6   7
BRANCH   3  17
HETATM   17  O   UNK N   1      21.320  17.846   7.014  0.00  0.00    -0.349 OA
BRANCH  17  18
HETATM   18  C   UNK N   1      21.035  18.317   5.743  0.00  0.00     0.206 C 
BRANCH  18  19
HETATM   19  C   UNK N   1      22.270  18.466   4.858  0.00  0.00     0.299 C 
BRANCH  19  20
HETATM   20  N   UNK N   1      21.903  18.741   3.479  0.00  0.00     0.090 N 
HETATM   21  C   UNK N   1      20.903  19.797   3.493  0.00  0.00     0.272 C 
HETATM   22  C   UNK N   1      19.821  19.430   2.494  0.00  0.00     0.032 C 
HETATM   23  C   UNK N   1      20.147  18.032   2.036  0.00  0.00     0.032 C 
HETATM   24  C   UNK N   1      21.215  17.558   2.990  0.00  0.00     0.272 C 
ENDBRANCH  19  20
ENDBRANCH  18  19
ENDBRANCH  17  18
ENDBRANCH   3  17
TORSDOF 7
ENDMDL
MODEL 9
REMARK VINA RESULT:      -5.7     15.953     19.261
REMARK  7 active torsions:
REMARK  status: ('A' for Active; 'I' for Inactive)
REMARK    1  A    between atoms: C_3  and  O_16 
REMARK    2  A    between atoms: C_7  and  C_6 
REMARK    3  A    between atoms: C_7  and  O_8 
REMARK    4  A    between atoms: C_9  and  C_7 
REMARK    5  A    between atoms: C_17  and  O_16 
REMARK    6  A    between atoms: C_17  and  C_18 
REMARK    7  A    between atoms: N_19  and  C_18 
ROOT
HETATM    1  C   UNK N   1      33.205  15.871   9.120  0.00  0.00     0.013 A 
HETATM    2  C   UNK N   1      33.385  14.922  10.126  0.00  0.00     0.037 A 
HETATM    3  C   UNK N   1      34.431  15.058  11.056  0.00  0.00     0.068 A 
HETATM    4  C   UNK N   1      35.293  16.154  10.958  0.00  0.00     0.037 A 
HETATM    5  C   UNK N   1      35.129  17.092   9.936  0.00  0.00     0.013 A 
HETATM    6  C   UNK N   1      34.081  16.956   9.014  0.00  0.00    -0.025 A 
ENDROOT
BRANCH   6   7
HETATM    7  C   UNK N   1      33.937  17.933   7.881  0.00  0.00     0.184 C 
BRANCH   7   8
HETATM    8  O   UNK N   1      35.018  18.820   7.887  0.00  0.00    -0.386 OA
HETATM    9  H   UNK N   1      35.362  19.597   8.356  0.00  0.00     0.210 HD
ENDBRANCH   7   8
BRANCH   7  10
HETATM   10  C   UNK N   1      33.849  17.168   6.585  0.00  0.00    -0.023 A 
HETATM   11  C   UNK N   1      32.962  17.545   5.570  0.00  0.00     0.027 A 
HETATM   12  C   UNK N   1      32.938  16.820   4.375  0.00  0.00     0.088 A 
HETATM   13  N   UNK N   1      33.768  15.756   4.203  0.00  0.00    -0.375 N 
HETATM   14  C   UNK N   1      34.633  15.366   5.177  0.00  0.00     0.088 A 
ATOM     15  HN  UNK N   1      33.741  15.239   3.323  1.00  0.00     0.164 HD
HETATM   16  C   UNK N   1      34.688  16.064   6.382  0.00  0.00     0.027 A 
ENDBRANCH   7  10
ENDBRANCH   6   7
BRANCH   3  17
HETATM   17  O   UNK N   1      34.627  14.158  12.053  0.00  0.00    -0.349 OA
BRANCH  17  18
HETATM   18  C   UNK N   1      35.676  14.172  12.958  0.00  0.00     0.206 C 
BRANCH  18  19
HETATM   19  C   UNK N   1      36.485  12.877  12.972  0.00  0.00     0.299 C 
BRANCH  19  20
HETATM   20  N   UNK N   1      36.138  12.049  14.115  0.00  0.00     0.090 N 
HETATM   21  C   UNK N   1      35.025  11.199  13.720  0.00  0.00     0.272 C 
HETATM   22  C   UNK N   1      34.027  11.173  14.863  0.00  0.00     0.032 C 
HETATM   23  C   UNK N   1      34.525  12.188  15.861  0.00  0.00     0.032 C 
HETATM   24  C   UNK N   1      35.605  12.944  15.129  0.00  0.00     0.272 C 
ENDBRANCH  19  20
ENDBRANCH  18  19
ENDBRANCH  17  18
ENDBRANCH   3  17
TORSDOF 7
ENDMDL
