REMARK  3 active torsions:
REMARK  status: ('A' for Active; 'I' for Inactive)
REMARK    1  A    between atoms: C_1  and  C_7 
REMARK    2  A    between atoms: C_11  and  C_4 
REMARK    3  A    between atoms: C_11  and  N_12 
ROOT
HETATM    1  C   UNK N   1      -0.142  -0.485   0.002  0.00  0.00    -0.019 A 
HETATM    2  C   UNK N   1       1.011   0.312   0.005  0.00  0.00     0.013 A 
HETATM    3  C   UNK N   1       0.900   1.709   0.005  0.00  0.00     0.009 A 
HETATM    4  C   UNK N   1      -0.361   2.315   0.001  0.00  0.00    -0.041 A 
HETATM    5  C   UNK N   1      -1.511   1.516  -0.002  0.00  0.00     0.009 A 
HETATM    6  C   UNK N   1      -1.402   0.125  -0.002  0.00  0.00     0.013 A 
ENDROOT
BRANCH   1   7
HETATM    7  C   UNK N   1      -0.047  -1.956   0.000  0.00  0.00     0.015 A 
HETATM    8  S   UNK N   1       1.335  -2.866   0.006  0.00  0.00    -0.101 SA
HETATM    9  C   UNK N   1       0.675  -4.391  -0.001  0.00  0.00     0.050 A 
HETATM   10  C   UNK N   1      -0.716  -4.209  -0.007  0.00  0.00     0.008 A 
HETATM   11  C   UNK N   1      -1.122  -2.844  -0.007  0.00  0.00     0.020 A 
ENDBRANCH   1   7
BRANCH   4  12
HETATM   12  C   UNK N   1      -0.452   3.813   0.001  0.00  0.00     0.150 C 
BRANCH  12  13
HETATM   13  N   UNK N   1      -1.832   4.276  -0.001  0.00  0.00    -0.426 N 
HETATM   14  H   UNK N   1      -2.036   5.275  -0.003  0.00  0.00     0.150 HD
HETATM   15  H   UNK N   1      -2.596   3.600  -0.001  0.00  0.00     0.150 HD
ENDBRANCH  12  13
ENDBRANCH   4  12
TORSDOF 3
