MODEL 1
REMARK VINA RESULT:      -5.2      0.000      0.000
REMARK  3 active torsions:
REMARK  status: ('A' for Active; 'I' for Inactive)
REMARK    1  A    between atoms: C_1  and  C_7 
REMARK    2  A    between atoms: C_11  and  C_4 
REMARK    3  A    between atoms: C_11  and  N_12 
ROOT
HETATM    1  C   UNK N   1      34.889  11.648  15.776  0.00  0.00    -0.019 A 
HETATM    2  C   UNK N   1      34.894  12.953  16.288  0.00  0.00     0.013 A 
HETATM    3  C   UNK N   1      35.075  13.169  17.661  0.00  0.00     0.009 A 
HETATM    4  C   UNK N   1      35.249  12.084  18.527  0.00  0.00    -0.041 A 
HETATM    5  C   UNK N   1      35.243  10.782  18.013  0.00  0.00     0.009 A 
HETATM    6  C   UNK N   1      35.063  10.565  16.646  0.00  0.00     0.013 A 
ENDROOT
BRANCH   1   7
HETATM    7  C   UNK N   1      34.699  11.400  14.336  0.00  0.00     0.015 A 
HETATM    8  S   UNK N   1      35.386  12.231  13.081  0.00  0.00    -0.101 SA
HETATM    9  C   UNK N   1      34.727  11.409  11.796  0.00  0.00     0.050 A 
HETATM   10  C   UNK N   1      33.913  10.412  12.353  0.00  0.00     0.008 A 
HETATM   11  C   UNK N   1      33.896  10.406  13.777  0.00  0.00     0.020 A 
ENDBRANCH   1   7
BRANCH   4  12
HETATM   12  C   UNK N   1      35.440  12.343  19.993  0.00  0.00     0.150 C 
BRANCH  12  13
HETATM   13  N   UNK N   1      34.646  13.472  20.456  0.00  0.00    -0.426 N 
HETATM   14  H   UNK N   1      35.058  14.164  21.081  0.00  0.00     0.150 HD
HETATM   15  H   UNK N   1      33.676  13.570  20.155  0.00  0.00     0.150 HD
ENDBRANCH  12  13
ENDBRANCH   4  12
TORSDOF 3
ENDMDL
MODEL 2
REMARK VINA RESULT:      -5.1      1.895      2.342
REMARK  3 active torsions:
REMARK  status: ('A' for Active; 'I' for Inactive)
REMARK    1  A    between atoms: C_1  and  C_7 
REMARK    2  A    between atoms: C_11  and  C_4 
REMARK    3  A    between atoms: C_11  and  N_12 
ROOT
HETATM    1  C   UNK N   1      36.033  12.506  15.863  0.00  0.00    -0.019 A 
HETATM    2  C   UNK N   1      36.048  11.258  16.502  0.00  0.00     0.013 A 
HETATM    3  C   UNK N   1      35.687  11.156  17.852  0.00  0.00     0.009 A 
HETATM    4  C   UNK N   1      35.313  12.297  18.570  0.00  0.00    -0.041 A 
HETATM    5  C   UNK N   1      35.299  13.542  17.929  0.00  0.00     0.009 A 
HETATM    6  C   UNK N   1      35.657  13.645  16.584  0.00  0.00     0.013 A 
ENDROOT
BRANCH   1   7
HETATM    7  C   UNK N   1      36.410  12.636  14.444  0.00  0.00     0.015 A 
HETATM    8  S   UNK N   1      36.069  13.900  13.433  0.00  0.00    -0.101 SA
HETATM    9  C   UNK N   1      36.788  13.356  12.038  0.00  0.00     0.050 A 
HETATM   10  C   UNK N   1      37.341  12.105  12.352  0.00  0.00     0.008 A 
HETATM   11  C   UNK N   1      37.130  11.700  13.701  0.00  0.00     0.020 A 
ENDBRANCH   1   7
BRANCH   4  12
HETATM   12  C   UNK N   1      34.932  12.159  20.015  0.00  0.00     0.150 C 
BRANCH  12  13
HETATM   13  N   UNK N   1      34.562  13.437  20.606  0.00  0.00    -0.426 N 
HETATM   14  H   UNK N   1      35.247  14.191  20.662  0.00  0.00     0.150 HD
HETATM   15  H   UNK N   1      33.618  13.579  20.964  0.00  0.00     0.150 HD
ENDBRANCH  12  13
ENDBRANCH   4  12
TORSDOF 3
ENDMDL
MODEL 3
REMARK VINA RESULT:      -5.1      1.927      2.074
REMARK  3 active torsions:
REMARK  status: ('A' for Active; 'I' for Inactive)
REMARK    1  A    between atoms: C_1  and  C_7 
REMARK    2  A    between atoms: C_11  and  C_4 
REMARK    3  A    between atoms: C_11  and  N_12 
ROOT
HETATM    1  C   UNK N   1      35.957  12.634  15.843  0.00  0.00    -0.019 A 
HETATM    2  C   UNK N   1      35.597  13.723  16.649  0.00  0.00     0.013 A 
HETATM    3  C   UNK N   1      35.276  13.522  17.999  0.00  0.00     0.009 A 
HETATM    4  C   UNK N   1      35.312  12.236  18.547  0.00  0.00    -0.041 A 
HETATM    5  C   UNK N   1      35.673  11.150  17.739  0.00  0.00     0.009 A 
HETATM    6  C   UNK N   1      35.992  11.348  16.396  0.00  0.00     0.013 A 
ENDROOT
BRANCH   1   7
HETATM    7  C   UNK N   1      36.296  12.823  14.421  0.00  0.00     0.015 A 
HETATM    8  S   UNK N   1      37.138  11.781  13.450  0.00  0.00    -0.101 SA
HETATM    9  C   UNK N   1      37.128  12.641  12.028  0.00  0.00     0.050 A 
HETATM   10  C   UNK N   1      36.426  13.825  12.299  0.00  0.00     0.008 A 
HETATM   11  C   UNK N   1      35.959  13.928  13.641  0.00  0.00     0.020 A 
ENDBRANCH   1   7
BRANCH   4  12
HETATM   12  C   UNK N   1      34.964  12.049  19.995  0.00  0.00     0.150 C 
BRANCH  12  13
HETATM   13  N   UNK N   1      34.584  13.302  20.631  0.00  0.00    -0.426 N 
HETATM   14  H   UNK N   1      33.815  13.322  21.301  0.00  0.00     0.150 HD
HETATM   15  H   UNK N   1      35.087  14.160  20.407  0.00  0.00     0.150 HD
ENDBRANCH  12  13
ENDBRANCH   4  12
TORSDOF 3
ENDMDL
MODEL 4
REMARK VINA RESULT:      -5.0     27.959     28.722
REMARK  3 active torsions:
REMARK  status: ('A' for Active; 'I' for Inactive)
REMARK    1  A    between atoms: C_1  and  C_7 
REMARK    2  A    between atoms: C_11  and  C_4 
REMARK    3  A    between atoms: C_11  and  N_12 
ROOT
HETATM    1  C   UNK N   1      26.072  26.879  -6.589  0.00  0.00    -0.019 A 
HETATM    2  C   UNK N   1      25.192  26.908  -5.498  0.00  0.00     0.013 A 
HETATM    3  C   UNK N   1      25.371  27.850  -4.475  0.00  0.00     0.009 A 
HETATM    4  C   UNK N   1      26.428  28.764  -4.537  0.00  0.00    -0.041 A 
HETATM    5  C   UNK N   1      27.305  28.733  -5.629  0.00  0.00     0.009 A 
HETATM    6  C   UNK N   1      27.129  27.796  -6.647  0.00  0.00     0.013 A 
ENDROOT
BRANCH   1   7
HETATM    7  C   UNK N   1      25.903  25.896  -7.673  0.00  0.00     0.015 A 
HETATM    8  S   UNK N   1      25.865  24.248  -7.528  0.00  0.00    -0.101 SA
HETATM    9  C   UNK N   1      25.652  23.824  -9.121  0.00  0.00     0.050 A 
HETATM   10  C   UNK N   1      25.601  25.029  -9.837  0.00  0.00     0.008 A 
HETATM   11  C   UNK N   1      25.742  26.191  -9.027  0.00  0.00     0.020 A 
ENDBRANCH   1   7
BRANCH   4  12
HETATM   12  C   UNK N   1      26.597  29.762  -3.429  0.00  0.00     0.150 C 
BRANCH  12  13
HETATM   13  N   UNK N   1      25.995  31.047  -3.755  0.00  0.00    -0.426 N 
HETATM   14  H   UNK N   1      25.601  31.206  -4.682  0.00  0.00     0.150 HD
HETATM   15  H   UNK N   1      25.967  31.788  -3.055  0.00  0.00     0.150 HD
ENDBRANCH  12  13
ENDBRANCH   4  12
TORSDOF 3
ENDMDL
MODEL 5
REMARK VINA RESULT:      -4.9      3.345      5.721
REMARK  3 active torsions:
REMARK  status: ('A' for Active; 'I' for Inactive)
REMARK    1  A    between atoms: C_1  and  C_7 
REMARK    2  A    between atoms: C_11  and  C_4 
REMARK    3  A    between atoms: C_11  and  N_12 
ROOT
HETATM    1  C   UNK N   1      35.526  12.761  16.063  0.00  0.00    -0.019 A 
HETATM    2  C   UNK N   1      36.431  13.755  15.666  0.00  0.00     0.013 A 
HETATM    3  C   UNK N   1      36.549  14.099  14.313  0.00  0.00     0.009 A 
HETATM    4  C   UNK N   1      35.767  13.451  13.351  0.00  0.00    -0.041 A 
HETATM    5  C   UNK N   1      34.864  12.458  13.750  0.00  0.00     0.009 A 
HETATM    6  C   UNK N   1      34.745  12.115  15.097  0.00  0.00     0.013 A 
ENDROOT
BRANCH   1   7
HETATM    7  C   UNK N   1      35.388  12.383  17.481  0.00  0.00     0.015 A 
HETATM    8  S   UNK N   1      35.445  10.857  18.116  0.00  0.00    -0.101 SA
HETATM    9  C   UNK N   1      35.219  11.207  19.725  0.00  0.00     0.050 A 
HETATM   10  C   UNK N   1      35.088  12.601  19.802  0.00  0.00     0.008 A 
HETATM   11  C   UNK N   1      35.182  13.262  18.544  0.00  0.00     0.020 A 
ENDBRANCH   1   7
BRANCH   4  12
HETATM   12  C   UNK N   1      35.913  13.838  11.908  0.00  0.00     0.150 C 
BRANCH  12  13
HETATM   13  N   UNK N   1      37.309  13.939  11.509  0.00  0.00    -0.426 N 
HETATM   14  H   UNK N   1      38.039  14.021  12.217  0.00  0.00     0.150 HD
HETATM   15  H   UNK N   1      37.558  13.927  10.520  0.00  0.00     0.150 HD
ENDBRANCH  12  13
ENDBRANCH   4  12
TORSDOF 3
ENDMDL
MODEL 6
REMARK VINA RESULT:      -4.8     16.451     18.545
REMARK  3 active torsions:
REMARK  status: ('A' for Active; 'I' for Inactive)
REMARK    1  A    between atoms: C_1  and  C_7 
REMARK    2  A    between atoms: C_11  and  C_4 
REMARK    3  A    between atoms: C_11  and  N_12 
ROOT
HETATM    1  C   UNK N   1      23.896  19.704   3.543  0.00  0.00    -0.019 A 
HETATM    2  C   UNK N   1      24.784  20.504   2.809  0.00  0.00     0.013 A 
HETATM    3  C   UNK N   1      26.144  20.534   3.145  0.00  0.00     0.009 A 
HETATM    4  C   UNK N   1      26.623  19.768   4.213  0.00  0.00    -0.041 A 
HETATM    5  C   UNK N   1      25.734  18.970   4.944  0.00  0.00     0.009 A 
HETATM    6  C   UNK N   1      24.379  18.939   4.611  0.00  0.00     0.013 A 
ENDROOT
BRANCH   1   7
HETATM    7  C   UNK N   1      22.461  19.660   3.207  0.00  0.00     0.015 A 
HETATM    8  S   UNK N   1      21.325  18.628   3.824  0.00  0.00    -0.101 SA
HETATM    9  C   UNK N   1      19.980  19.157   3.003  0.00  0.00     0.050 A 
HETATM   10  C   UNK N   1      20.417  20.210   2.186  0.00  0.00     0.008 A 
HETATM   11  C   UNK N   1      21.809  20.492   2.299  0.00  0.00     0.020 A 
ENDBRANCH   1   7
BRANCH   4  12
HETATM   12  C   UNK N   1      28.084  19.819   4.552  0.00  0.00     0.150 C 
BRANCH  12  13
HETATM   13  N   UNK N   1      28.759  18.566   4.246  0.00  0.00    -0.426 N 
HETATM   14  H   UNK N   1      29.740  18.440   4.494  0.00  0.00     0.150 HD
HETATM   15  H   UNK N   1      28.250  17.813   3.783  0.00  0.00     0.150 HD
ENDBRANCH  12  13
ENDBRANCH   4  12
TORSDOF 3
ENDMDL
MODEL 7
REMARK VINA RESULT:      -4.8     12.850     15.239
REMARK  3 active torsions:
REMARK  status: ('A' for Active; 'I' for Inactive)
REMARK    1  A    between atoms: C_1  and  C_7 
REMARK    2  A    between atoms: C_11  and  C_4 
REMARK    3  A    between atoms: C_11  and  N_12 
ROOT
HETATM    1  C   UNK N   1      27.920  18.961   6.226  0.00  0.00    -0.019 A 
HETATM    2  C   UNK N   1      27.285  20.208   6.306  0.00  0.00     0.013 A 
HETATM    3  C   UNK N   1      26.598  20.719   5.196  0.00  0.00     0.009 A 
HETATM    4  C   UNK N   1      26.545  19.989   4.004  0.00  0.00    -0.041 A 
HETATM    5  C   UNK N   1      27.181  18.744   3.928  0.00  0.00     0.009 A 
HETATM    6  C   UNK N   1      27.864  18.233   5.032  0.00  0.00     0.013 A 
ENDROOT
BRANCH   1   7
HETATM    7  C   UNK N   1      28.649  18.406   7.381  0.00  0.00     0.015 A 
HETATM    8  S   UNK N   1      29.941  17.373   7.343  0.00  0.00    -0.101 SA
HETATM    9  C   UNK N   1      30.213  17.192   8.972  0.00  0.00     0.050 A 
HETATM   10  C   UNK N   1      29.247  17.981   9.614  0.00  0.00     0.008 A 
HETATM   11  C   UNK N   1      28.369  18.661   8.723  0.00  0.00     0.020 A 
ENDBRANCH   1   7
BRANCH   4  12
HETATM   12  C   UNK N   1      25.803  20.560   2.830  0.00  0.00     0.150 C 
BRANCH  12  13
HETATM   13  N   UNK N   1      24.366  20.594   3.057  0.00  0.00    -0.426 N 
HETATM   14  H   UNK N   1      23.765  21.148   2.447  0.00  0.00     0.150 HD
HETATM   15  H   UNK N   1      23.959  20.064   3.828  0.00  0.00     0.150 HD
ENDBRANCH  12  13
ENDBRANCH   4  12
TORSDOF 3
ENDMDL
MODEL 8
REMARK VINA RESULT:      -4.8     16.772     19.078
REMARK  3 active torsions:
REMARK  status: ('A' for Active; 'I' for Inactive)
REMARK    1  A    between atoms: C_1  and  C_7 
REMARK    2  A    between atoms: C_11  and  C_4 
REMARK    3  A    between atoms: C_11  and  N_12 
ROOT
HETATM    1  C   UNK N   1      23.816  19.337   3.676  0.00  0.00    -0.019 A 
HETATM    2  C   UNK N   1      22.965  18.318   4.126  0.00  0.00     0.013 A 
HETATM    3  C   UNK N   1      21.597  18.361   3.825  0.00  0.00     0.009 A 
HETATM    4  C   UNK N   1      21.074  19.419   3.074  0.00  0.00    -0.041 A 
HETATM    5  C   UNK N   1      21.926  20.436   2.626  0.00  0.00     0.009 A 
HETATM    6  C   UNK N   1      23.289  20.395   2.926  0.00  0.00     0.013 A 
ENDROOT
BRANCH   1   7
HETATM    7  C   UNK N   1      25.257  19.312   3.984  0.00  0.00     0.015 A 
HETATM    8  S   UNK N   1      26.079  18.140   4.814  0.00  0.00    -0.101 SA
HETATM    9  C   UNK N   1      27.613  18.778   4.768  0.00  0.00     0.050 A 
HETATM   10  C   UNK N   1      27.507  19.987   4.063  0.00  0.00     0.008 A 
HETATM   11  C   UNK N   1      26.186  20.287   3.624  0.00  0.00     0.020 A 
ENDBRANCH   1   7
BRANCH   4  12
HETATM   12  C   UNK N   1      19.605  19.441   2.765  0.00  0.00     0.150 C 
BRANCH  12  13
HETATM   13  N   UNK N   1      19.159  18.200   2.149  0.00  0.00    -0.426 N 
HETATM   14  H   UNK N   1      18.574  18.225   1.314  0.00  0.00     0.150 HD
HETATM   15  H   UNK N   1      19.432  17.304   2.552  0.00  0.00     0.150 HD
ENDBRANCH  12  13
ENDBRANCH   4  12
TORSDOF 3
ENDMDL
MODEL 9
REMARK VINA RESULT:      -4.5     10.370     12.534
REMARK  3 active torsions:
REMARK  status: ('A' for Active; 'I' for Inactive)
REMARK    1  A    between atoms: C_1  and  C_7 
REMARK    2  A    between atoms: C_11  and  C_4 
REMARK    3  A    between atoms: C_11  and  N_12 
ROOT
HETATM    1  C   UNK N   1      29.377  17.861   6.661  0.00  0.00    -0.019 A 
HETATM    2  C   UNK N   1      29.579  18.116   8.024  0.00  0.00     0.013 A 
HETATM    3  C   UNK N   1      30.520  17.372   8.748  0.00  0.00     0.009 A 
HETATM    4  C   UNK N   1      31.263  16.370   8.114  0.00  0.00    -0.041 A 
HETATM    5  C   UNK N   1      31.059  16.117   6.752  0.00  0.00     0.009 A 
HETATM    6  C   UNK N   1      30.122  16.857   6.030  0.00  0.00     0.013 A 
ENDROOT
BRANCH   1   7
HETATM    7  C   UNK N   1      28.391  18.631   5.882  0.00  0.00     0.015 A 
HETATM    8  S   UNK N   1      27.435  19.866   6.428  0.00  0.00    -0.101 SA
HETATM    9  C   UNK N   1      26.609  20.229   5.032  0.00  0.00     0.050 A 
HETATM   10  C   UNK N   1      27.093  19.344   4.057  0.00  0.00     0.008 A 
HETATM   11  C   UNK N   1      28.091  18.447   4.533  0.00  0.00     0.020 A 
ENDBRANCH   1   7
BRANCH   4  12
HETATM   12  C   UNK N   1      32.264  15.587   8.911  0.00  0.00     0.150 C 
BRANCH  12  13
HETATM   13  N   UNK N   1      31.763  15.248  10.235  0.00  0.00    -0.426 N 
HETATM   14  H   UNK N   1      32.325  15.449  11.062  0.00  0.00     0.150 HD
HETATM   15  H   UNK N   1      30.848  14.809  10.336  0.00  0.00     0.150 HD
ENDBRANCH  12  13
ENDBRANCH   4  12
TORSDOF 3
ENDMDL
