MODEL 1
REMARK VINA RESULT:      -6.6      0.000      0.000
REMARK  6 active torsions:
REMARK  status: ('A' for Active; 'I' for Inactive)
REMARK    1  A    between atoms: C_5  and  C_6 
REMARK    2  A    between atoms: C_6  and  O_7 
REMARK    3  A    between atoms: O_7  and  C_8 
REMARK    4  A    between atoms: C_11  and  N_14 
REMARK    5  A    between atoms: N_14  and  C_15 
REMARK    6  A    between atoms: C_15  and  C_16 
ROOT
HETATM    1  C   UNK N   1      33.379  17.371   6.462  0.00  0.00     0.069 A 
HETATM    2  C   UNK N   1      33.461  17.568   5.075  0.00  0.00     0.039 A 
HETATM    3  C   UNK N   1      32.295  17.577   4.292  0.00  0.00     0.032 A 
HETATM    4  C   UNK N   1      31.043  17.385   4.891  0.00  0.00     0.028 A 
HETATM    5  C   UNK N   1      30.967  17.173   6.274  0.00  0.00     0.032 A 
HETATM    6  C   UNK N   1      32.120  17.165   7.049  0.00  0.00     0.039 A 
ENDROOT
BRANCH   4   7
HETATM    7  N   UNK N   1      29.858  17.435   4.113  0.00  0.00    -0.386 N 
HETATM    8  H   UNK N   1      29.916  17.543   3.136  0.00  0.00     0.160 HD
BRANCH   7   9
HETATM    9  C   UNK N   1      28.563  17.325   4.750  0.00  0.00     0.158 C 
BRANCH   9  10
HETATM   10  C   UNK N   1      27.926  18.641   5.062  0.00  0.00    -0.041 A 
HETATM   11  C   UNK N   1      27.334  19.353   4.013  0.00  0.00     0.009 A 
HETATM   12  C   UNK N   1      26.719  20.584   4.252  0.00  0.00     0.001 A 
HETATM   13  C   UNK N   1      26.695  21.111   5.546  0.00  0.00     0.000 A 
HETATM   14  C   UNK N   1      27.285  20.405   6.600  0.00  0.00     0.001 A 
HETATM   15  C   UNK N   1      27.900  19.172   6.360  0.00  0.00     0.009 A 
ENDBRANCH   9  10
ENDBRANCH   7   9
ENDBRANCH   4   7
BRANCH   1  16
HETATM   16  O   UNK N   1      34.501  17.407   7.222  0.00  0.00    -0.349 OA
BRANCH  16  17
HETATM   17  C   UNK N   1      34.436  17.653   8.581  0.00  0.00     0.200 C 
BRANCH  17  18
HETATM   18  C   UNK N   1      35.171  16.605   9.393  0.00  0.00     0.101 C 
HETATM   19  N   UNK N   1      34.900  16.778  10.812  0.00  0.00    -0.415 N 
HETATM   20  C   UNK N   1      34.895  15.432  11.385  0.00  0.00     0.114 C 
HETATM   21  H   UNK N   1      34.746  17.657  11.306  0.00  0.00     0.153 HD
HETATM   22  C   UNK N   1      34.931  14.425  10.249  0.00  0.00     0.021 C 
HETATM   23  C   UNK N   1      34.643  15.244   9.024  0.00  0.00     0.028 C 
ENDBRANCH  17  18
ENDBRANCH  16  17
ENDBRANCH   1  16
TORSDOF 6
ENDMDL
MODEL 2
REMARK VINA RESULT:      -6.6      8.245     14.213
REMARK  6 active torsions:
REMARK  status: ('A' for Active; 'I' for Inactive)
REMARK    1  A    between atoms: C_5  and  C_6 
REMARK    2  A    between atoms: C_6  and  O_7 
REMARK    3  A    between atoms: O_7  and  C_8 
REMARK    4  A    between atoms: C_11  and  N_14 
REMARK    5  A    between atoms: N_14  and  C_15 
REMARK    6  A    between atoms: C_15  and  C_16 
ROOT
HETATM    1  C   UNK N   1      34.959  12.805  16.163  0.00  0.00     0.069 A 
HETATM    2  C   UNK N   1      35.297  11.475  16.456  0.00  0.00     0.039 A 
HETATM    3  C   UNK N   1      35.546  11.085  17.782  0.00  0.00     0.032 A 
HETATM    4  C   UNK N   1      35.462  12.023  18.820  0.00  0.00     0.028 A 
HETATM    5  C   UNK N   1      35.140  13.353  18.520  0.00  0.00     0.032 A 
HETATM    6  C   UNK N   1      34.892  13.739  17.209  0.00  0.00     0.039 A 
ENDROOT
BRANCH   4   7
HETATM    7  N   UNK N   1      35.671  11.627  20.166  0.00  0.00    -0.386 N 
HETATM    8  H   UNK N   1      35.886  12.302  20.849  0.00  0.00     0.160 HD
BRANCH   7   9
HETATM    9  C   UNK N   1      35.567  10.232  20.540  0.00  0.00     0.158 C 
BRANCH   9  10
HETATM   10  C   UNK N   1      34.161   9.742  20.667  0.00  0.00    -0.041 A 
HETATM   11  C   UNK N   1      33.709   8.787  19.749  0.00  0.00     0.009 A 
HETATM   12  C   UNK N   1      32.406   8.290  19.829  0.00  0.00     0.001 A 
HETATM   13  C   UNK N   1      31.546   8.749  20.830  0.00  0.00     0.000 A 
HETATM   14  C   UNK N   1      31.990   9.703  21.752  0.00  0.00     0.001 A 
HETATM   15  C   UNK N   1      33.296  10.199  21.672  0.00  0.00     0.009 A 
ENDBRANCH   9  10
ENDBRANCH   7   9
ENDBRANCH   4   7
BRANCH   1  16
HETATM   16  O   UNK N   1      34.674  13.170  14.889  0.00  0.00    -0.349 OA
BRANCH  16  17
HETATM   17  C   UNK N   1      35.035  12.372  13.820  0.00  0.00     0.200 C 
BRANCH  17  18
HETATM   18  C   UNK N   1      35.496  13.182  12.624  0.00  0.00     0.101 C 
HETATM   19  N   UNK N   1      34.368  13.511  11.766  0.00  0.00    -0.415 N 
HETATM   20  C   UNK N   1      34.662  14.831  11.208  0.00  0.00     0.114 C 
HETATM   21  H   UNK N   1      33.542  12.939  11.589  0.00  0.00     0.153 HD
HETATM   22  C   UNK N   1      35.873  15.400  11.927  0.00  0.00     0.021 C 
HETATM   23  C   UNK N   1      36.054  14.494  13.110  0.00  0.00     0.028 C 
ENDBRANCH  17  18
ENDBRANCH  16  17
ENDBRANCH   1  16
TORSDOF 6
ENDMDL
MODEL 3
REMARK VINA RESULT:      -6.4      9.058     14.327
REMARK  6 active torsions:
REMARK  status: ('A' for Active; 'I' for Inactive)
REMARK    1  A    between atoms: C_5  and  C_6 
REMARK    2  A    between atoms: C_6  and  O_7 
REMARK    3  A    between atoms: O_7  and  C_8 
REMARK    4  A    between atoms: C_11  and  N_14 
REMARK    5  A    between atoms: N_14  and  C_15 
REMARK    6  A    between atoms: C_15  and  C_16 
ROOT
HETATM    1  C   UNK N   1      35.167  12.863  16.328  0.00  0.00     0.069 A 
HETATM    2  C   UNK N   1      34.961  13.709  17.428  0.00  0.00     0.039 A 
HETATM    3  C   UNK N   1      35.136  13.225  18.734  0.00  0.00     0.032 A 
HETATM    4  C   UNK N   1      35.514  11.893  18.947  0.00  0.00     0.028 A 
HETATM    5  C   UNK N   1      35.704  11.047  17.846  0.00  0.00     0.032 A 
HETATM    6  C   UNK N   1      35.532  11.526  16.553  0.00  0.00     0.039 A 
ENDROOT
BRANCH   4   7
HETATM    7  N   UNK N   1      35.734  11.409  20.262  0.00  0.00    -0.386 N 
HETATM    8  H   UNK N   1      35.988  12.033  20.979  0.00  0.00     0.160 HD
BRANCH   7   9
HETATM    9  C   UNK N   1      35.584   9.998  20.554  0.00  0.00     0.158 C 
BRANCH   9  10
HETATM   10  C   UNK N   1      34.163   9.539  20.614  0.00  0.00    -0.041 A 
HETATM   11  C   UNK N   1      33.346  10.051  21.629  0.00  0.00     0.009 A 
HETATM   12  C   UNK N   1      32.009   9.661  21.724  0.00  0.00     0.001 A 
HETATM   13  C   UNK N   1      31.480   8.753  20.803  0.00  0.00     0.000 A 
HETATM   14  C   UNK N   1      32.290   8.237  19.785  0.00  0.00     0.001 A 
HETATM   15  C   UNK N   1      33.630   8.629  19.690  0.00  0.00     0.009 A 
ENDBRANCH   9  10
ENDBRANCH   7   9
ENDBRANCH   4   7
BRANCH   1  16
HETATM   16  O   UNK N   1      35.042  13.344  15.066  0.00  0.00    -0.349 OA
BRANCH  16  17
HETATM   17  C   UNK N   1      36.142  13.786  14.357  0.00  0.00     0.200 C 
BRANCH  17  18
HETATM   18  C   UNK N   1      35.880  13.851  12.865  0.00  0.00     0.101 C 
HETATM   19  N   UNK N   1      37.129  13.769  12.124  0.00  0.00    -0.415 N 
HETATM   20  C   UNK N   1      36.816  13.043  10.893  0.00  0.00     0.114 C 
HETATM   21  H   UNK N   1      38.036  14.140  12.405  0.00  0.00     0.153 HD
HETATM   22  C   UNK N   1      35.411  12.480  11.008  0.00  0.00     0.021 C 
HETATM   23  C   UNK N   1      35.068  12.649  12.460  0.00  0.00     0.028 C 
ENDBRANCH  17  18
ENDBRANCH  16  17
ENDBRANCH   1  16
TORSDOF 6
ENDMDL
MODEL 4
REMARK VINA RESULT:      -6.4     11.511     13.959
REMARK  6 active torsions:
REMARK  status: ('A' for Active; 'I' for Inactive)
REMARK    1  A    between atoms: C_5  and  C_6 
REMARK    2  A    between atoms: C_6  and  O_7 
REMARK    3  A    between atoms: O_7  and  C_8 
REMARK    4  A    between atoms: C_11  and  N_14 
REMARK    5  A    between atoms: N_14  and  C_15 
REMARK    6  A    between atoms: C_15  and  C_16 
ROOT
HETATM    1  C   UNK N   1      28.655  23.446  -3.522  0.00  0.00     0.069 A 
HETATM    2  C   UNK N   1      27.472  23.907  -2.926  0.00  0.00     0.039 A 
HETATM    3  C   UNK N   1      26.419  24.386  -3.722  0.00  0.00     0.032 A 
HETATM    4  C   UNK N   1      26.546  24.410  -5.118  0.00  0.00     0.028 A 
HETATM    5  C   UNK N   1      27.736  23.964  -5.708  0.00  0.00     0.032 A 
HETATM    6  C   UNK N   1      28.777  23.489  -4.920  0.00  0.00     0.039 A 
ENDROOT
BRANCH   4   7
HETATM    7  N   UNK N   1      25.471  24.853  -5.930  0.00  0.00    -0.386 N 
HETATM    8  H   UNK N   1      24.621  24.357  -5.933  0.00  0.00     0.160 HD
BRANCH   7   9
HETATM    9  C   UNK N   1      25.619  26.035  -6.754  0.00  0.00     0.158 C 
BRANCH   9  10
HETATM   10  C   UNK N   1      26.073  27.245  -6.002  0.00  0.00    -0.041 A 
HETATM   11  C   UNK N   1      27.179  27.949  -6.491  0.00  0.00     0.009 A 
HETATM   12  C   UNK N   1      27.638  29.091  -5.831  0.00  0.00     0.001 A 
HETATM   13  C   UNK N   1      26.993  29.534  -4.674  0.00  0.00     0.000 A 
HETATM   14  C   UNK N   1      25.886  28.835  -4.178  0.00  0.00     0.001 A 
HETATM   15  C   UNK N   1      25.425  27.693  -4.841  0.00  0.00     0.009 A 
ENDBRANCH   9  10
ENDBRANCH   7   9
ENDBRANCH   4   7
BRANCH   1  16
HETATM   16  O   UNK N   1      29.653  22.942  -2.755  0.00  0.00    -0.349 OA
BRANCH  16  17
HETATM   17  C   UNK N   1      30.975  23.265  -2.998  0.00  0.00     0.200 C 
BRANCH  17  18
HETATM   18  C   UNK N   1      31.832  22.039  -3.246  0.00  0.00     0.101 C 
HETATM   19  N   UNK N   1      30.996  20.874  -3.493  0.00  0.00    -0.415 N 
HETATM   20  C   UNK N   1      31.728  20.054  -4.458  0.00  0.00     0.114 C 
HETATM   21  H   UNK N   1      30.087  20.671  -3.078  0.00  0.00     0.153 HD
HETATM   22  C   UNK N   1      32.911  20.855  -4.972  0.00  0.00     0.021 C 
HETATM   23  C   UNK N   1      32.639  22.254  -4.499  0.00  0.00     0.028 C 
ENDBRANCH  17  18
ENDBRANCH  16  17
ENDBRANCH   1  16
TORSDOF 6
ENDMDL
MODEL 5
REMARK VINA RESULT:      -6.4      3.592     10.257
REMARK  6 active torsions:
REMARK  status: ('A' for Active; 'I' for Inactive)
REMARK    1  A    between atoms: C_5  and  C_6 
REMARK    2  A    between atoms: C_6  and  O_7 
REMARK    3  A    between atoms: O_7  and  C_8 
REMARK    4  A    between atoms: C_11  and  N_14 
REMARK    5  A    between atoms: N_14  and  C_15 
REMARK    6  A    between atoms: C_15  and  C_16 
ROOT
HETATM    1  C   UNK N   1      34.376  15.389  10.138  0.00  0.00     0.069 A 
HETATM    2  C   UNK N   1      34.448  14.003  10.346  0.00  0.00     0.039 A 
HETATM    3  C   UNK N   1      35.301  13.481  11.333  0.00  0.00     0.032 A 
HETATM    4  C   UNK N   1      36.088  14.340  12.111  0.00  0.00     0.028 A 
HETATM    5  C   UNK N   1      36.024  15.722  11.888  0.00  0.00     0.032 A 
HETATM    6  C   UNK N   1      35.180  16.240  10.914  0.00  0.00     0.039 A 
ENDROOT
BRANCH   4   7
HETATM    7  N   UNK N   1      36.919  13.822  13.137  0.00  0.00    -0.386 N 
HETATM    8  H   UNK N   1      37.887  13.999  13.121  0.00  0.00     0.160 HD
BRANCH   7   9
HETATM    9  C   UNK N   1      36.348  13.036  14.210  0.00  0.00     0.158 C 
BRANCH   9  10
HETATM   10  C   UNK N   1      36.282  13.754  15.519  0.00  0.00    -0.041 A 
HETATM   11  C   UNK N   1      37.105  14.870  15.703  0.00  0.00     0.009 A 
HETATM   12  C   UNK N   1      37.076  15.581  16.904  0.00  0.00     0.001 A 
HETATM   13  C   UNK N   1      36.220  15.177  17.932  0.00  0.00     0.000 A 
HETATM   14  C   UNK N   1      35.393  14.062  17.757  0.00  0.00     0.001 A 
HETATM   15  C   UNK N   1      35.423  13.351  16.553  0.00  0.00     0.009 A 
ENDBRANCH   9  10
ENDBRANCH   7   9
ENDBRANCH   4   7
BRANCH   1  16
HETATM   16  O   UNK N   1      33.519  15.895   9.217  0.00  0.00    -0.349 OA
BRANCH  16  17
HETATM   17  C   UNK N   1      33.660  17.185   8.742  0.00  0.00     0.200 C 
BRANCH  17  18
HETATM   18  C   UNK N   1      32.407  17.685   8.049  0.00  0.00     0.101 C 
HETATM   19  N   UNK N   1      32.490  17.449   6.615  0.00  0.00    -0.415 N 
HETATM   20  C   UNK N   1      31.124  17.164   6.178  0.00  0.00     0.114 C 
HETATM   21  H   UNK N   1      33.328  17.476   6.035  0.00  0.00     0.153 HD
HETATM   22  C   UNK N   1      30.248  16.997   7.407  0.00  0.00     0.021 C 
HETATM   23  C   UNK N   1      31.227  16.890   8.541  0.00  0.00     0.028 C 
ENDBRANCH  17  18
ENDBRANCH  16  17
ENDBRANCH   1  16
TORSDOF 6
ENDMDL
MODEL 6
REMARK VINA RESULT:      -6.3      1.877      2.478
REMARK  6 active torsions:
REMARK  status: ('A' for Active; 'I' for Inactive)
REMARK    1  A    between atoms: C_5  and  C_6 
REMARK    2  A    between atoms: C_6  and  O_7 
REMARK    3  A    between atoms: O_7  and  C_8 
REMARK    4  A    between atoms: C_11  and  N_14 
REMARK    5  A    between atoms: N_14  and  C_15 
REMARK    6  A    between atoms: C_15  and  C_16 
ROOT
HETATM    1  C   UNK N   1      31.435  17.786   8.287  0.00  0.00     0.069 A 
HETATM    2  C   UNK N   1      31.040  17.136   7.107  0.00  0.00     0.039 A 
HETATM    3  C   UNK N   1      29.693  17.149   6.711  0.00  0.00     0.032 A 
HETATM    4  C   UNK N   1      28.734  17.807   7.493  0.00  0.00     0.028 A 
HETATM    5  C   UNK N   1      29.131  18.441   8.679  0.00  0.00     0.032 A 
HETATM    6  C   UNK N   1      30.464  18.430   9.070  0.00  0.00     0.039 A 
ENDROOT
BRANCH   4   7
HETATM    7  N   UNK N   1      27.379  17.860   7.078  0.00  0.00    -0.386 N 
HETATM    8  H   UNK N   1      26.697  18.245   7.673  0.00  0.00     0.160 HD
BRANCH   7   9
HETATM    9  C   UNK N   1      26.996  17.350   5.778  0.00  0.00     0.158 C 
BRANCH   9  10
HETATM   10  C   UNK N   1      26.496  18.399   4.838  0.00  0.00    -0.041 A 
HETATM   11  C   UNK N   1      25.142  18.380   4.486  0.00  0.00     0.009 A 
HETATM   12  C   UNK N   1      24.623  19.343   3.617  0.00  0.00     0.001 A 
HETATM   13  C   UNK N   1      25.459  20.333   3.095  0.00  0.00     0.000 A 
HETATM   14  C   UNK N   1      26.815  20.360   3.443  0.00  0.00     0.001 A 
HETATM   15  C   UNK N   1      27.333  19.395   4.313  0.00  0.00     0.009 A 
ENDBRANCH   9  10
ENDBRANCH   7   9
ENDBRANCH   4   7
BRANCH   1  16
HETATM   16  O   UNK N   1      32.743  17.812   8.644  0.00  0.00    -0.349 OA
BRANCH  16  17
HETATM   17  C   UNK N   1      33.683  17.054   7.972  0.00  0.00     0.200 C 
BRANCH  17  18
HETATM   18  C   UNK N   1      34.639  16.350   8.915  0.00  0.00     0.101 C 
HETATM   19  N   UNK N   1      35.104  17.266   9.945  0.00  0.00    -0.415 N 
HETATM   20  C   UNK N   1      35.277  16.456  11.150  0.00  0.00     0.114 C 
HETATM   21  H   UNK N   1      35.275  18.267   9.847  0.00  0.00     0.153 HD
HETATM   22  C   UNK N   1      34.683  15.082  10.898  0.00  0.00     0.021 C 
HETATM   23  C   UNK N   1      33.899  15.250   9.629  0.00  0.00     0.028 C 
ENDBRANCH  17  18
ENDBRANCH  16  17
ENDBRANCH   1  16
TORSDOF 6
ENDMDL
MODEL 7
REMARK VINA RESULT:      -6.3      4.631     10.975
REMARK  6 active torsions:
REMARK  status: ('A' for Active; 'I' for Inactive)
REMARK    1  A    between atoms: C_5  and  C_6 
REMARK    2  A    between atoms: C_6  and  O_7 
REMARK    3  A    between atoms: O_7  and  C_8 
REMARK    4  A    between atoms: C_11  and  N_14 
REMARK    5  A    between atoms: N_14  and  C_15 
REMARK    6  A    between atoms: C_15  and  C_16 
ROOT
HETATM    1  C   UNK N   1      35.727  14.303  10.612  0.00  0.00     0.069 A 
HETATM    2  C   UNK N   1      36.732  13.325  10.598  0.00  0.00     0.039 A 
HETATM    3  C   UNK N   1      37.210  12.785  11.803  0.00  0.00     0.032 A 
HETATM    4  C   UNK N   1      36.688  13.223  13.028  0.00  0.00     0.028 A 
HETATM    5  C   UNK N   1      35.695  14.212  13.037  0.00  0.00     0.032 A 
HETATM    6  C   UNK N   1      35.221  14.746  11.845  0.00  0.00     0.039 A 
ENDROOT
BRANCH   4   7
HETATM    7  N   UNK N   1      37.135  12.652  14.246  0.00  0.00    -0.386 N 
HETATM    8  H   UNK N   1      37.988  12.943  14.641  0.00  0.00     0.160 HD
BRANCH   7   9
HETATM    9  C   UNK N   1      36.339  11.644  14.914  0.00  0.00     0.158 C 
BRANCH   9  10
HETATM   10  C   UNK N   1      35.917  12.022  16.297  0.00  0.00    -0.041 A 
HETATM   11  C   UNK N   1      35.660  13.371  16.564  0.00  0.00     0.009 A 
HETATM   12  C   UNK N   1      35.255  13.776  17.837  0.00  0.00     0.001 A 
HETATM   13  C   UNK N   1      35.106  12.830  18.855  0.00  0.00     0.000 A 
HETATM   14  C   UNK N   1      35.361  11.479  18.597  0.00  0.00     0.001 A 
HETATM   15  C   UNK N   1      35.766  11.074  17.320  0.00  0.00     0.009 A 
ENDBRANCH   9  10
ENDBRANCH   7   9
ENDBRANCH   4   7
BRANCH   1  16
HETATM   16  O   UNK N   1      35.235  14.790   9.446  0.00  0.00    -0.349 OA
BRANCH  16  17
HETATM   17  C   UNK N   1      33.888  14.706   9.147  0.00  0.00     0.200 C 
BRANCH  17  18
HETATM   18  C   UNK N   1      33.360  15.971   8.501  0.00  0.00     0.101 C 
HETATM   19  N   UNK N   1      33.848  17.146   9.207  0.00  0.00    -0.415 N 
HETATM   20  C   UNK N   1      34.026  18.179   8.188  0.00  0.00     0.114 C 
HETATM   21  H   UNK N   1      34.029  17.231  10.207  0.00  0.00     0.153 HD
HETATM   22  C   UNK N   1      33.865  17.540   6.820  0.00  0.00     0.021 C 
HETATM   23  C   UNK N   1      33.899  16.065   7.099  0.00  0.00     0.028 C 
ENDBRANCH  17  18
ENDBRANCH  16  17
ENDBRANCH   1  16
TORSDOF 6
ENDMDL
MODEL 8
REMARK VINA RESULT:      -6.3     10.122     14.704
REMARK  6 active torsions:
REMARK  status: ('A' for Active; 'I' for Inactive)
REMARK    1  A    between atoms: C_5  and  C_6 
REMARK    2  A    between atoms: C_6  and  O_7 
REMARK    3  A    between atoms: O_7  and  C_8 
REMARK    4  A    between atoms: C_11  and  N_14 
REMARK    5  A    between atoms: N_14  and  C_15 
REMARK    6  A    between atoms: C_15  and  C_16 
ROOT
HETATM    1  C   UNK N   1      35.315  12.616  17.067  0.00  0.00     0.069 A 
HETATM    2  C   UNK N   1      35.320  11.222  16.909  0.00  0.00     0.039 A 
HETATM    3  C   UNK N   1      35.239  10.383  18.033  0.00  0.00     0.032 A 
HETATM    4  C   UNK N   1      35.158  10.934  19.319  0.00  0.00     0.028 A 
HETATM    5  C   UNK N   1      35.170  12.327  19.472  0.00  0.00     0.032 A 
HETATM    6  C   UNK N   1      35.248  13.157  18.361  0.00  0.00     0.039 A 
ENDROOT
BRANCH   4   7
HETATM    7  N   UNK N   1      35.033  10.094  20.454  0.00  0.00    -0.386 N 
HETATM    8  H   UNK N   1      35.815   9.597  20.786  0.00  0.00     0.160 HD
BRANCH   7   9
HETATM    9  C   UNK N   1      33.759   9.965  21.130  0.00  0.00     0.158 C 
BRANCH   9  10
HETATM   10  C   UNK N   1      32.898   8.866  20.598  0.00  0.00    -0.041 A 
HETATM   11  C   UNK N   1      33.526   7.728  20.078  0.00  0.00     0.009 A 
HETATM   12  C   UNK N   1      32.767   6.669  19.576  0.00  0.00     0.001 A 
HETATM   13  C   UNK N   1      31.372   6.743  19.589  0.00  0.00     0.000 A 
HETATM   14  C   UNK N   1      30.736   7.877  20.107  0.00  0.00     0.001 A 
HETATM   15  C   UNK N   1      31.497   8.937  20.611  0.00  0.00     0.009 A 
ENDBRANCH   9  10
ENDBRANCH   7   9
ENDBRANCH   4   7
BRANCH   1  16
HETATM   16  O   UNK N   1      35.348  13.425  15.979  0.00  0.00    -0.349 OA
BRANCH  16  17
HETATM   17  C   UNK N   1      36.495  13.555  15.219  0.00  0.00     0.200 C 
BRANCH  17  18
HETATM   18  C   UNK N   1      36.337  12.966  13.831  0.00  0.00     0.101 C 
HETATM   19  N   UNK N   1      36.820  13.898  12.824  0.00  0.00    -0.415 N 
HETATM   20  C   UNK N   1      37.394  13.075  11.760  0.00  0.00     0.114 C 
HETATM   21  H   UNK N   1      36.769  14.916  12.854  0.00  0.00     0.153 HD
HETATM   22  C   UNK N   1      37.465  11.638  12.246  0.00  0.00     0.021 C 
HETATM   23  C   UNK N   1      37.203  11.738  13.721  0.00  0.00     0.028 C 
ENDBRANCH  17  18
ENDBRANCH  16  17
ENDBRANCH   1  16
TORSDOF 6
ENDMDL
MODEL 9
REMARK VINA RESULT:      -6.2      3.458      9.959
REMARK  6 active torsions:
REMARK  status: ('A' for Active; 'I' for Inactive)
REMARK    1  A    between atoms: C_5  and  C_6 
REMARK    2  A    between atoms: C_6  and  O_7 
REMARK    3  A    between atoms: O_7  and  C_8 
REMARK    4  A    between atoms: C_11  and  N_14 
REMARK    5  A    between atoms: N_14  and  C_15 
REMARK    6  A    between atoms: C_15  and  C_16 
ROOT
HETATM    1  C   UNK N   1      35.298  15.741   9.432  0.00  0.00     0.069 A 
HETATM    2  C   UNK N   1      35.834  14.452   9.286  0.00  0.00     0.039 A 
HETATM    3  C   UNK N   1      36.372  13.781  10.396  0.00  0.00     0.032 A 
HETATM    4  C   UNK N   1      36.382  14.397  11.655  0.00  0.00     0.028 A 
HETATM    5  C   UNK N   1      35.861  15.690  11.792  0.00  0.00     0.032 A 
HETATM    6  C   UNK N   1      35.326  16.354  10.695  0.00  0.00     0.039 A 
ENDROOT
BRANCH   4   7
HETATM    7  N   UNK N   1      36.887  13.709  12.789  0.00  0.00    -0.386 N 
HETATM    8  H   UNK N   1      37.665  13.114  12.696  0.00  0.00     0.160 HD
BRANCH   7   9
HETATM    9  C   UNK N   1      36.261  13.881  14.083  0.00  0.00     0.158 C 
BRANCH   9  10
HETATM   10  C   UNK N   1      35.569  12.658  14.590  0.00  0.00    -0.041 A 
HETATM   11  C   UNK N   1      35.932  12.167  15.849  0.00  0.00     0.009 A 
HETATM   12  C   UNK N   1      35.310  11.031  16.371  0.00  0.00     0.001 A 
HETATM   13  C   UNK N   1      34.318  10.378  15.634  0.00  0.00     0.000 A 
HETATM   14  C   UNK N   1      33.949  10.863  14.375  0.00  0.00     0.001 A 
HETATM   15  C   UNK N   1      34.572  12.001  13.853  0.00  0.00     0.009 A 
ENDBRANCH   9  10
ENDBRANCH   7   9
ENDBRANCH   4   7
BRANCH   1  16
HETATM   16  O   UNK N   1      34.737  16.368   8.369  0.00  0.00    -0.349 OA
BRANCH  16  17
HETATM   17  C   UNK N   1      34.425  17.714   8.416  0.00  0.00     0.200 C 
BRANCH  17  18
HETATM   18  C   UNK N   1      33.144  18.036   7.672  0.00  0.00     0.101 C 
HETATM   19  N   UNK N   1      33.132  17.382   6.372  0.00  0.00    -0.415 N 
HETATM   20  C   UNK N   1      31.735  17.037   6.112  0.00  0.00     0.114 C 
HETATM   21  H   UNK N   1      33.933  17.202   5.767  0.00  0.00     0.153 HD
HETATM   22  C   UNK N   1      30.934  17.278   7.380  0.00  0.00     0.021 C 
HETATM   23  C   UNK N   1      31.979  17.472   8.441  0.00  0.00     0.028 C 
ENDBRANCH  17  18
ENDBRANCH  16  17
ENDBRANCH   1  16
TORSDOF 6
ENDMDL
