MODEL 1
REMARK VINA RESULT:      -9.0      0.000      0.000
REMARK  6 active torsions:
REMARK  status: ('A' for Active; 'I' for Inactive)
REMARK    1  A    between atoms: C_6  and  C_33 
REMARK    2  A    between atoms: C_11  and  N_32 
REMARK    3  A    between atoms: C_20  and  S_28 
REMARK    4  A    between atoms: N_22  and  C_33 
REMARK    5  A    between atoms: C_24  and  N_27 
REMARK    6  A    between atoms: N_27  and  S_28 
ROOT
HETATM    1  N   UNK N   1      30.899  16.717   5.168  0.00  0.00    -0.346 N 
HETATM    2  C   UNK N   1      31.607  16.548   6.288  0.00  0.00     0.243 C 
HETATM    3  C   UNK N   1      33.039  16.924   6.113  0.00  0.00     0.186 C 
HETATM    4  C   UNK N   1      33.120  17.216   4.608  0.00  0.00     0.055 C 
HETATM    5  C   UNK N   1      31.668  17.353   4.137  0.00  0.00     0.129 C 
HETATM    6  O   UNK N   1      31.152  16.034   7.296  0.00  0.00    -0.271 OA
ENDROOT
BRANCH   1   7
HETATM    7  C   UNK N   1      29.600  16.104   4.927  0.00  0.00     0.164 C 
BRANCH   7   8
HETATM    8  C   UNK N   1      28.584  17.207   5.028  0.00  0.00    -0.039 A 
HETATM    9  C   UNK N   1      28.174  17.917   3.890  0.00  0.00     0.010 A 
HETATM   10  C   UNK N   1      27.457  19.116   4.037  0.00  0.00     0.013 A 
HETATM   11  C   UNK N   1      27.197  19.625   5.319  0.00  0.00    -0.021 A 
HETATM   12  C   UNK N   1      27.599  18.900   6.456  0.00  0.00     0.018 A 
HETATM   13  C   UNK N   1      26.572  20.860   5.483  0.00  0.00     0.029 A 
HETATM   14  C   UNK N   1      28.265  17.692   6.298  0.00  0.00     0.025 A 
HETATM   15  C   UNK N   1      27.375  19.430   7.733  0.00  0.00     0.109 A 
HETATM   16  N   UNK N   1      26.772  20.643   7.861  0.00  0.00    -0.352 N 
HETATM   17  C   UNK N   1      26.370  21.359   6.775  0.00  0.00     0.090 A 
ATOM     18  HN  UNK N   1      26.619  21.026   8.794  1.00  0.00     0.166 HD
BRANCH  15  19
HETATM   19  N   UNK N   1      27.799  18.735   8.887  0.00  0.00    -0.385 N 
HETATM   20  H   UNK N   1      27.668  17.789   9.127  0.00  0.00     0.157 HD
HETATM   21  H   UNK N   1      28.295  19.272   9.546  0.00  0.00     0.157 HD
ENDBRANCH  15  19
ENDBRANCH   7   8
ENDBRANCH   1   7
BRANCH   3  22
HETATM   22  N   UNK N   1      33.479  18.052   6.939  0.00  0.00    -0.301 N 
HETATM   23  H   UNK N   1      33.119  18.997   6.807  0.00  0.00     0.173 HD
BRANCH  22  24
HETATM   24  S   UNK N   1      34.688  17.660   8.195  0.00  0.00     0.266 S 
HETATM   25  O   UNK N   1      33.477  17.975   9.086  0.00  0.00    -0.200 OA
HETATM   26  O   UNK N   1      35.242  19.033   8.598  0.00  0.00    -0.200 OA
BRANCH  24  27
HETATM   27  C   UNK N   1      34.899  16.521   9.595  0.00  0.00     0.123 A 
HETATM   28  C   UNK N   1      35.656  16.669  10.784  0.00  0.00     0.063 A 
HETATM   29  C   UNK N   1      35.634  15.471  11.569  0.00  0.00     0.051 A 
HETATM   30  C   UNK N   1      34.890  14.437  11.018  0.00  0.00     0.033 A 
HETATM   31  N   UNK N   1      36.286  15.289  12.749  0.00  0.00    -0.365 N 
HETATM   32  C   UNK N   1      34.781  13.197  11.631  0.00  0.00     0.022 A 
HETATM   33  S   UNK N   1      34.266  14.976   9.594  0.00  0.00    -0.074 SA
HETATM   34  C   UNK N   1      35.457  13.018  12.846  0.00  0.00     0.018 A 
HETATM   35  C   UNK N   1      36.209  14.082  13.393  0.00  0.00     0.088 A 
ATOM     36  HN  UNK N   1      36.831  16.050  13.154  1.00  0.00     0.165 HD
ENDBRANCH  24  27
ENDBRANCH  22  24
ENDBRANCH   3  22
TORSDOF 6
ENDMDL
MODEL 2
REMARK VINA RESULT:      -8.4      3.577      5.421
REMARK  6 active torsions:
REMARK  status: ('A' for Active; 'I' for Inactive)
REMARK    1  A    between atoms: C_6  and  C_33 
REMARK    2  A    between atoms: C_11  and  N_32 
REMARK    3  A    between atoms: C_20  and  S_28 
REMARK    4  A    between atoms: N_22  and  C_33 
REMARK    5  A    between atoms: C_24  and  N_27 
REMARK    6  A    between atoms: N_27  and  S_28 
ROOT
HETATM    1  N   UNK N   1      34.470  16.097   8.906  0.00  0.00    -0.346 N 
HETATM    2  C   UNK N   1      34.817  16.183  10.193  0.00  0.00     0.243 C 
HETATM    3  C   UNK N   1      34.612  14.898  10.920  0.00  0.00     0.186 C 
HETATM    4  C   UNK N   1      33.917  14.030   9.862  0.00  0.00     0.055 C 
HETATM    5  C   UNK N   1      34.132  14.754   8.529  0.00  0.00     0.129 C 
HETATM    6  O   UNK N   1      35.148  17.228  10.728  0.00  0.00    -0.271 OA
ENDROOT
BRANCH   1   7
HETATM    7  C   UNK N   1      34.213  17.251   8.055  0.00  0.00     0.164 C 
BRANCH   7   8
HETATM    8  C   UNK N   1      32.796  17.114   7.570  0.00  0.00    -0.039 A 
HETATM    9  C   UNK N   1      32.516  16.854   6.221  0.00  0.00     0.010 A 
HETATM   10  C   UNK N   1      31.208  17.015   5.736  0.00  0.00     0.013 A 
HETATM   11  C   UNK N   1      30.197  17.482   6.590  0.00  0.00    -0.021 A 
HETATM   12  C   UNK N   1      30.482  17.727   7.946  0.00  0.00     0.018 A 
HETATM   13  C   UNK N   1      28.915  17.739   6.104  0.00  0.00     0.029 A 
HETATM   14  C   UNK N   1      31.768  17.519   8.424  0.00  0.00     0.025 A 
HETATM   15  C   UNK N   1      29.480  18.232   8.786  0.00  0.00     0.109 A 
HETATM   16  N   UNK N   1      28.243  18.483   8.281  0.00  0.00    -0.352 N 
HETATM   17  C   UNK N   1      27.944  18.248   6.973  0.00  0.00     0.090 A 
ATOM     18  HN  UNK N   1      27.521  18.859   8.897  1.00  0.00     0.166 HD
BRANCH  15  19
HETATM   19  N   UNK N   1      29.752  18.516  10.142  0.00  0.00    -0.385 N 
HETATM   20  H   UNK N   1      30.526  18.251  10.690  0.00  0.00     0.157 HD
HETATM   21  H   UNK N   1      29.072  19.055  10.606  0.00  0.00     0.157 HD
ENDBRANCH  15  19
ENDBRANCH   7   8
ENDBRANCH   1   7
BRANCH   3  22
HETATM   22  N   UNK N   1      35.838  14.291  11.443  0.00  0.00    -0.301 N 
HETATM   23  H   UNK N   1      36.766  14.628  11.185  0.00  0.00     0.173 HD
BRANCH  22  24
HETATM   24  S   UNK N   1      35.601  12.920  12.565  0.00  0.00     0.266 S 
HETATM   25  O   UNK N   1      36.882  13.527  13.159  0.00  0.00    -0.200 OA
HETATM   26  O   UNK N   1      36.491  11.818  11.976  0.00  0.00    -0.200 OA
BRANCH  24  27
HETATM   27  C   UNK N   1      35.413  12.617  14.347  0.00  0.00     0.123 A 
HETATM   28  C   UNK N   1      35.290  13.534  15.420  0.00  0.00     0.063 A 
HETATM   29  C   UNK N   1      35.279  12.861  16.684  0.00  0.00     0.051 A 
HETATM   30  C   UNK N   1      35.385  11.480  16.599  0.00  0.00     0.033 A 
HETATM   31  N   UNK N   1      35.201  13.466  17.899  0.00  0.00    -0.365 N 
HETATM   32  C   UNK N   1      35.416  10.671  17.727  0.00  0.00     0.022 A 
HETATM   33  S   UNK N   1      35.488  11.084  15.006  0.00  0.00    -0.074 SA
HETATM   34  C   UNK N   1      35.336  11.304  18.975  0.00  0.00     0.018 A 
HETATM   35  C   UNK N   1      35.228  12.711  19.042  0.00  0.00     0.088 A 
ATOM     36  HN  UNK N   1      35.122  14.481  17.960  1.00  0.00     0.165 HD
ENDBRANCH  24  27
ENDBRANCH  22  24
ENDBRANCH   3  22
TORSDOF 6
ENDMDL
MODEL 3
REMARK VINA RESULT:      -8.2      4.756     11.911
REMARK  6 active torsions:
REMARK  status: ('A' for Active; 'I' for Inactive)
REMARK    1  A    between atoms: C_6  and  C_33 
REMARK    2  A    between atoms: C_11  and  N_32 
REMARK    3  A    between atoms: C_20  and  S_28 
REMARK    4  A    between atoms: N_22  and  C_33 
REMARK    5  A    between atoms: C_24  and  N_27 
REMARK    6  A    between atoms: N_27  and  S_28 
ROOT
HETATM    1  N   UNK N   1      35.148  12.666  13.955  0.00  0.00    -0.346 N 
HETATM    2  C   UNK N   1      36.328  13.280  13.846  0.00  0.00     0.243 C 
HETATM    3  C   UNK N   1      37.090  12.828  12.647  0.00  0.00     0.186 C 
HETATM    4  C   UNK N   1      36.213  11.688  12.111  0.00  0.00     0.055 C 
HETATM    5  C   UNK N   1      34.860  11.845  12.815  0.00  0.00     0.129 C 
HETATM    6  O   UNK N   1      36.773  14.033  14.696  0.00  0.00    -0.271 OA
ENDROOT
BRANCH   1   7
HETATM    7  C   UNK N   1      34.365  12.623  15.184  0.00  0.00     0.164 C 
BRANCH   7   8
HETATM    8  C   UNK N   1      35.196  11.878  16.191  0.00  0.00    -0.039 A 
HETATM    9  C   UNK N   1      35.736  10.619  15.892  0.00  0.00     0.010 A 
HETATM   10  C   UNK N   1      36.255   9.820  16.923  0.00  0.00     0.013 A 
HETATM   11  C   UNK N   1      36.186  10.260  18.253  0.00  0.00    -0.021 A 
HETATM   12  C   UNK N   1      35.654  11.530  18.545  0.00  0.00     0.018 A 
HETATM   13  C   UNK N   1      36.608   9.440  19.300  0.00  0.00     0.029 A 
HETATM   14  C   UNK N   1      35.188  12.330  17.512  0.00  0.00     0.025 A 
HETATM   15  C   UNK N   1      35.548  11.949  19.878  0.00  0.00     0.109 A 
HETATM   16  N   UNK N   1      35.959  11.123  20.878  0.00  0.00    -0.352 N 
HETATM   17  C   UNK N   1      36.481   9.892  20.618  0.00  0.00     0.090 A 
ATOM     18  HN  UNK N   1      35.871  11.432  21.846  1.00  0.00     0.166 HD
BRANCH  15  19
HETATM   19  N   UNK N   1      34.988  13.206  20.196  0.00  0.00    -0.385 N 
HETATM   20  H   UNK N   1      34.631  13.528  21.055  0.00  0.00     0.157 HD
HETATM   21  H   UNK N   1      34.949  13.851  19.454  0.00  0.00     0.157 HD
ENDBRANCH  15  19
ENDBRANCH   7   8
ENDBRANCH   1   7
BRANCH   3  22
HETATM   22  N   UNK N   1      37.339  13.874  11.652  0.00  0.00    -0.301 N 
HETATM   23  H   UNK N   1      38.278  14.106  11.328  0.00  0.00     0.173 HD
BRANCH  22  24
HETATM   24  S   UNK N   1      35.887  14.719  11.043  0.00  0.00     0.266 S 
HETATM   25  O   UNK N   1      36.981  15.628  10.463  0.00  0.00    -0.200 OA
HETATM   26  O   UNK N   1      35.644  15.813  12.090  0.00  0.00    -0.200 OA
BRANCH  24  27
HETATM   27  C   UNK N   1      35.174  15.266   9.464  0.00  0.00     0.123 A 
HETATM   28  C   UNK N   1      35.142  14.617   8.204  0.00  0.00     0.063 A 
HETATM   29  C   UNK N   1      34.577  15.462   7.195  0.00  0.00     0.051 A 
HETATM   30  C   UNK N   1      34.183  16.713   7.649  0.00  0.00     0.033 A 
HETATM   31  N   UNK N   1      34.436  15.137   5.883  0.00  0.00    -0.365 N 
HETATM   32  C   UNK N   1      33.640  17.668   6.802  0.00  0.00     0.022 A 
HETATM   33  S   UNK N   1      34.516  16.787   9.259  0.00  0.00    -0.074 SA
HETATM   34  C   UNK N   1      33.499  17.325   5.450  0.00  0.00     0.018 A 
HETATM   35  C   UNK N   1      33.904  16.046   5.006  0.00  0.00     0.088 A 
ATOM     36  HN  UNK N   1      34.725  14.217   5.550  1.00  0.00     0.165 HD
ENDBRANCH  24  27
ENDBRANCH  22  24
ENDBRANCH   3  22
TORSDOF 6
ENDMDL
MODEL 4
REMARK VINA RESULT:      -8.1      7.059     10.125
REMARK  6 active torsions:
REMARK  status: ('A' for Active; 'I' for Inactive)
REMARK    1  A    between atoms: C_6  and  C_33 
REMARK    2  A    between atoms: C_11  and  N_32 
REMARK    3  A    between atoms: C_20  and  S_28 
REMARK    4  A    between atoms: N_22  and  C_33 
REMARK    5  A    between atoms: C_24  and  N_27 
REMARK    6  A    between atoms: N_27  and  S_28 
ROOT
HETATM    1  N   UNK N   1      23.571  19.224   3.663  0.00  0.00    -0.346 N 
HETATM    2  C   UNK N   1      22.251  19.372   3.533  0.00  0.00     0.243 C 
HETATM    3  C   UNK N   1      21.525  18.073   3.623  0.00  0.00     0.186 C 
HETATM    4  C   UNK N   1      22.677  17.058   3.678  0.00  0.00     0.055 C 
HETATM    5  C   UNK N   1      23.931  17.877   4.000  0.00  0.00     0.129 C 
HETATM    6  O   UNK N   1      21.720  20.435   3.256  0.00  0.00    -0.271 OA
ENDROOT
BRANCH   1   7
HETATM    7  C   UNK N   1      24.546  20.230   3.260  0.00  0.00     0.164 C 
BRANCH   7   8
HETATM    8  C   UNK N   1      25.819  19.904   3.989  0.00  0.00    -0.039 A 
HETATM    9  C   UNK N   1      26.758  19.019   3.441  0.00  0.00     0.010 A 
HETATM   10  C   UNK N   1      27.787  18.506   4.249  0.00  0.00     0.013 A 
HETATM   11  C   UNK N   1      27.843  18.842   5.610  0.00  0.00    -0.021 A 
HETATM   12  C   UNK N   1      26.906  19.743   6.149  0.00  0.00     0.018 A 
HETATM   13  C   UNK N   1      28.799  18.269   6.448  0.00  0.00     0.029 A 
HETATM   14  C   UNK N   1      25.922  20.279   5.330  0.00  0.00     0.025 A 
HETATM   15  C   UNK N   1      26.939  20.044   7.517  0.00  0.00     0.109 A 
HETATM   16  N   UNK N   1      27.877  19.461   8.311  0.00  0.00    -0.352 N 
HETATM   17  C   UNK N   1      28.797  18.591   7.810  0.00  0.00     0.090 A 
ATOM     18  HN  UNK N   1      27.890  19.679   9.308  1.00  0.00     0.166 HD
BRANCH  15  19
HETATM   19  N   UNK N   1      25.988  20.920   8.086  0.00  0.00    -0.385 N 
HETATM   20  H   UNK N   1      26.012  21.901   8.158  0.00  0.00     0.157 HD
HETATM   21  H   UNK N   1      25.189  20.488   8.465  0.00  0.00     0.157 HD
ENDBRANCH  15  19
ENDBRANCH   7   8
ENDBRANCH   1   7
BRANCH   3  22
HETATM   22  N   UNK N   1      20.610  17.962   4.761  0.00  0.00    -0.301 N 
HETATM   23  H   UNK N   1      19.615  18.172   4.682  0.00  0.00     0.173 HD
BRANCH  22  24
HETATM   24  S   UNK N   1      21.353  17.433   6.298  0.00  0.00     0.266 S 
HETATM   25  O   UNK N   1      19.900  17.000   6.546  0.00  0.00    -0.200 OA
HETATM   26  O   UNK N   1      21.082  18.606   7.248  0.00  0.00    -0.200 OA
BRANCH  24  27
HETATM   27  C   UNK N   1      21.537  15.921   7.289  0.00  0.00     0.123 A 
HETATM   28  C   UNK N   1      20.851  15.509   8.458  0.00  0.00     0.063 A 
HETATM   29  C   UNK N   1      21.395  14.291   8.981  0.00  0.00     0.051 A 
HETATM   30  C   UNK N   1      22.456  13.776   8.249  0.00  0.00     0.033 A 
HETATM   31  N   UNK N   1      20.972  13.658  10.107  0.00  0.00    -0.365 N 
HETATM   32  C   UNK N   1      23.119  12.617   8.627  0.00  0.00     0.022 A 
HETATM   33  S   UNK N   1      22.725  14.789   6.981  0.00  0.00    -0.074 SA
HETATM   34  C   UNK N   1      22.677  11.972   9.790  0.00  0.00     0.018 A 
HETATM   35  C   UNK N   1      21.595  12.510  10.521  0.00  0.00     0.088 A 
ATOM     36  HN  UNK N   1      20.191  14.037  10.644  1.00  0.00     0.165 HD
ENDBRANCH  24  27
ENDBRANCH  22  24
ENDBRANCH   3  22
TORSDOF 6
ENDMDL
MODEL 5
REMARK VINA RESULT:      -8.0      3.475      5.896
REMARK  6 active torsions:
REMARK  status: ('A' for Active; 'I' for Inactive)
REMARK    1  A    between atoms: C_6  and  C_33 
REMARK    2  A    between atoms: C_11  and  N_32 
REMARK    3  A    between atoms: C_20  and  S_28 
REMARK    4  A    between atoms: N_22  and  C_33 
REMARK    5  A    between atoms: C_24  and  N_27 
REMARK    6  A    between atoms: N_27  and  S_28 
ROOT
HETATM    1  N   UNK N   1      34.669  16.424   8.859  0.00  0.00    -0.346 N 
HETATM    2  C   UNK N   1      34.961  16.429  10.162  0.00  0.00     0.243 C 
HETATM    3  C   UNK N   1      34.604  15.143  10.825  0.00  0.00     0.186 C 
HETATM    4  C   UNK N   1      33.882  14.384   9.702  0.00  0.00     0.055 C 
HETATM    5  C   UNK N   1      34.227  15.134   8.412  0.00  0.00     0.129 C 
HETATM    6  O   UNK N   1      35.362  17.417  10.754  0.00  0.00    -0.271 OA
ENDROOT
BRANCH   1   7
HETATM    7  C   UNK N   1      34.560  17.629   8.046  0.00  0.00     0.164 C 
BRANCH   7   8
HETATM    8  C   UNK N   1      33.147  17.667   7.531  0.00  0.00    -0.039 A 
HETATM    9  C   UNK N   1      32.057  17.558   8.406  0.00  0.00     0.010 A 
HETATM   10  C   UNK N   1      30.774  17.306   7.893  0.00  0.00     0.013 A 
HETATM   11  C   UNK N   1      30.595  17.116   6.515  0.00  0.00    -0.021 A 
HETATM   12  C   UNK N   1      31.691  17.241   5.642  0.00  0.00     0.018 A 
HETATM   13  C   UNK N   1      29.347  16.770   5.998  0.00  0.00     0.029 A 
HETATM   14  C   UNK N   1      32.946  17.536   6.156  0.00  0.00     0.025 A 
HETATM   15  C   UNK N   1      31.517  17.009   4.270  0.00  0.00     0.109 A 
HETATM   16  N   UNK N   1      30.290  16.664   3.797  0.00  0.00    -0.352 N 
HETATM   17  C   UNK N   1      29.214  16.542   4.624  0.00  0.00     0.090 A 
ATOM     18  HN  UNK N   1      30.173  16.489   2.799  1.00  0.00     0.166 HD
BRANCH  15  19
HETATM   19  N   UNK N   1      32.610  17.097   3.380  0.00  0.00    -0.385 N 
HETATM   20  H   UNK N   1      32.616  17.055   2.396  0.00  0.00     0.157 HD
HETATM   21  H   UNK N   1      33.491  17.217   3.802  0.00  0.00     0.157 HD
ENDBRANCH  15  19
ENDBRANCH   7   8
ENDBRANCH   1   7
BRANCH   3  22
HETATM   22  N   UNK N   1      35.743  14.404  11.375  0.00  0.00    -0.301 N 
HETATM   23  H   UNK N   1      36.708  14.653  11.163  0.00  0.00     0.173 HD
BRANCH  22  24
HETATM   24  S   UNK N   1      35.327  13.035  12.447  0.00  0.00     0.266 S 
HETATM   25  O   UNK N   1      36.736  13.357  12.968  0.00  0.00    -0.200 OA
HETATM   26  O   UNK N   1      35.952  11.825  11.740  0.00  0.00    -0.200 OA
BRANCH  24  27
HETATM   27  C   UNK N   1      35.205  12.664  14.221  0.00  0.00     0.123 A 
HETATM   28  C   UNK N   1      35.199  13.538  15.337  0.00  0.00     0.063 A 
HETATM   29  C   UNK N   1      35.202  12.810  16.571  0.00  0.00     0.051 A 
HETATM   30  C   UNK N   1      35.208  11.430  16.422  0.00  0.00     0.033 A 
HETATM   31  N   UNK N   1      35.225  13.363  17.812  0.00  0.00    -0.365 N 
HETATM   32  C   UNK N   1      35.237  10.571  17.512  0.00  0.00     0.022 A 
HETATM   33  S   UNK N   1      35.205  11.101  14.811  0.00  0.00    -0.074 SA
HETATM   34  C   UNK N   1      35.262  11.150  18.788  0.00  0.00     0.018 A 
HETATM   35  C   UNK N   1      35.255  12.557  18.920  0.00  0.00     0.088 A 
ATOM     36  HN  UNK N   1      35.220  14.378  17.920  1.00  0.00     0.165 HD
ENDBRANCH  24  27
ENDBRANCH  22  24
ENDBRANCH   3  22
TORSDOF 6
ENDMDL
MODEL 6
REMARK VINA RESULT:      -7.9      2.940      4.549
REMARK  6 active torsions:
REMARK  status: ('A' for Active; 'I' for Inactive)
REMARK    1  A    between atoms: C_6  and  C_33 
REMARK    2  A    between atoms: C_11  and  N_32 
REMARK    3  A    between atoms: C_20  and  S_28 
REMARK    4  A    between atoms: N_22  and  C_33 
REMARK    5  A    between atoms: C_24  and  N_27 
REMARK    6  A    between atoms: N_27  and  S_28 
ROOT
HETATM    1  N   UNK N   1      33.670  16.437   8.679  0.00  0.00    -0.346 N 
HETATM    2  C   UNK N   1      34.667  16.284   9.553  0.00  0.00     0.243 C 
HETATM    3  C   UNK N   1      34.850  14.860   9.958  0.00  0.00     0.186 C 
HETATM    4  C   UNK N   1      33.658  14.171   9.278  0.00  0.00     0.055 C 
HETATM    5  C   UNK N   1      33.133  15.177   8.248  0.00  0.00     0.129 C 
HETATM    6  O   UNK N   1      35.275  17.219  10.046  0.00  0.00    -0.271 OA
ENDROOT
BRANCH   1   7
HETATM    7  C   UNK N   1      33.028  17.714   8.393  0.00  0.00     0.164 C 
BRANCH   7   8
HETATM    8  C   UNK N   1      31.856  17.410   7.502  0.00  0.00    -0.039 A 
HETATM    9  C   UNK N   1      32.032  17.182   6.130  0.00  0.00     0.010 A 
HETATM   10  C   UNK N   1      30.918  17.189   5.274  0.00  0.00     0.013 A 
HETATM   11  C   UNK N   1      29.643  17.472   5.785  0.00  0.00    -0.021 A 
HETATM   12  C   UNK N   1      29.472  17.686   7.165  0.00  0.00     0.018 A 
HETATM   13  C   UNK N   1      28.541  17.578   4.936  0.00  0.00     0.029 A 
HETATM   14  C   UNK N   1      30.573  17.630   8.008  0.00  0.00     0.025 A 
HETATM   15  C   UNK N   1      28.204  18.009   7.666  0.00  0.00     0.109 A 
HETATM   16  N   UNK N   1      27.150  18.116   6.812  0.00  0.00    -0.352 N 
HETATM   17  C   UNK N   1      27.292  17.907   5.474  0.00  0.00     0.090 A 
ATOM     18  HN  UNK N   1      26.232  18.359   7.184  1.00  0.00     0.166 HD
BRANCH  15  19
HETATM   19  N   UNK N   1      28.015  18.260   9.043  0.00  0.00    -0.385 N 
HETATM   20  H   UNK N   1      27.181  18.270   9.565  0.00  0.00     0.157 HD
HETATM   21  H   UNK N   1      28.834  18.453   9.554  0.00  0.00     0.157 HD
ENDBRANCH  15  19
ENDBRANCH   7   8
ENDBRANCH   1   7
BRANCH   3  22
HETATM   22  N   UNK N   1      36.140  14.279   9.579  0.00  0.00    -0.301 N 
HETATM   23  H   UNK N   1      36.575  14.461   8.675  0.00  0.00     0.173 HD
BRANCH  22  24
HETATM   24  S   UNK N   1      36.901  13.229  10.809  0.00  0.00     0.266 S 
HETATM   25  O   UNK N   1      36.982  14.583  11.533  0.00  0.00    -0.200 OA
HETATM   26  O   UNK N   1      38.402  13.380  10.528  0.00  0.00    -0.200 OA
BRANCH  24  27
HETATM   27  C   UNK N   1      36.686  12.777  12.556  0.00  0.00     0.123 A 
HETATM   28  C   UNK N   1      37.098  11.614  13.254  0.00  0.00     0.063 A 
HETATM   29  C   UNK N   1      36.618  11.617  14.604  0.00  0.00     0.051 A 
HETATM   30  C   UNK N   1      35.869  12.735  14.943  0.00  0.00     0.033 A 
HETATM   31  N   UNK N   1      36.821  10.629  15.515  0.00  0.00    -0.365 N 
HETATM   32  C   UNK N   1      35.304  12.891  16.201  0.00  0.00     0.022 A 
HETATM   33  S   UNK N   1      35.794  13.707  13.618  0.00  0.00    -0.074 SA
HETATM   34  C   UNK N   1      35.518  11.867  17.134  0.00  0.00     0.018 A 
HETATM   35  C   UNK N   1      36.284  10.737  16.771  0.00  0.00     0.088 A 
ATOM     36  HN  UNK N   1      37.373   9.809  15.265  1.00  0.00     0.165 HD
ENDBRANCH  24  27
ENDBRANCH  22  24
ENDBRANCH   3  22
TORSDOF 6
ENDMDL
MODEL 7
REMARK VINA RESULT:      -7.8      3.975     11.652
REMARK  6 active torsions:
REMARK  status: ('A' for Active; 'I' for Inactive)
REMARK    1  A    between atoms: C_6  and  C_33 
REMARK    2  A    between atoms: C_11  and  N_32 
REMARK    3  A    between atoms: C_20  and  S_28 
REMARK    4  A    between atoms: N_22  and  C_33 
REMARK    5  A    between atoms: C_24  and  N_27 
REMARK    6  A    between atoms: N_27  and  S_28 
ROOT
HETATM    1  N   UNK N   1      36.198  12.729  13.311  0.00  0.00    -0.346 N 
HETATM    2  C   UNK N   1      36.005  13.904  12.707  0.00  0.00     0.243 C 
HETATM    3  C   UNK N   1      35.333  13.756  11.385  0.00  0.00     0.186 C 
HETATM    4  C   UNK N   1      35.285  12.231  11.211  0.00  0.00     0.055 C 
HETATM    5  C   UNK N   1      35.578  11.650  12.598  0.00  0.00     0.129 C 
HETATM    6  O   UNK N   1      36.438  14.959  13.140  0.00  0.00    -0.271 OA
ENDROOT
BRANCH   1   7
HETATM    7  C   UNK N   1      37.135  12.523  14.408  0.00  0.00     0.164 C 
BRANCH   7   8
HETATM    8  C   UNK N   1      36.304  12.337  15.647  0.00  0.00    -0.039 A 
HETATM    9  C   UNK N   1      35.754  13.437  16.320  0.00  0.00     0.010 A 
HETATM   10  C   UNK N   1      35.235  13.274  17.615  0.00  0.00     0.013 A 
HETATM   11  C   UNK N   1      35.313  12.025  18.249  0.00  0.00    -0.021 A 
HETATM   12  C   UNK N   1      35.853  10.922  17.563  0.00  0.00     0.018 A 
HETATM   13  C   UNK N   1      34.890  11.867  19.569  0.00  0.00     0.029 A 
HETATM   14  C   UNK N   1      36.320  11.085  16.266  0.00  0.00     0.025 A 
HETATM   15  C   UNK N   1      35.968   9.686  18.214  0.00  0.00     0.109 A 
HETATM   16  N   UNK N   1      35.557   9.566  19.504  0.00  0.00    -0.352 N 
HETATM   17  C   UNK N   1      35.026  10.618  20.186  0.00  0.00     0.090 A 
ATOM     18  HN  UNK N   1      35.651   8.665  19.974  1.00  0.00     0.166 HD
BRANCH  15  19
HETATM   19  N   UNK N   1      36.537   8.575  17.555  0.00  0.00    -0.385 N 
HETATM   20  H   UNK N   1      36.437   8.289  16.618  0.00  0.00     0.157 HD
HETATM   21  H   UNK N   1      37.115   8.004  18.110  0.00  0.00     0.157 HD
ENDBRANCH  15  19
ENDBRANCH   7   8
ENDBRANCH   1   7
BRANCH   3  22
HETATM   22  N   UNK N   1      34.012  14.384  11.298  0.00  0.00    -0.301 N 
HETATM   23  H   UNK N   1      33.192  13.994  11.762  0.00  0.00     0.173 HD
BRANCH  22  24
HETATM   24  S   UNK N   1      33.934  15.880  10.323  0.00  0.00     0.266 S 
HETATM   25  O   UNK N   1      34.682  14.966   9.341  0.00  0.00    -0.200 OA
HETATM   26  O   UNK N   1      35.283  16.556  10.598  0.00  0.00    -0.200 OA
BRANCH  24  27
HETATM   27  C   UNK N   1      33.331  16.437   8.702  0.00  0.00     0.123 A 
HETATM   28  C   UNK N   1      32.005  16.610   8.232  0.00  0.00     0.063 A 
HETATM   29  C   UNK N   1      31.984  16.957   6.843  0.00  0.00     0.051 A 
HETATM   30  C   UNK N   1      33.239  17.053   6.257  0.00  0.00     0.033 A 
HETATM   31  N   UNK N   1      30.865  17.162   6.099  0.00  0.00    -0.365 N 
HETATM   32  C   UNK N   1      33.404  17.355   4.912  0.00  0.00     0.022 A 
HETATM   33  S   UNK N   1      34.358  16.722   7.416  0.00  0.00    -0.074 SA
HETATM   34  C   UNK N   1      32.245  17.563   4.152  0.00  0.00     0.018 A 
HETATM   35  C   UNK N   1      30.976  17.463   4.766  0.00  0.00     0.088 A 
ATOM     36  HN  UNK N   1      29.944  17.093   6.531  1.00  0.00     0.165 HD
ENDBRANCH  24  27
ENDBRANCH  22  24
ENDBRANCH   3  22
TORSDOF 6
ENDMDL
MODEL 8
REMARK VINA RESULT:      -7.7      2.156      2.592
REMARK  6 active torsions:
REMARK  status: ('A' for Active; 'I' for Inactive)
REMARK    1  A    between atoms: C_6  and  C_33 
REMARK    2  A    between atoms: C_11  and  N_32 
REMARK    3  A    between atoms: C_20  and  S_28 
REMARK    4  A    between atoms: N_22  and  C_33 
REMARK    5  A    between atoms: C_24  and  N_27 
REMARK    6  A    between atoms: N_27  and  S_28 
ROOT
HETATM    1  N   UNK N   1      29.269  17.008   6.597  0.00  0.00    -0.346 N 
HETATM    2  C   UNK N   1      30.238  17.344   7.451  0.00  0.00     0.243 C 
HETATM    3  C   UNK N   1      31.505  16.603   7.187  0.00  0.00     0.186 C 
HETATM    4  C   UNK N   1      31.084  15.616   6.088  0.00  0.00     0.055 C 
HETATM    5  C   UNK N   1      29.742  16.135   5.562  0.00  0.00     0.129 C 
HETATM    6  O   UNK N   1      30.064  18.082   8.406  0.00  0.00    -0.271 OA
ENDROOT
BRANCH   1   7
HETATM    7  C   UNK N   1      27.855  17.276   6.826  0.00  0.00     0.164 C 
BRANCH   7   8
HETATM    8  C   UNK N   1      27.361  18.020   5.616  0.00  0.00    -0.039 A 
HETATM    9  C   UNK N   1      28.149  19.005   5.004  0.00  0.00     0.010 A 
HETATM   10  C   UNK N   1      27.570  19.880   4.070  0.00  0.00     0.013 A 
HETATM   11  C   UNK N   1      26.198  19.798   3.790  0.00  0.00    -0.021 A 
HETATM   12  C   UNK N   1      25.417  18.798   4.398  0.00  0.00     0.018 A 
HETATM   13  C   UNK N   1      25.587  20.719   2.939  0.00  0.00     0.029 A 
HETATM   14  C   UNK N   1      26.010  17.910   5.284  0.00  0.00     0.025 A 
HETATM   15  C   UNK N   1      24.038  18.746   4.149  0.00  0.00     0.109 A 
HETATM   16  N   UNK N   1      23.469  19.664   3.322  0.00  0.00    -0.352 N 
HETATM   17  C   UNK N   1      24.207  20.636   2.719  0.00  0.00     0.090 A 
ATOM     18  HN  UNK N   1      22.464  19.624   3.152  1.00  0.00     0.166 HD
BRANCH  15  19
HETATM   19  N   UNK N   1      23.230  17.771   4.773  0.00  0.00    -0.385 N 
HETATM   20  H   UNK N   1      22.646  17.859   5.561  0.00  0.00     0.157 HD
HETATM   21  H   UNK N   1      23.252  16.877   4.363  0.00  0.00     0.157 HD
ENDBRANCH  15  19
ENDBRANCH   7   8
ENDBRANCH   1   7
BRANCH   3  22
HETATM   22  N   UNK N   1      32.636  17.447   6.795  0.00  0.00    -0.301 N 
HETATM   23  H   UNK N   1      32.548  18.184   6.095  0.00  0.00     0.173 HD
BRANCH  22  24
HETATM   24  S   UNK N   1      34.179  17.101   7.627  0.00  0.00     0.266 S 
HETATM   25  O   UNK N   1      33.325  17.534   8.828  0.00  0.00    -0.200 OA
HETATM   26  O   UNK N   1      34.854  18.476   7.713  0.00  0.00    -0.200 OA
BRANCH  24  27
HETATM   27  C   UNK N   1      34.812  16.064   8.977  0.00  0.00     0.123 A 
HETATM   28  C   UNK N   1      35.008  16.370  10.348  0.00  0.00     0.063 A 
HETATM   29  C   UNK N   1      35.640  15.287  11.040  0.00  0.00     0.051 A 
HETATM   30  C   UNK N   1      35.921  14.185  10.245  0.00  0.00     0.033 A 
HETATM   31  N   UNK N   1      35.986  15.287  12.355  0.00  0.00    -0.365 N 
HETATM   32  C   UNK N   1      36.556  13.057  10.746  0.00  0.00     0.022 A 
HETATM   33  S   UNK N   1      35.405  14.524   8.720  0.00  0.00    -0.074 SA
HETATM   34  C   UNK N   1      36.909  13.065  12.102  0.00  0.00     0.018 A 
HETATM   35  C   UNK N   1      36.614  14.196  12.896  0.00  0.00     0.088 A 
ATOM     36  HN  UNK N   1      35.777  16.098  12.938  1.00  0.00     0.165 HD
ENDBRANCH  24  27
ENDBRANCH  22  24
ENDBRANCH   3  22
TORSDOF 6
ENDMDL
MODEL 9
REMARK VINA RESULT:      -7.7      8.608     12.082
REMARK  6 active torsions:
REMARK  status: ('A' for Active; 'I' for Inactive)
REMARK    1  A    between atoms: C_6  and  C_33 
REMARK    2  A    between atoms: C_11  and  N_32 
REMARK    3  A    between atoms: C_20  and  S_28 
REMARK    4  A    between atoms: N_22  and  C_33 
REMARK    5  A    between atoms: C_24  and  N_27 
REMARK    6  A    between atoms: N_27  and  S_28 
ROOT
HETATM    1  N   UNK N   1      21.512  14.231   6.457  0.00  0.00    -0.346 N 
HETATM    2  C   UNK N   1      20.259  14.476   6.068  0.00  0.00     0.243 C 
HETATM    3  C   UNK N   1      19.864  15.896   6.297  0.00  0.00     0.186 C 
HETATM    4  C   UNK N   1      21.076  16.454   7.057  0.00  0.00     0.055 C 
HETATM    5  C   UNK N   1      22.196  15.427   6.857  0.00  0.00     0.129 C 
HETATM    6  O   UNK N   1      19.495  13.608   5.681  0.00  0.00    -0.271 OA
ENDROOT
BRANCH   1   7
HETATM    7  C   UNK N   1      22.041  12.894   6.699  0.00  0.00     0.164 C 
BRANCH   7   8
HETATM    8  C   UNK N   1      22.677  12.929   8.060  0.00  0.00    -0.039 A 
HETATM    9  C   UNK N   1      24.071  12.879   8.208  0.00  0.00     0.010 A 
HETATM   10  C   UNK N   1      24.629  12.622   9.470  0.00  0.00     0.013 A 
HETATM   11  C   UNK N   1      23.794  12.367  10.568  0.00  0.00    -0.021 A 
HETATM   12  C   UNK N   1      22.397  12.432  10.415  0.00  0.00     0.018 A 
HETATM   13  C   UNK N   1      24.329  12.015  11.807  0.00  0.00     0.029 A 
HETATM   14  C   UNK N   1      21.857  12.734   9.173  0.00  0.00     0.025 A 
HETATM   15  C   UNK N   1      21.564  12.137  11.504  0.00  0.00     0.109 A 
HETATM   16  N   UNK N   1      22.116  11.787  12.697  0.00  0.00    -0.352 N 
HETATM   17  C   UNK N   1      23.466  11.722  12.868  0.00  0.00     0.090 A 
ATOM     18  HN  UNK N   1      21.504  11.565  13.482  1.00  0.00     0.166 HD
BRANCH  15  19
HETATM   19  N   UNK N   1      20.159  12.165  11.365  0.00  0.00    -0.385 N 
HETATM   20  H   UNK N   1      19.616  12.421  10.585  0.00  0.00     0.157 HD
HETATM   21  H   UNK N   1      19.650  11.889  12.161  0.00  0.00     0.157 HD
ENDBRANCH  15  19
ENDBRANCH   7   8
ENDBRANCH   1   7
BRANCH   3  22
HETATM   22  N   UNK N   1      19.557  16.648   5.078  0.00  0.00    -0.301 N 
HETATM   23  H   UNK N   1      18.640  17.063   4.910  0.00  0.00     0.173 HD
BRANCH  22  24
HETATM   24  S   UNK N   1      20.896  16.792   3.904  0.00  0.00     0.266 S 
HETATM   25  O   UNK N   1      20.589  18.280   4.135  0.00  0.00    -0.200 OA
HETATM   26  O   UNK N   1      20.177  16.935   2.557  0.00  0.00    -0.200 OA
BRANCH  24  27
HETATM   27  C   UNK N   1      22.530  17.577   3.770  0.00  0.00     0.123 A 
HETATM   28  C   UNK N   1      23.825  17.011   3.875  0.00  0.00     0.063 A 
HETATM   29  C   UNK N   1      24.841  18.019   3.819  0.00  0.00     0.051 A 
HETATM   30  C   UNK N   1      24.360  19.312   3.671  0.00  0.00     0.033 A 
HETATM   31  N   UNK N   1      26.179  17.796   3.921  0.00  0.00    -0.365 N 
HETATM   32  C   UNK N   1      25.204  20.413   3.624  0.00  0.00     0.022 A 
HETATM   33  S   UNK N   1      22.718  19.229   3.609  0.00  0.00    -0.074 SA
HETATM   34  C   UNK N   1      26.581  20.174   3.731  0.00  0.00     0.018 A 
HETATM   35  C   UNK N   1      27.053  18.850   3.880  0.00  0.00     0.088 A 
ATOM     36  HN  UNK N   1      26.532  16.845   4.027  1.00  0.00     0.165 HD
ENDBRANCH  24  27
ENDBRANCH  22  24
ENDBRANCH   3  22
TORSDOF 6
ENDMDL
