MODEL 1
REMARK VINA RESULT:      -6.4      0.000      0.000
REMARK  5 active torsions:
REMARK  status: ('A' for Active; 'I' for Inactive)
REMARK    1  A    between atoms: C_3  and  N_5 
REMARK    2  A    between atoms: C_3  and  S_14 
REMARK       I    between atoms: N_4  and  C_11 
REMARK       I    between atoms: N_5  and  C_11 
REMARK    3  A    between atoms: C_6  and  C_15 
REMARK    4  A    between atoms: C_9  and  C_17 
REMARK    5  A    between atoms: S_14  and  C_15 
ROOT
HETATM    1  C   UNK N   1      34.715  16.166   9.970  0.00  0.00     0.153 C 
HETATM    2  N   UNK N   1      34.957  17.368  10.341  0.00  0.00    -0.379 N 
ATOM      3  HN  UNK N   1      35.814  17.700   9.899  1.00  0.00     0.158 HD
HETATM    4  H   UNK N   1      34.581  18.074  10.914  0.00  0.00     0.158 HD
ENDROOT
BRANCH   1   5
HETATM    5  N   UNK N   1      34.282  15.220  10.939  0.00  0.00    -0.172 N 
HETATM    6  C   UNK N   1      35.143  14.340  11.647  0.00  0.00     0.671 C 
HETATM    7  N   UNK N   1      34.641  13.372  12.314  0.00  0.00    -0.235 N 
HETATM    8  N   UNK N   1      36.513  14.656  11.810  0.00  0.00    -0.235 N 
HETATM    9  H   UNK N   1      34.825  13.274  13.276  0.00  0.00     0.174 HD
ATOM     10  HN  UNK N   1      34.041  12.693  11.844  1.00  0.00     0.174 HD
HETATM   11  H   UNK N   1      37.219  14.999  11.217  0.00  0.00     0.174 HD
HETATM   12  H   UNK N   1      36.832  14.496  12.727  0.00  0.00     0.174 HD
HETATM   13  H   UNK N   1      33.318  15.170  11.131  0.00  0.00     0.186 HD
ENDBRANCH   1   5
BRANCH   1  14
HETATM   14  S   UNK N   1      34.624  15.814   8.206  0.00  0.00    -0.089 SA
BRANCH  14  15
HETATM   15  C   UNK N   1      33.973  17.465   7.759  0.00  0.00     0.121 C 
BRANCH  15  16
HETATM   16  C   UNK N   1      32.489  17.468   7.577  0.00  0.00    -0.048 A 
HETATM   17  C   UNK N   1      31.636  17.797   8.638  0.00  0.00     0.024 A 
HETATM   18  C   UNK N   1      30.244  17.782   8.457  0.00  0.00     0.048 A 
HETATM   19  C   UNK N   1      29.715  17.446   7.203  0.00  0.00     0.016 A 
HETATM   20  C   UNK N   1      30.566  17.123   6.143  0.00  0.00     0.001 A 
HETATM   21  C   UNK N   1      31.950  17.132   6.331  0.00  0.00     0.008 A 
BRANCH  18  22
HETATM   22  C   UNK N   1      29.317  18.113   9.590  0.00  0.00     0.417 C 
HETATM   23  F   UNK N   1      29.146  16.996  10.387  0.00  0.00    -0.166 F 
HETATM   24  F   UNK N   1      28.089  18.502   9.088  0.00  0.00    -0.166 F 
HETATM   25  F   UNK N   1      29.825  19.140  10.368  0.00  0.00    -0.166 F 
ENDBRANCH  18  22
ENDBRANCH  15  16
ENDBRANCH  14  15
ENDBRANCH   1  14
TORSDOF 5
ENDMDL
MODEL 2
REMARK VINA RESULT:      -6.1      5.090      7.928
REMARK  5 active torsions:
REMARK  status: ('A' for Active; 'I' for Inactive)
REMARK    1  A    between atoms: C_3  and  N_5 
REMARK    2  A    between atoms: C_3  and  S_14 
REMARK       I    between atoms: N_4  and  C_11 
REMARK       I    between atoms: N_5  and  C_11 
REMARK    3  A    between atoms: C_6  and  C_15 
REMARK    4  A    between atoms: C_9  and  C_17 
REMARK    5  A    between atoms: S_14  and  C_15 
ROOT
HETATM    1  C   UNK N   1      34.502  15.525  10.784  0.00  0.00     0.153 C 
HETATM    2  N   UNK N   1      33.394  14.882  10.805  0.00  0.00    -0.379 N 
ATOM      3  HN  UNK N   1      33.541  13.931  10.467  1.00  0.00     0.158 HD
HETATM    4  H   UNK N   1      32.448  15.011  11.042  0.00  0.00     0.158 HD
ENDROOT
BRANCH   1   5
HETATM    5  N   UNK N   1      34.513  16.865  10.309  0.00  0.00    -0.172 N 
HETATM    6  C   UNK N   1      34.655  17.235   8.945  0.00  0.00     0.671 C 
HETATM    7  N   UNK N   1      34.890  18.455   8.647  0.00  0.00    -0.235 N 
HETATM    8  N   UNK N   1      34.312  16.325   7.916  0.00  0.00    -0.235 N 
HETATM    9  H   UNK N   1      34.293  18.950   8.040  0.00  0.00     0.174 HD
ATOM     10  HN  UNK N   1      35.706  18.923   9.043  1.00  0.00     0.174 HD
HETATM   11  H   UNK N   1      34.475  15.367   7.757  0.00  0.00     0.174 HD
HETATM   12  H   UNK N   1      33.790  16.746   7.196  0.00  0.00     0.174 HD
HETATM   13  H   UNK N   1      34.416  17.586  10.971  0.00  0.00     0.186 HD
ENDBRANCH   1   5
BRANCH   1  14
HETATM   14  S   UNK N   1      35.918  14.822  11.648  0.00  0.00    -0.089 SA
BRANCH  14  15
HETATM   15  C   UNK N   1      35.392  13.086  11.406  0.00  0.00     0.121 C 
BRANCH  15  16
HETATM   16  C   UNK N   1      35.011  12.416  12.688  0.00  0.00    -0.048 A 
HETATM   17  C   UNK N   1      35.317  13.004  13.923  0.00  0.00     0.024 A 
HETATM   18  C   UNK N   1      34.967  12.358  15.119  0.00  0.00     0.048 A 
HETATM   19  C   UNK N   1      34.299  11.126  15.067  0.00  0.00     0.016 A 
HETATM   20  C   UNK N   1      33.989  10.543  13.836  0.00  0.00     0.001 A 
HETATM   21  C   UNK N   1      34.348  11.186  12.649  0.00  0.00     0.008 A 
BRANCH  18  22
HETATM   22  C   UNK N   1      35.304  12.965  16.449  0.00  0.00     0.417 C 
HETATM   23  F   UNK N   1      35.699  11.968  17.323  0.00  0.00    -0.166 F 
HETATM   24  F   UNK N   1      34.192  13.603  16.965  0.00  0.00    -0.166 F 
HETATM   25  F   UNK N   1      36.332  13.885  16.332  0.00  0.00    -0.166 F 
ENDBRANCH  18  22
ENDBRANCH  15  16
ENDBRANCH  14  15
ENDBRANCH   1  14
TORSDOF 5
ENDMDL
MODEL 3
REMARK VINA RESULT:      -6.0      3.118      4.370
REMARK  5 active torsions:
REMARK  status: ('A' for Active; 'I' for Inactive)
REMARK    1  A    between atoms: C_3  and  N_5 
REMARK    2  A    between atoms: C_3  and  S_14 
REMARK       I    between atoms: N_4  and  C_11 
REMARK       I    between atoms: N_5  and  C_11 
REMARK    3  A    between atoms: C_6  and  C_15 
REMARK    4  A    between atoms: C_9  and  C_17 
REMARK    5  A    between atoms: S_14  and  C_15 
ROOT
HETATM    1  C   UNK N   1      31.832  17.505   8.462  0.00  0.00     0.153 C 
HETATM    2  N   UNK N   1      30.962  18.206   9.087  0.00  0.00    -0.379 N 
ATOM      3  HN  UNK N   1      30.748  19.049   8.554  1.00  0.00     0.158 HD
HETATM    4  H   UNK N   1      30.432  18.192   9.916  0.00  0.00     0.158 HD
ENDROOT
BRANCH   1   5
HETATM    5  N   UNK N   1      32.899  16.918   9.193  0.00  0.00    -0.172 N 
HETATM    6  C   UNK N   1      34.272  17.240   9.015  0.00  0.00     0.671 C 
HETATM    7  N   UNK N   1      35.165  16.495   9.545  0.00  0.00    -0.235 N 
HETATM    8  N   UNK N   1      34.649  18.487   8.462  0.00  0.00    -0.235 N 
HETATM    9  H   UNK N   1      35.832  16.871  10.163  0.00  0.00     0.174 HD
ATOM     10  HN  UNK N   1      35.187  15.499   9.325  1.00  0.00     0.174 HD
HETATM   11  H   UNK N   1      34.340  19.028   7.700  0.00  0.00     0.174 HD
HETATM   12  H   UNK N   1      35.390  18.911   8.953  0.00  0.00     0.174 HD
HETATM   13  H   UNK N   1      32.673  16.241   9.870  0.00  0.00     0.186 HD
ENDBRANCH   1   5
BRANCH   1  14
HETATM   14  S   UNK N   1      31.490  17.034   6.757  0.00  0.00    -0.089 SA
BRANCH  14  15
HETATM   15  C   UNK N   1      29.690  16.829   7.019  0.00  0.00     0.121 C 
BRANCH  15  16
HETATM   16  C   UNK N   1      28.876  17.746   6.164  0.00  0.00    -0.048 A 
HETATM   17  C   UNK N   1      28.341  18.931   6.687  0.00  0.00     0.024 A 
HETATM   18  C   UNK N   1      27.567  19.776   5.877  0.00  0.00     0.048 A 
HETATM   19  C   UNK N   1      27.343  19.431   4.537  0.00  0.00     0.016 A 
HETATM   20  C   UNK N   1      27.881  18.252   4.013  0.00  0.00     0.001 A 
HETATM   21  C   UNK N   1      28.643  17.411   4.826  0.00  0.00     0.008 A 
BRANCH  18  22
HETATM   22  C   UNK N   1      26.972  21.038   6.429  0.00  0.00     0.417 C 
HETATM   23  F   UNK N   1      25.941  21.458   5.608  0.00  0.00    -0.166 F 
HETATM   24  F   UNK N   1      27.939  22.025   6.481  0.00  0.00    -0.166 F 
HETATM   25  F   UNK N   1      26.470  20.838   7.704  0.00  0.00    -0.166 F 
ENDBRANCH  18  22
ENDBRANCH  15  16
ENDBRANCH  14  15
ENDBRANCH   1  14
TORSDOF 5
ENDMDL
MODEL 4
REMARK VINA RESULT:      -5.8      1.416      2.115
REMARK  5 active torsions:
REMARK  status: ('A' for Active; 'I' for Inactive)
REMARK    1  A    between atoms: C_3  and  N_5 
REMARK    2  A    between atoms: C_3  and  S_14 
REMARK       I    between atoms: N_4  and  C_11 
REMARK       I    between atoms: N_5  and  C_11 
REMARK    3  A    between atoms: C_6  and  C_15 
REMARK    4  A    between atoms: C_9  and  C_17 
REMARK    5  A    between atoms: S_14  and  C_15 
ROOT
HETATM    1  C   UNK N   1      34.070  14.797   7.775  0.00  0.00     0.153 C 
HETATM    2  N   UNK N   1      33.462  13.754   7.349  0.00  0.00    -0.379 N 
ATOM      3  HN  UNK N   1      32.623  14.027   6.837  1.00  0.00     0.158 HD
HETATM    4  H   UNK N   1      33.544  12.773   7.357  0.00  0.00     0.158 HD
ENDROOT
BRANCH   1   5
HETATM    5  N   UNK N   1      34.590  14.800   9.098  0.00  0.00    -0.172 N 
HETATM    6  C   UNK N   1      33.838  15.126  10.259  0.00  0.00     0.671 C 
HETATM    7  N   UNK N   1      34.447  15.331  11.363  0.00  0.00    -0.235 N 
HETATM    8  N   UNK N   1      32.428  14.998  10.258  0.00  0.00    -0.235 N 
HETATM    9  H   UNK N   1      34.225  14.805  12.166  0.00  0.00     0.174 HD
ATOM     10  HN  UNK N   1      35.171  16.047  11.415  1.00  0.00     0.174 HD
HETATM   11  H   UNK N   1      31.712  15.240   9.628  0.00  0.00     0.174 HD
HETATM   12  H   UNK N   1      32.087  14.568  11.075  0.00  0.00     0.174 HD
HETATM   13  H   UNK N   1      35.537  14.562   9.219  0.00  0.00     0.186 HD
ENDBRANCH   1   5
BRANCH   1  14
HETATM   14  S   UNK N   1      34.515  16.076   6.587  0.00  0.00    -0.089 SA
BRANCH  14  15
HETATM   15  C   UNK N   1      33.743  17.436   7.538  0.00  0.00     0.121 C 
BRANCH  15  16
HETATM   16  C   UNK N   1      32.253  17.454   7.409  0.00  0.00    -0.048 A 
HETATM   17  C   UNK N   1      31.443  17.822   8.491  0.00  0.00     0.024 A 
HETATM   18  C   UNK N   1      30.045  17.821   8.361  0.00  0.00     0.048 A 
HETATM   19  C   UNK N   1      29.467  17.459   7.136  0.00  0.00     0.016 A 
HETATM   20  C   UNK N   1      30.275  17.096   6.054  0.00  0.00     0.001 A 
HETATM   21  C   UNK N   1      31.665  17.091   6.193  0.00  0.00     0.008 A 
BRANCH  18  22
HETATM   22  C   UNK N   1      29.164  18.194   9.516  0.00  0.00     0.417 C 
HETATM   23  F   UNK N   1      29.834  19.082  10.338  0.00  0.00    -0.166 F 
HETATM   24  F   UNK N   1      28.844  17.061  10.242  0.00  0.00    -0.166 F 
HETATM   25  F   UNK N   1      27.993  18.790   9.080  0.00  0.00    -0.166 F 
ENDBRANCH  18  22
ENDBRANCH  15  16
ENDBRANCH  14  15
ENDBRANCH   1  14
TORSDOF 5
ENDMDL
MODEL 5
REMARK VINA RESULT:      -5.8      2.040      2.898
REMARK  5 active torsions:
REMARK  status: ('A' for Active; 'I' for Inactive)
REMARK    1  A    between atoms: C_3  and  N_5 
REMARK    2  A    between atoms: C_3  and  S_14 
REMARK       I    between atoms: N_4  and  C_11 
REMARK       I    between atoms: N_5  and  C_11 
REMARK    3  A    between atoms: C_6  and  C_15 
REMARK    4  A    between atoms: C_9  and  C_17 
REMARK    5  A    between atoms: S_14  and  C_15 
ROOT
HETATM    1  C   UNK N   1      33.247  15.108   9.870  0.00  0.00     0.153 C 
HETATM    2  N   UNK N   1      31.986  15.240  10.043  0.00  0.00    -0.379 N 
ATOM      3  HN  UNK N   1      31.634  15.999   9.458  1.00  0.00     0.158 HD
HETATM    4  H   UNK N   1      31.246  14.845  10.557  0.00  0.00     0.158 HD
ENDROOT
BRANCH   1   5
HETATM    5  N   UNK N   1      34.080  14.899  11.003  0.00  0.00    -0.172 N 
HETATM    6  C   UNK N   1      35.174  15.730  11.363  0.00  0.00     0.671 C 
HETATM    7  N   UNK N   1      36.001  15.330  12.252  0.00  0.00    -0.235 N 
HETATM    8  N   UNK N   1      35.227  17.075  10.924  0.00  0.00    -0.235 N 
HETATM    9  H   UNK N   1      36.173  15.869  13.058  0.00  0.00     0.174 HD
ATOM     10  HN  UNK N   1      36.487  14.443  12.126  1.00  0.00     0.174 HD
HETATM   11  H   UNK N   1      35.059  17.530  10.067  0.00  0.00     0.174 HD
HETATM   12  H   UNK N   1      35.493  17.697  11.639  0.00  0.00     0.174 HD
HETATM   13  H   UNK N   1      33.886  14.124  11.577  0.00  0.00     0.186 HD
ENDBRANCH   1   5
BRANCH   1  14
HETATM   14  S   UNK N   1      33.865  14.874   8.194  0.00  0.00    -0.089 SA
BRANCH  14  15
HETATM   15  C   UNK N   1      33.861  16.658   7.784  0.00  0.00     0.121 C 
BRANCH  15  16
HETATM   16  C   UNK N   1      32.986  16.977   6.615  0.00  0.00    -0.048 A 
HETATM   17  C   UNK N   1      31.591  16.992   6.744  0.00  0.00     0.024 A 
HETATM   18  C   UNK N   1      30.781  17.280   5.634  0.00  0.00     0.048 A 
HETATM   19  C   UNK N   1      31.380  17.564   4.399  0.00  0.00     0.016 A 
HETATM   20  C   UNK N   1      32.771  17.555   4.271  0.00  0.00     0.001 A 
HETATM   21  C   UNK N   1      33.572  17.259   5.377  0.00  0.00     0.008 A 
BRANCH  18  22
HETATM   22  C   UNK N   1      29.285  17.279   5.752  0.00  0.00     0.417 C 
HETATM   23  F   UNK N   1      28.925  17.647   7.036  0.00  0.00    -0.166 F 
HETATM   24  F   UNK N   1      28.798  16.012   5.492  0.00  0.00    -0.166 F 
HETATM   25  F   UNK N   1      28.713  18.169   4.859  0.00  0.00    -0.166 F 
ENDBRANCH  18  22
ENDBRANCH  15  16
ENDBRANCH  14  15
ENDBRANCH   1  14
TORSDOF 5
ENDMDL
MODEL 6
REMARK VINA RESULT:      -5.7      8.544     10.691
REMARK  5 active torsions:
REMARK  status: ('A' for Active; 'I' for Inactive)
REMARK    1  A    between atoms: C_3  and  N_5 
REMARK    2  A    between atoms: C_3  and  S_14 
REMARK       I    between atoms: N_4  and  C_11 
REMARK       I    between atoms: N_5  and  C_11 
REMARK    3  A    between atoms: C_6  and  C_15 
REMARK    4  A    between atoms: C_9  and  C_17 
REMARK    5  A    between atoms: S_14  and  C_15 
ROOT
HETATM    1  C   UNK N   1      37.068  12.020  13.823  0.00  0.00     0.153 C 
HETATM    2  N   UNK N   1      38.234  11.855  14.325  0.00  0.00    -0.379 N 
ATOM      3  HN  UNK N   1      38.157  11.669  15.326  1.00  0.00     0.158 HD
HETATM    4  H   UNK N   1      39.181  11.849  14.057  0.00  0.00     0.158 HD
ENDROOT
BRANCH   1   5
HETATM    5  N   UNK N   1      36.862  13.072  12.890  0.00  0.00    -0.172 N 
HETATM    6  C   UNK N   1      36.558  14.414  13.242  0.00  0.00     0.671 C 
HETATM    7  N   UNK N   1      36.160  15.226  12.339  0.00  0.00    -0.235 N 
HETATM    8  N   UNK N   1      36.911  14.917  14.518  0.00  0.00    -0.235 N 
HETATM    9  H   UNK N   1      36.640  16.069  12.172  0.00  0.00     0.174 HD
ATOM     10  HN  UNK N   1      35.334  14.998  11.785  1.00  0.00     0.174 HD
HETATM   11  H   UNK N   1      36.845  14.575  15.439  0.00  0.00     0.174 HD
HETATM   12  H   UNK N   1      37.315  15.814  14.474  0.00  0.00     0.174 HD
HETATM   13  H   UNK N   1      36.933  12.856  11.932  0.00  0.00     0.186 HD
ENDBRANCH   1   5
BRANCH   1  14
HETATM   14  S   UNK N   1      35.836  10.730  14.072  0.00  0.00    -0.089 SA
BRANCH  14  15
HETATM   15  C   UNK N   1      34.617  11.841  14.866  0.00  0.00     0.121 C 
BRANCH  15  16
HETATM   16  C   UNK N   1      34.921  12.092  16.308  0.00  0.00    -0.048 A 
HETATM   17  C   UNK N   1      35.361  11.055  17.140  0.00  0.00     0.024 A 
HETATM   18  C   UNK N   1      35.630  11.301  18.496  0.00  0.00     0.048 A 
HETATM   19  C   UNK N   1      35.466  12.596  19.007  0.00  0.00     0.016 A 
HETATM   20  C   UNK N   1      35.032  13.633  18.176  0.00  0.00     0.001 A 
HETATM   21  C   UNK N   1      34.758  13.379  16.830  0.00  0.00     0.008 A 
BRANCH  18  22
HETATM   22  C   UNK N   1      36.083  10.196  19.404  0.00  0.00     0.417 C 
HETATM   23  F   UNK N   1      35.024   9.342  19.654  0.00  0.00    -0.166 F 
HETATM   24  F   UNK N   1      36.527  10.729  20.600  0.00  0.00    -0.166 F 
HETATM   25  F   UNK N   1      37.113   9.469  18.831  0.00  0.00    -0.166 F 
ENDBRANCH  18  22
ENDBRANCH  15  16
ENDBRANCH  14  15
ENDBRANCH   1  14
TORSDOF 5
ENDMDL
MODEL 7
REMARK VINA RESULT:      -5.7      7.097     10.187
REMARK  5 active torsions:
REMARK  status: ('A' for Active; 'I' for Inactive)
REMARK    1  A    between atoms: C_3  and  N_5 
REMARK    2  A    between atoms: C_3  and  S_14 
REMARK       I    between atoms: N_4  and  C_11 
REMARK       I    between atoms: N_5  and  C_11 
REMARK    3  A    between atoms: C_6  and  C_15 
REMARK    4  A    between atoms: C_9  and  C_17 
REMARK    5  A    between atoms: S_14  and  C_15 
ROOT
HETATM    1  C   UNK N   1      36.344  14.115  13.031  0.00  0.00     0.153 C 
HETATM    2  N   UNK N   1      36.759  14.865  13.982  0.00  0.00    -0.379 N 
ATOM      3  HN  UNK N   1      36.024  14.974  14.682  1.00  0.00     0.158 HD
HETATM    4  H   UNK N   1      37.558  15.370  14.255  0.00  0.00     0.158 HD
ENDROOT
BRANCH   1   5
HETATM    5  N   UNK N   1      36.634  14.481  11.688  0.00  0.00    -0.172 N 
HETATM    6  C   UNK N   1      35.666  14.916  10.745  0.00  0.00     0.671 C 
HETATM    7  N   UNK N   1      35.983  14.992   9.509  0.00  0.00    -0.235 N 
HETATM    8  N   UNK N   1      34.444  15.482  11.181  0.00  0.00    -0.235 N 
HETATM    9  H   UNK N   1      35.889  15.839   9.016  0.00  0.00     0.174 HD
ATOM     10  HN  UNK N   1      36.340  14.166   9.028  1.00  0.00     0.174 HD
HETATM   11  H   UNK N   1      33.783  15.251  11.874  0.00  0.00     0.174 HD
HETATM   12  H   UNK N   1      34.199  16.291  10.678  0.00  0.00     0.174 HD
HETATM   13  H   UNK N   1      37.570  14.427  11.391  0.00  0.00     0.186 HD
ENDBRANCH   1   5
BRANCH   1  14
HETATM   14  S   UNK N   1      35.699  12.484  13.443  0.00  0.00    -0.089 SA
BRANCH  14  15
HETATM   15  C   UNK N   1      34.951  13.017  15.026  0.00  0.00     0.121 C 
BRANCH  15  16
HETATM   16  C   UNK N   1      34.973  11.940  16.064  0.00  0.00    -0.048 A 
HETATM   17  C   UNK N   1      35.200  12.245  17.412  0.00  0.00     0.024 A 
HETATM   18  C   UNK N   1      35.232  11.223  18.373  0.00  0.00     0.048 A 
HETATM   19  C   UNK N   1      35.024   9.895  17.974  0.00  0.00     0.016 A 
HETATM   20  C   UNK N   1      34.792   9.590  16.630  0.00  0.00     0.001 A 
HETATM   21  C   UNK N   1      34.770  10.611  15.677  0.00  0.00     0.008 A 
BRANCH  18  22
HETATM   22  C   UNK N   1      35.494  11.532  19.818  0.00  0.00     0.417 C 
HETATM   23  F   UNK N   1      34.526  10.930  20.601  0.00  0.00    -0.166 F 
HETATM   24  F   UNK N   1      35.449  12.900  20.016  0.00  0.00    -0.166 F 
HETATM   25  F   UNK N   1      36.737  11.066  20.212  0.00  0.00    -0.166 F 
ENDBRANCH  18  22
ENDBRANCH  15  16
ENDBRANCH  14  15
ENDBRANCH   1  14
TORSDOF 5
ENDMDL
MODEL 8
REMARK VINA RESULT:      -5.7     10.289     12.124
REMARK  5 active torsions:
REMARK  status: ('A' for Active; 'I' for Inactive)
REMARK    1  A    between atoms: C_3  and  N_5 
REMARK    2  A    between atoms: C_3  and  S_14 
REMARK       I    between atoms: N_4  and  C_11 
REMARK       I    between atoms: N_5  and  C_11 
REMARK    3  A    between atoms: C_6  and  C_15 
REMARK    4  A    between atoms: C_9  and  C_17 
REMARK    5  A    between atoms: S_14  and  C_15 
ROOT
HETATM    1  C   UNK N   1      20.720  17.163   4.103  0.00  0.00     0.153 C 
HETATM    2  N   UNK N   1      19.855  16.344   4.571  0.00  0.00    -0.379 N 
ATOM      3  HN  UNK N   1      20.253  15.833   5.359  1.00  0.00     0.158 HD
HETATM    4  H   UNK N   1      18.929  16.048   4.414  0.00  0.00     0.158 HD
ENDROOT
BRANCH   1   5
HETATM    5  N   UNK N   1      20.867  17.283   2.695  0.00  0.00    -0.172 N 
HETATM    6  C   UNK N   1      19.870  17.793   1.821  0.00  0.00     0.671 C 
HETATM    7  N   UNK N   1      20.003  17.639   0.559  0.00  0.00    -0.235 N 
HETATM    8  N   UNK N   1      18.864  18.660   2.310  0.00  0.00    -0.235 N 
HETATM    9  H   UNK N   1      20.002  18.416  -0.045  0.00  0.00     0.174 HD
ATOM     10  HN  UNK N   1      20.113  16.702   0.174  1.00  0.00     0.174 HD
HETATM   11  H   UNK N   1      18.285  18.668   3.106  0.00  0.00     0.174 HD
HETATM   12  H   UNK N   1      18.708  19.431   1.720  0.00  0.00     0.174 HD
HETATM   13  H   UNK N   1      21.718  16.991   2.297  0.00  0.00     0.186 HD
ENDBRANCH   1   5
BRANCH   1  14
HETATM   14  S   UNK N   1      21.476  18.348   5.231  0.00  0.00    -0.089 SA
BRANCH  14  15
HETATM   15  C   UNK N   1      23.176  17.709   4.998  0.00  0.00     0.121 C 
BRANCH  15  16
HETATM   16  C   UNK N   1      24.116  18.750   4.481  0.00  0.00    -0.048 A 
HETATM   17  C   UNK N   1      25.346  18.983   5.109  0.00  0.00     0.024 A 
HETATM   18  C   UNK N   1      26.213  19.974   4.621  0.00  0.00     0.048 A 
HETATM   19  C   UNK N   1      25.843  20.719   3.493  0.00  0.00     0.016 A 
HETATM   20  C   UNK N   1      24.618  20.483   2.863  0.00  0.00     0.001 A 
HETATM   21  C   UNK N   1      23.756  19.502   3.358  0.00  0.00     0.008 A 
BRANCH  18  22
HETATM   22  C   UNK N   1      27.525  20.249   5.295  0.00  0.00     0.417 C 
HETATM   23  F   UNK N   1      27.687  19.380   6.359  0.00  0.00    -0.166 F 
HETATM   24  F   UNK N   1      27.542  21.549   5.767  0.00  0.00    -0.166 F 
HETATM   25  F   UNK N   1      28.583  20.079   4.418  0.00  0.00    -0.166 F 
ENDBRANCH  18  22
ENDBRANCH  15  16
ENDBRANCH  14  15
ENDBRANCH   1  14
TORSDOF 5
ENDMDL
MODEL 9
REMARK VINA RESULT:      -5.5      4.569      7.570
REMARK  5 active torsions:
REMARK  status: ('A' for Active; 'I' for Inactive)
REMARK    1  A    between atoms: C_3  and  N_5 
REMARK    2  A    between atoms: C_3  and  S_14 
REMARK       I    between atoms: N_4  and  C_11 
REMARK       I    between atoms: N_5  and  C_11 
REMARK    3  A    between atoms: C_6  and  C_15 
REMARK    4  A    between atoms: C_9  and  C_17 
REMARK    5  A    between atoms: S_14  and  C_15 
ROOT
HETATM    1  C   UNK N   1      34.893  16.458   9.746  0.00  0.00     0.153 C 
HETATM    2  N   UNK N   1      35.152  17.173  10.777  0.00  0.00    -0.379 N 
ATOM      3  HN  UNK N   1      34.830  16.694  11.619  1.00  0.00     0.158 HD
HETATM    4  H   UNK N   1      35.561  18.034  11.018  0.00  0.00     0.158 HD
ENDROOT
BRANCH   1   5
HETATM    5  N   UNK N   1      34.372  17.088   8.584  0.00  0.00    -0.172 N 
HETATM    6  C   UNK N   1      33.000  17.096   8.217  0.00  0.00     0.671 C 
HETATM    7  N   UNK N   1      32.666  17.479   7.044  0.00  0.00    -0.235 N 
HETATM    8  N   UNK N   1      31.996  16.910   9.197  0.00  0.00    -0.235 N 
HETATM    9  H   UNK N   1      32.029  18.219   6.919  0.00  0.00     0.174 HD
ATOM     10  HN  UNK N   1      33.064  17.013   6.229  1.00  0.00     0.174 HD
HETATM   11  H   UNK N   1      31.874  16.292   9.954  0.00  0.00     0.174 HD
HETATM   12  H   UNK N   1      31.249  17.544   9.100  0.00  0.00     0.174 HD
HETATM   13  H   UNK N   1      35.007  17.551   7.990  0.00  0.00     0.186 HD
ENDBRANCH   1   5
BRANCH   1  14
HETATM   14  S   UNK N   1      35.495  14.760   9.706  0.00  0.00    -0.089 SA
BRANCH  14  15
HETATM   15  C   UNK N   1      36.281  14.843  11.357  0.00  0.00     0.121 C 
BRANCH  15  16
HETATM   16  C   UNK N   1      35.768  13.795  12.292  0.00  0.00    -0.048 A 
HETATM   17  C   UNK N   1      35.819  13.983  13.679  0.00  0.00     0.024 A 
HETATM   18  C   UNK N   1      35.346  12.984  14.545  0.00  0.00     0.048 A 
HETATM   19  C   UNK N   1      34.812  11.804  14.011  0.00  0.00     0.016 A 
HETATM   20  C   UNK N   1      34.756  11.619  12.627  0.00  0.00     0.001 A 
HETATM   21  C   UNK N   1      35.236  12.612  11.770  0.00  0.00     0.008 A 
BRANCH  18  22
HETATM   22  C   UNK N   1      35.413  13.162  16.034  0.00  0.00     0.417 C 
HETATM   23  F   UNK N   1      34.143  13.409  16.525  0.00  0.00    -0.166 F 
HETATM   24  F   UNK N   1      36.231  14.235  16.338  0.00  0.00    -0.166 F 
HETATM   25  F   UNK N   1      35.915  12.029  16.651  0.00  0.00    -0.166 F 
ENDBRANCH  18  22
ENDBRANCH  15  16
ENDBRANCH  14  15
ENDBRANCH   1  14
TORSDOF 5
ENDMDL
