REMARK  9 active torsions:
REMARK  status: ('A' for Active; 'I' for Inactive)
REMARK    1  A    between atoms: C_2  and  C_9 
REMARK    2  A    between atoms: C_3  and  C_2 
REMARK    3  A    between atoms: C_9  and  C_16 
REMARK    4  A    between atoms: C_9  and  C_10 
REMARK    5  A    between atoms: C_16  and  C_17 
REMARK    6  A    between atoms: C_21  and  C_24 
REMARK    7  A    between atoms: C_24  and  P_27 
REMARK    8  A    between atoms: P_27  and  O_30 
REMARK    9  A    between atoms: P_27  and  O_28 
ROOT
HETATM    1  C   UNK N   1       0.846   0.479   0.750  0.00  0.00    -0.056 A 
HETATM    2  C   UNK N   1       1.880   0.888  -0.087  0.00  0.00     0.027 A 
HETATM    3  C   UNK N   1       1.930   2.200  -0.561  0.00  0.00     0.024 A 
HETATM    4 Br   UNK N   1       3.369   2.603  -1.760  0.00  0.00    -0.050 Br
HETATM    5  C   UNK N   1       0.876   3.097  -0.227  0.00  0.00     0.043 A 
HETATM    6  C   UNK N   1      -0.110   2.676   0.674  0.00  0.00     0.016 A 
HETATM    7  C   UNK N   1      -0.121   1.385   1.164  0.00  0.00     0.008 A 
ENDROOT
BRANCH   1   8
HETATM    8  C   UNK N   1       0.582  -0.970   0.919  0.00  0.00     0.056 C 
BRANCH   8   9
HETATM    9  C   UNK N   1      -0.382  -1.448  -0.204  0.00  0.00     0.098 C 
BRANCH   9  10
HETATM   10  C   UNK N   1      -0.396  -2.971  -0.195  0.00  0.00     0.168 C 
HETATM   11  O   UNK N   1       0.677  -3.533  -0.331  0.00  0.00    -0.292 OA
BRANCH  10  12
HETATM   12  C   UNK N   1      -1.616  -3.820  -0.029  0.00  0.00     0.010 A 
HETATM   13  C   UNK N   1      -2.917  -3.301  -0.046  0.00  0.00     0.015 A 
HETATM   14  C   UNK N   1      -4.025  -4.125   0.148  0.00  0.00     0.001 A 
HETATM   15  C   UNK N   1      -3.842  -5.490   0.369  0.00  0.00     0.000 A 
HETATM   16  C   UNK N   1      -2.554  -6.028   0.377  0.00  0.00     0.001 A 
HETATM   17  C   UNK N   1      -1.448  -5.199   0.173  0.00  0.00     0.015 A 
ENDBRANCH  10  12
ENDBRANCH   9  10
BRANCH   9  18
HETATM   18  C   UNK N   1      -1.738  -0.759  -0.124  0.00  0.00    -0.046 A 
HETATM   19  C   UNK N   1      -2.397  -0.586   1.109  0.00  0.00     0.008 A 
HETATM   20  C   UNK N   1      -3.629   0.073   1.165  0.00  0.00     0.001 A 
HETATM   21  C   UNK N   1      -4.227   0.542  -0.007  0.00  0.00     0.000 A 
HETATM   22  C   UNK N   1      -3.588   0.364  -1.237  0.00  0.00     0.001 A 
HETATM   23  C   UNK N   1      -2.343  -0.270  -1.294  0.00  0.00     0.008 A 
ENDBRANCH   9  18
ENDBRANCH   8   9
ENDBRANCH   1   8
BRANCH   5  24
HETATM   24  C   UNK N   1       0.661   4.448  -0.867  0.00  0.00     0.366 C 
HETATM   25  F   UNK N   1       1.653   4.800  -1.756  0.00  0.00    -0.187 F 
HETATM   26  F   UNK N   1      -0.528   4.374  -1.570  0.00  0.00    -0.187 F 
BRANCH  24  27
HETATM   27  P   UNK N   1       0.487   5.811   0.389  0.00  0.00     0.315 P 
HETATM   28  O   UNK N   1      -0.641   5.492   1.407  0.00  0.00    -0.649 OA
BRANCH  27  29
HETATM   29  O   UNK N   1       1.884   6.129   1.366  0.00  0.00    -0.325 OA
HETATM   30  H   UNK N   1       2.429   5.541   1.912  0.00  0.00     0.220 HD
ENDBRANCH  27  29
BRANCH  27  31
HETATM   31  O   UNK N   1      -0.008   7.318  -0.311  0.00  0.00    -0.325 OA
HETATM   32  H   UNK N   1       0.583   7.980  -0.703  0.00  0.00     0.220 HD
ENDBRANCH  27  31
ENDBRANCH  24  27
ENDBRANCH   5  24
TORSDOF 9
