MODEL 1
REMARK VINA RESULT:      -9.0      0.000      0.000
REMARK  7 active torsions:
REMARK  status: ('A' for Active; 'I' for Inactive)
REMARK    1  A    between atoms: C_2  and  C_23 
REMARK    2  A    between atoms: C_5  and  C_6 
REMARK    3  A    between atoms: C_12  and  C_17 
REMARK    4  A    between atoms: O_15  and  C_16 
REMARK    5  A    between atoms: C_16  and  C_17 
REMARK    6  A    between atoms: C_17  and  N_18 
REMARK       I    between atoms: N_18  and  C_19 
REMARK    7  A    between atoms: C_19  and  C_21 
ROOT
HETATM    1  C   UNK N   1      36.681  13.426  11.099  0.00  0.00     0.102 A 
HETATM    2  C   UNK N   1      35.577  15.242  10.764  0.00  0.00     0.101 A 
HETATM    3  C   UNK N   1      34.856  14.507  11.631  0.00  0.00     0.050 A 
HETATM    4  C   UNK N   1      35.505  13.361  11.832  0.00  0.00     0.011 A 
HETATM    5  N   UNK N   1      36.729  14.617  10.451  0.00  0.00    -0.361 N 
HETATM    6  H   UNK N   1      37.452  14.953   9.875  0.00  0.00     0.165 HD
ENDROOT
BRANCH   2   7
HETATM    7  C   UNK N   1      35.109  16.553  10.285  0.00  0.00     0.268 C 
HETATM    8  N   UNK N   1      33.998  16.689   9.485  0.00  0.00    -0.345 N 
HETATM    9  H   UNK N   1      33.548  17.564   9.506  0.00  0.00     0.163 HD
HETATM   10  O   UNK N   1      35.731  17.553  10.614  0.00  0.00    -0.266 OA
BRANCH   8  11
HETATM   11  C   UNK N   1      33.403  15.668   8.595  0.00  0.00     0.141 C 
BRANCH  11  12
HETATM   12  C   UNK N   1      32.965  16.276   7.283  0.00  0.00    -0.032 A 
HETATM   13  C   UNK N   1      31.619  16.556   7.041  0.00  0.00     0.036 A 
HETATM   14  C   UNK N   1      31.237  17.149   5.832  0.00  0.00     0.073 A 
HETATM   15  C   UNK N   1      32.205  17.487   4.873  0.00  0.00     0.138 A 
HETATM   16 Cl   UNK N   1      29.544  17.461   5.525  0.00  0.00    -0.081 Cl
HETATM   17  C   UNK N   1      33.546  17.219   5.112  0.00  0.00     0.044 A 
HETATM   18  F   UNK N   1      31.851  18.073   3.707  0.00  0.00    -0.204 F 
HETATM   19  C   UNK N   1      33.919  16.617   6.300  0.00  0.00     0.012 A 
ENDBRANCH  11  12
BRANCH  11  20
HETATM   20  C   UNK N   1      32.216  14.855   9.132  0.00  0.00     0.194 C 
BRANCH  20  21
HETATM   21  O   UNK N   1      31.760  15.365  10.352  0.00  0.00    -0.399 OA
HETATM   22  H   UNK N   1      31.333  15.856  11.072  0.00  0.00     0.209 HD
ENDBRANCH  20  21
ENDBRANCH  11  20
ENDBRANCH   8  11
ENDBRANCH   2   7
BRANCH   4  23
HETATM   23  C   UNK N   1      34.880  12.288  12.625  0.00  0.00     0.072 A 
HETATM   24  N   UNK N   1      34.129  11.330  12.054  0.00  0.00    -0.299 N 
HETATM   25  N   UNK N   1      33.743  10.478  12.999  0.00  0.00    -0.310 N 
ATOM     26  HN  UNK N   1      33.895  11.268  11.064  1.00  0.00     0.187 HD
HETATM   27  C   UNK N   1      34.226  10.894  14.185  0.00  0.00     0.121 A 
HETATM   28  H   UNK N   1      33.194   9.673  12.855  0.00  0.00     0.186 HD
HETATM   29  C   UNK N   1      34.946  12.060  13.976  0.00  0.00     0.020 A 
BRANCH  29  30
HETATM   30  C   UNK N   1      35.533  12.921  15.008  0.00  0.00    -0.021 A 
HETATM   31  C   UNK N   1      35.015  12.928  16.305  0.00  0.00     0.036 A 
HETATM   32  C   UNK N   1      35.547  13.796  17.262  0.00  0.00     0.034 A 
HETATM   33  C   UNK N   1      36.581  14.674  16.922  0.00  0.00     0.024 A 
HETATM   34 Cl   UNK N   1      34.920  13.782  18.889  0.00  0.00    -0.084 Cl
HETATM   35  C   UNK N   1      37.086  14.686  15.625  0.00  0.00     0.003 A 
HETATM   36  C   UNK N   1      36.560  13.816  14.679  0.00  0.00     0.012 A 
ENDBRANCH  29  30
ENDBRANCH   4  23
TORSDOF 7
ENDMDL
MODEL 2
REMARK VINA RESULT:      -8.7      2.077      2.931
REMARK  7 active torsions:
REMARK  status: ('A' for Active; 'I' for Inactive)
REMARK    1  A    between atoms: C_2  and  C_23 
REMARK    2  A    between atoms: C_5  and  C_6 
REMARK    3  A    between atoms: C_12  and  C_17 
REMARK    4  A    between atoms: O_15  and  C_16 
REMARK    5  A    between atoms: C_16  and  C_17 
REMARK    6  A    between atoms: C_17  and  N_18 
REMARK       I    between atoms: N_18  and  C_19 
REMARK    7  A    between atoms: C_19  and  C_21 
ROOT
HETATM    1  C   UNK N   1      34.180  14.573  10.995  0.00  0.00     0.102 A 
HETATM    2  C   UNK N   1      34.486  16.311   9.762  0.00  0.00     0.101 A 
HETATM    3  C   UNK N   1      35.666  15.664   9.817  0.00  0.00     0.050 A 
HETATM    4  C   UNK N   1      35.510  14.599  10.601  0.00  0.00     0.011 A 
HETATM    5  N   UNK N   1      33.541  15.637  10.446  0.00  0.00    -0.361 N 
HETATM    6  H   UNK N   1      32.588  15.867  10.529  0.00  0.00     0.165 HD
ENDROOT
BRANCH   2   7
HETATM    7  C   UNK N   1      34.328  17.569   9.016  0.00  0.00     0.268 C 
HETATM    8  N   UNK N   1      33.169  17.883   8.341  0.00  0.00    -0.345 N 
HETATM    9  H   UNK N   1      33.000  18.840   8.186  0.00  0.00     0.163 HD
HETATM   10  O   UNK N   1      35.258  18.362   8.999  0.00  0.00    -0.266 OA
BRANCH   8  11
HETATM   11  C   UNK N   1      32.151  16.943   7.823  0.00  0.00     0.141 C 
BRANCH  11  12
HETATM   12  C   UNK N   1      32.065  17.009   6.316  0.00  0.00    -0.032 A 
HETATM   13  C   UNK N   1      30.839  16.852   5.665  0.00  0.00     0.036 A 
HETATM   14  C   UNK N   1      30.774  16.949   4.270  0.00  0.00     0.073 A 
HETATM   15  C   UNK N   1      31.930  17.230   3.525  0.00  0.00     0.138 A 
HETATM   16 Cl   UNK N   1      29.241  16.711   3.463  0.00  0.00    -0.081 Cl
HETATM   17  C   UNK N   1      33.150  17.397   4.169  0.00  0.00     0.044 A 
HETATM   18  F   UNK N   1      31.879  17.340   2.179  0.00  0.00    -0.204 F 
HETATM   19  C   UNK N   1      33.215  17.284   5.545  0.00  0.00     0.012 A 
ENDBRANCH  11  12
BRANCH  11  20
HETATM   20  C   UNK N   1      30.719  17.072   8.361  0.00  0.00     0.194 C 
BRANCH  20  21
HETATM   21  O   UNK N   1      30.621  16.582   9.668  0.00  0.00    -0.399 OA
HETATM   22  H   UNK N   1      30.607  16.054  10.482  0.00  0.00     0.209 HD
ENDBRANCH  20  21
ENDBRANCH  11  20
ENDBRANCH   8  11
ENDBRANCH   2   7
BRANCH   4  23
HETATM   23  C   UNK N   1      36.676  13.776  10.969  0.00  0.00     0.072 A 
HETATM   24  N   UNK N   1      37.840  13.857  10.301  0.00  0.00    -0.299 N 
HETATM   25  N   UNK N   1      38.718  13.045  10.881  0.00  0.00    -0.310 N 
ATOM     26  HN  UNK N   1      38.020  14.444   9.487  1.00  0.00     0.187 HD
HETATM   27  C   UNK N   1      38.117  12.420  11.912  0.00  0.00     0.121 A 
HETATM   28  H   UNK N   1      39.654  12.920  10.604  0.00  0.00     0.186 HD
HETATM   29  C   UNK N   1      36.804  12.860  11.981  0.00  0.00     0.020 A 
BRANCH  29  30
HETATM   30  C   UNK N   1      35.757  12.346  12.870  0.00  0.00    -0.021 A 
HETATM   31  C   UNK N   1      35.558  12.909  14.132  0.00  0.00     0.036 A 
HETATM   32  C   UNK N   1      34.596  12.371  14.991  0.00  0.00     0.034 A 
HETATM   33  C   UNK N   1      33.846  11.257  14.602  0.00  0.00     0.024 A 
HETATM   34 Cl   UNK N   1      34.328  13.095  16.555  0.00  0.00    -0.084 Cl
HETATM   35  C   UNK N   1      34.055  10.679  13.353  0.00  0.00     0.003 A 
HETATM   36  C   UNK N   1      35.007  11.222  12.499  0.00  0.00     0.012 A 
ENDBRANCH  29  30
ENDBRANCH   4  23
TORSDOF 7
ENDMDL
MODEL 3
REMARK VINA RESULT:      -8.5      3.547      8.863
REMARK  7 active torsions:
REMARK  status: ('A' for Active; 'I' for Inactive)
REMARK    1  A    between atoms: C_2  and  C_23 
REMARK    2  A    between atoms: C_5  and  C_6 
REMARK    3  A    between atoms: C_12  and  C_17 
REMARK    4  A    between atoms: O_15  and  C_16 
REMARK    5  A    between atoms: C_16  and  C_17 
REMARK    6  A    between atoms: C_17  and  N_18 
REMARK       I    between atoms: N_18  and  C_19 
REMARK    7  A    between atoms: C_19  and  C_21 
ROOT
HETATM    1  C   UNK N   1      32.465  14.588   9.297  0.00  0.00     0.102 A 
HETATM    2  C   UNK N   1      34.247  15.563  10.010  0.00  0.00     0.101 A 
HETATM    3  C   UNK N   1      34.134  15.872   8.704  0.00  0.00     0.050 A 
HETATM    4  C   UNK N   1      33.053  15.254   8.231  0.00  0.00     0.011 A 
HETATM    5  N   UNK N   1      33.207  14.806  10.412  0.00  0.00    -0.361 N 
HETATM    6  H   UNK N   1      33.025  14.481  11.322  0.00  0.00     0.165 HD
ENDROOT
BRANCH   2   7
HETATM    7  C   UNK N   1      35.374  16.045  10.823  0.00  0.00     0.268 C 
HETATM    8  N   UNK N   1      36.378  15.209  11.256  0.00  0.00    -0.345 N 
HETATM    9  H   UNK N   1      37.241  15.634  11.465  0.00  0.00     0.163 HD
HETATM   10  O   UNK N   1      35.417  17.230  11.122  0.00  0.00    -0.266 OA
BRANCH   8  11
HETATM   11  C   UNK N   1      36.306  13.743  11.444  0.00  0.00     0.141 C 
BRANCH  11  12
HETATM   12  C   UNK N   1      35.895  13.394  12.855  0.00  0.00    -0.032 A 
HETATM   13  C   UNK N   1      34.973  12.372  13.097  0.00  0.00     0.036 A 
HETATM   14  C   UNK N   1      34.630  12.041  14.413  0.00  0.00     0.073 A 
HETATM   15  C   UNK N   1      35.227  12.714  15.491  0.00  0.00     0.138 A 
HETATM   16 Cl   UNK N   1      33.447  10.787  14.702  0.00  0.00    -0.081 Cl
HETATM   17  C   UNK N   1      36.150  13.724  15.256  0.00  0.00     0.044 A 
HETATM   18  F   UNK N   1      34.914  12.394  16.766  0.00  0.00    -0.204 F 
HETATM   19  C   UNK N   1      36.475  14.061  13.955  0.00  0.00     0.012 A 
ENDBRANCH  11  12
BRANCH  11  20
HETATM   20  C   UNK N   1      37.561  12.919  11.124  0.00  0.00     0.194 C 
BRANCH  20  21
HETATM   21  O   UNK N   1      38.643  13.744  10.804  0.00  0.00    -0.399 OA
HETATM   22  H   UNK N   1      39.389  14.209  10.393  0.00  0.00     0.209 HD
ENDBRANCH  20  21
ENDBRANCH  11  20
ENDBRANCH   8  11
ENDBRANCH   2   7
BRANCH   4  23
HETATM   23  C   UNK N   1      32.755  15.287   6.788  0.00  0.00     0.072 A 
HETATM   24  N   UNK N   1      33.616  14.803   5.875  0.00  0.00    -0.299 N 
HETATM   25  N   UNK N   1      33.064  14.919   4.671  0.00  0.00    -0.310 N 
ATOM     26  HN  UNK N   1      34.537  14.412   6.074  1.00  0.00     0.187 HD
HETATM   27  C   UNK N   1      31.855  15.498   4.801  0.00  0.00     0.121 A 
HETATM   28  H   UNK N   1      33.472  14.630   3.824  0.00  0.00     0.186 HD
HETATM   29  C   UNK N   1      31.639  15.757   6.145  0.00  0.00     0.020 A 
BRANCH  29  30
HETATM   30  C   UNK N   1      30.510  16.495   6.722  0.00  0.00    -0.021 A 
HETATM   31  C   UNK N   1      30.693  17.312   7.839  0.00  0.00     0.036 A 
HETATM   32  C   UNK N   1      29.597  17.962   8.412  0.00  0.00     0.034 A 
HETATM   33  C   UNK N   1      28.314  17.781   7.887  0.00  0.00     0.024 A 
HETATM   34 Cl   UNK N   1      29.832  19.007   9.789  0.00  0.00    -0.084 Cl
HETATM   35  C   UNK N   1      28.123  16.950   6.786  0.00  0.00     0.003 A 
HETATM   36  C   UNK N   1      29.216  16.312   6.215  0.00  0.00     0.012 A 
ENDBRANCH  29  30
ENDBRANCH   4  23
TORSDOF 7
ENDMDL
MODEL 4
REMARK VINA RESULT:      -8.5      2.258      3.027
REMARK  7 active torsions:
REMARK  status: ('A' for Active; 'I' for Inactive)
REMARK    1  A    between atoms: C_2  and  C_23 
REMARK    2  A    between atoms: C_5  and  C_6 
REMARK    3  A    between atoms: C_12  and  C_17 
REMARK    4  A    between atoms: O_15  and  C_16 
REMARK    5  A    between atoms: C_16  and  C_17 
REMARK    6  A    between atoms: C_17  and  N_18 
REMARK       I    between atoms: N_18  and  C_19 
REMARK    7  A    between atoms: C_19  and  C_21 
ROOT
HETATM    1  C   UNK N   1      35.394  15.843  11.196  0.00  0.00     0.102 A 
HETATM    2  C   UNK N   1      34.888  17.093   9.519  0.00  0.00     0.101 A 
HETATM    3  C   UNK N   1      35.159  15.872   9.021  0.00  0.00     0.050 A 
HETATM    4  C   UNK N   1      35.505  15.085  10.039  0.00  0.00     0.011 A 
HETATM    5  N   UNK N   1      34.985  17.092  10.863  0.00  0.00    -0.361 N 
HETATM    6  H   UNK N   1      34.797  17.841  11.474  0.00  0.00     0.165 HD
ENDROOT
BRANCH   2   7
HETATM    7  C   UNK N   1      34.522  18.220   8.646  0.00  0.00     0.268 C 
HETATM    8  N   UNK N   1      33.298  18.298   8.022  0.00  0.00    -0.345 N 
HETATM    9  H   UNK N   1      32.993  19.200   7.770  0.00  0.00     0.163 HD
HETATM   10  O   UNK N   1      35.336  19.116   8.473  0.00  0.00    -0.266 OA
BRANCH   8  11
HETATM   11  C   UNK N   1      32.389  17.181   7.688  0.00  0.00     0.141 C 
BRANCH  11  12
HETATM   12  C   UNK N   1      32.145  17.103   6.198  0.00  0.00    -0.032 A 
HETATM   13  C   UNK N   1      30.877  16.799   5.698  0.00  0.00     0.036 A 
HETATM   14  C   UNK N   1      30.663  16.763   4.315  0.00  0.00     0.073 A 
HETATM   15  C   UNK N   1      31.712  17.058   3.430  0.00  0.00     0.138 A 
HETATM   16 Cl   UNK N   1      29.081  16.344   3.701  0.00  0.00    -0.081 Cl
HETATM   17  C   UNK N   1      32.972  17.370   3.922  0.00  0.00     0.044 A 
HETATM   18  F   UNK N   1      31.515  17.040   2.093  0.00  0.00    -0.204 F 
HETATM   19  C   UNK N   1      33.186  17.388   5.288  0.00  0.00     0.012 A 
ENDBRANCH  11  12
BRANCH  11  20
HETATM   20  C   UNK N   1      31.013  17.149   8.370  0.00  0.00     0.194 C 
BRANCH  20  21
HETATM   21  O   UNK N   1      30.865  18.213   9.265  0.00  0.00    -0.399 OA
HETATM   22  H   UNK N   1      30.648  18.807  10.001  0.00  0.00     0.209 HD
ENDBRANCH  20  21
ENDBRANCH  11  20
ENDBRANCH   8  11
ENDBRANCH   2   7
BRANCH   4  23
HETATM   23  C   UNK N   1      36.002  13.721   9.782  0.00  0.00     0.072 A 
HETATM   24  N   UNK N   1      36.279  13.290   8.539  0.00  0.00    -0.299 N 
HETATM   25  N   UNK N   1      36.752  12.050   8.618  0.00  0.00    -0.310 N 
ATOM     26  HN  UNK N   1      36.150  13.825   7.680  1.00  0.00     0.187 HD
HETATM   27  C   UNK N   1      36.761  11.670   9.910  0.00  0.00     0.121 A 
HETATM   28  H   UNK N   1      37.049  11.500   7.857  0.00  0.00     0.186 HD
HETATM   29  C   UNK N   1      36.271  12.716  10.675  0.00  0.00     0.020 A 
BRANCH  29  30
HETATM   30  C   UNK N   1      35.987  12.688  12.114  0.00  0.00    -0.021 A 
HETATM   31  C   UNK N   1      34.962  11.886  12.619  0.00  0.00     0.036 A 
HETATM   32  C   UNK N   1      34.665  11.914  13.984  0.00  0.00     0.034 A 
HETATM   33  C   UNK N   1      35.374  12.758  14.844  0.00  0.00     0.024 A 
HETATM   34 Cl   UNK N   1      33.404  10.889  14.617  0.00  0.00    -0.084 Cl
HETATM   35  C   UNK N   1      36.382  13.576  14.341  0.00  0.00     0.003 A 
HETATM   36  C   UNK N   1      36.680  13.539  12.985  0.00  0.00     0.012 A 
ENDBRANCH  29  30
ENDBRANCH   4  23
TORSDOF 7
ENDMDL
MODEL 5
REMARK VINA RESULT:      -8.3      4.033      5.600
REMARK  7 active torsions:
REMARK  status: ('A' for Active; 'I' for Inactive)
REMARK    1  A    between atoms: C_2  and  C_23 
REMARK    2  A    between atoms: C_5  and  C_6 
REMARK    3  A    between atoms: C_12  and  C_17 
REMARK    4  A    between atoms: O_15  and  C_16 
REMARK    5  A    between atoms: C_16  and  C_17 
REMARK    6  A    between atoms: C_17  and  N_18 
REMARK       I    between atoms: N_18  and  C_19 
REMARK    7  A    between atoms: C_19  and  C_21 
ROOT
HETATM    1  C   UNK N   1      35.316  15.915  11.214  0.00  0.00     0.102 A 
HETATM    2  C   UNK N   1      34.680  17.145   9.567  0.00  0.00     0.101 A 
HETATM    3  C   UNK N   1      34.258  15.895   9.300  0.00  0.00     0.050 A 
HETATM    4  C   UNK N   1      34.667  15.106  10.292  0.00  0.00     0.011 A 
HETATM    5  N   UNK N   1      35.300  17.194  10.762  0.00  0.00    -0.361 N 
HETATM    6  H   UNK N   1      35.663  17.990  11.213  0.00  0.00     0.165 HD
ENDROOT
BRANCH   2   7
HETATM    7  C   UNK N   1      34.439  18.258   8.635  0.00  0.00     0.268 C 
HETATM    8  N   UNK N   1      33.250  18.404   7.957  0.00  0.00    -0.345 N 
HETATM    9  H   UNK N   1      33.027  19.314   7.656  0.00  0.00     0.163 HD
HETATM   10  O   UNK N   1      35.327  19.080   8.462  0.00  0.00    -0.266 OA
BRANCH   8  11
HETATM   11  C   UNK N   1      32.270  17.346   7.629  0.00  0.00     0.141 C 
BRANCH  11  12
HETATM   12  C   UNK N   1      32.067  17.235   6.135  0.00  0.00    -0.032 A 
HETATM   13  C   UNK N   1      30.784  17.108   5.598  0.00  0.00     0.036 A 
HETATM   14  C   UNK N   1      30.613  17.039   4.210  0.00  0.00     0.073 A 
HETATM   15  C   UNK N   1      31.724  17.124   3.356  0.00  0.00     0.138 A 
HETATM   16 Cl   UNK N   1      29.006  16.842   3.551  0.00  0.00    -0.081 Cl
HETATM   17  C   UNK N   1      33.000  17.259   3.885  0.00  0.00     0.044 A 
HETATM   18  F   UNK N   1      31.572  17.072   2.014  0.00  0.00    -0.204 F 
HETATM   19  C   UNK N   1      33.169  17.310   5.256  0.00  0.00     0.012 A 
ENDBRANCH  11  12
BRANCH  11  20
HETATM   20  C   UNK N   1      30.876  17.440   8.266  0.00  0.00     0.194 C 
BRANCH  20  21
HETATM   21  O   UNK N   1      30.817  16.726   9.467  0.00  0.00    -0.399 OA
HETATM   22  H   UNK N   1      30.857  16.413  10.384  0.00  0.00     0.209 HD
ENDBRANCH  20  21
ENDBRANCH  11  20
ENDBRANCH   8  11
ENDBRANCH   2   7
BRANCH   4  23
HETATM   23  C   UNK N   1      34.478  13.647  10.202  0.00  0.00     0.072 A 
HETATM   24  N   UNK N   1      34.462  12.866  11.296  0.00  0.00    -0.299 N 
HETATM   25  N   UNK N   1      34.226  11.613  10.916  0.00  0.00    -0.310 N 
ATOM     26  HN  UNK N   1      34.607  13.180  12.255  1.00  0.00     0.187 HD
HETATM   27  C   UNK N   1      34.111  11.580   9.575  0.00  0.00     0.121 A 
HETATM   28  H   UNK N   1      34.148  10.837  11.517  0.00  0.00     0.186 HD
HETATM   29  C   UNK N   1      34.283  12.867   9.091  0.00  0.00     0.020 A 
BRANCH  29  30
HETATM   30  C   UNK N   1      34.365  13.267   7.682  0.00  0.00    -0.021 A 
HETATM   31  C   UNK N   1      33.217  13.307   6.888  0.00  0.00     0.036 A 
HETATM   32  C   UNK N   1      33.319  13.633   5.533  0.00  0.00     0.034 A 
HETATM   33  C   UNK N   1      34.568  13.898   4.963  0.00  0.00     0.024 A 
HETATM   34 Cl   UNK N   1      31.881  13.711   4.550  0.00  0.00    -0.084 Cl
HETATM   35  C   UNK N   1      35.717  13.838   5.746  0.00  0.00     0.003 A 
HETATM   36  C   UNK N   1      35.610  13.522   7.094  0.00  0.00     0.012 A 
ENDBRANCH  29  30
ENDBRANCH   4  23
TORSDOF 7
ENDMDL
MODEL 6
REMARK VINA RESULT:      -8.3     12.712     16.074
REMARK  7 active torsions:
REMARK  status: ('A' for Active; 'I' for Inactive)
REMARK    1  A    between atoms: C_2  and  C_23 
REMARK    2  A    between atoms: C_5  and  C_6 
REMARK    3  A    between atoms: C_12  and  C_17 
REMARK    4  A    between atoms: O_15  and  C_16 
REMARK    5  A    between atoms: C_16  and  C_17 
REMARK    6  A    between atoms: C_17  and  N_18 
REMARK       I    between atoms: N_18  and  C_19 
REMARK    7  A    between atoms: C_19  and  C_21 
ROOT
HETATM    1  C   UNK N   1      20.995  16.328   2.401  0.00  0.00     0.102 A 
HETATM    2  C   UNK N   1      19.727  15.965   4.102  0.00  0.00     0.101 A 
HETATM    3  C   UNK N   1      19.676  17.288   3.857  0.00  0.00     0.050 A 
HETATM    4  C   UNK N   1      20.479  17.544   2.825  0.00  0.00     0.011 A 
HETATM    5  N   UNK N   1      20.501  15.342   3.191  0.00  0.00    -0.361 N 
HETATM    6  H   UNK N   1      20.672  14.376   3.116  0.00  0.00     0.165 HD
ENDROOT
BRANCH   2   7
HETATM    7  C   UNK N   1      18.991  15.356   5.220  0.00  0.00     0.268 C 
HETATM    8  N   UNK N   1      19.245  15.686   6.533  0.00  0.00    -0.345 N 
HETATM    9  H   UNK N   1      18.511  15.534   7.171  0.00  0.00     0.163 HD
HETATM   10  O   UNK N   1      18.124  14.531   4.972  0.00  0.00    -0.266 OA
BRANCH   8  11
HETATM   11  C   UNK N   1      20.495  16.243   7.092  0.00  0.00     0.141 C 
BRANCH  11  12
HETATM   12  C   UNK N   1      21.260  15.196   7.868  0.00  0.00    -0.032 A 
HETATM   13  C   UNK N   1      22.491  14.723   7.406  0.00  0.00     0.036 A 
HETATM   14  C   UNK N   1      23.199  13.777   8.155  0.00  0.00     0.073 A 
HETATM   15  C   UNK N   1      22.691  13.320   9.381  0.00  0.00     0.138 A 
HETATM   16 Cl   UNK N   1      24.720  13.165   7.547  0.00  0.00    -0.081 Cl
HETATM   17  C   UNK N   1      21.472  13.794   9.849  0.00  0.00     0.044 A 
HETATM   18  F   UNK N   1      23.372  12.417  10.121  0.00  0.00    -0.204 F 
HETATM   19  C   UNK N   1      20.766  14.716   9.100  0.00  0.00     0.012 A 
ENDBRANCH  11  12
BRANCH  11  20
HETATM   20  C   UNK N   1      20.387  17.481   7.994  0.00  0.00     0.194 C 
BRANCH  20  21
HETATM   21  O   UNK N   1      20.784  18.639   7.319  0.00  0.00    -0.399 OA
HETATM   22  H   UNK N   1      21.258  19.364   6.882  0.00  0.00     0.209 HD
ENDBRANCH  20  21
ENDBRANCH  11  20
ENDBRANCH   8  11
ENDBRANCH   2   7
BRANCH   4  23
HETATM   23  C   UNK N   1      20.741  18.936   2.421  0.00  0.00     0.072 A 
HETATM   24  N   UNK N   1      19.904  19.609   1.612  0.00  0.00    -0.299 N 
HETATM   25  N   UNK N   1      20.366  20.847   1.462  0.00  0.00    -0.310 N 
ATOM     26  HN  UNK N   1      19.058  19.233   1.185  1.00  0.00     0.187 HD
HETATM   27  C   UNK N   1      21.514  20.970   2.156  0.00  0.00     0.121 A 
HETATM   28  H   UNK N   1      19.940  21.557   0.931  0.00  0.00     0.186 HD
HETATM   29  C   UNK N   1      21.785  19.756   2.768  0.00  0.00     0.020 A 
BRANCH  29  30
HETATM   30  C   UNK N   1      22.998  19.405   3.514  0.00  0.00    -0.021 A 
HETATM   31  C   UNK N   1      24.222  19.996   3.195  0.00  0.00     0.036 A 
HETATM   32  C   UNK N   1      25.379  19.609   3.876  0.00  0.00     0.034 A 
HETATM   33  C   UNK N   1      25.322  18.616   4.858  0.00  0.00     0.024 A 
HETATM   34 Cl   UNK N   1      26.902  20.371   3.498  0.00  0.00    -0.084 Cl
HETATM   35  C   UNK N   1      24.107  18.008   5.163  0.00  0.00     0.003 A 
HETATM   36  C   UNK N   1      22.958  18.402   4.491  0.00  0.00     0.012 A 
ENDBRANCH  29  30
ENDBRANCH   4  23
TORSDOF 7
ENDMDL
MODEL 7
REMARK VINA RESULT:      -8.3     10.742     13.200
REMARK  7 active torsions:
REMARK  status: ('A' for Active; 'I' for Inactive)
REMARK    1  A    between atoms: C_2  and  C_23 
REMARK    2  A    between atoms: C_5  and  C_6 
REMARK    3  A    between atoms: C_12  and  C_17 
REMARK    4  A    between atoms: O_15  and  C_16 
REMARK    5  A    between atoms: C_16  and  C_17 
REMARK    6  A    between atoms: C_17  and  N_18 
REMARK       I    between atoms: N_18  and  C_19 
REMARK    7  A    between atoms: C_19  and  C_21 
ROOT
HETATM    1  C   UNK N   1      20.262  13.438  10.225  0.00  0.00     0.102 A 
HETATM    2  C   UNK N   1      20.461  15.221   9.036  0.00  0.00     0.101 A 
HETATM    3  C   UNK N   1      21.701  14.718   9.187  0.00  0.00     0.050 A 
HETATM    4  C   UNK N   1      21.609  13.628   9.947  0.00  0.00     0.011 A 
HETATM    5  N   UNK N   1      19.549  14.428   9.632  0.00  0.00    -0.361 N 
HETATM    6  H   UNK N   1      18.572  14.543   9.635  0.00  0.00     0.165 HD
ENDROOT
BRANCH   2   7
HETATM    7  C   UNK N   1      20.217  16.465   8.289  0.00  0.00     0.268 C 
HETATM    8  N   UNK N   1      19.858  16.465   6.960  0.00  0.00    -0.345 N 
HETATM    9  H   UNK N   1      19.375  17.260   6.638  0.00  0.00     0.163 HD
HETATM   10  O   UNK N   1      20.338  17.532   8.872  0.00  0.00    -0.266 OA
BRANCH   8  11
HETATM   11  C   UNK N   1      20.115  15.405   5.961  0.00  0.00     0.141 C 
BRANCH  11  12
HETATM   12  C   UNK N   1      21.393  15.672   5.199  0.00  0.00    -0.032 A 
HETATM   13  C   UNK N   1      21.587  15.138   3.923  0.00  0.00     0.036 A 
HETATM   14  C   UNK N   1      22.763  15.424   3.220  0.00  0.00     0.073 A 
HETATM   15  C   UNK N   1      23.736  16.265   3.781  0.00  0.00     0.138 A 
HETATM   16 Cl   UNK N   1      23.011  14.719   1.639  0.00  0.00    -0.081 Cl
HETATM   17  C   UNK N   1      23.544  16.805   5.046  0.00  0.00     0.044 A 
HETATM   18  F   UNK N   1      24.870  16.559   3.107  0.00  0.00    -0.204 F 
HETATM   19  C   UNK N   1      22.390  16.509   5.746  0.00  0.00     0.012 A 
ENDBRANCH  11  12
BRANCH  11  20
HETATM   20  C   UNK N   1      19.023  15.121   4.920  0.00  0.00     0.194 C 
BRANCH  20  21
HETATM   21  O   UNK N   1      17.788  15.638   5.326  0.00  0.00    -0.399 OA
HETATM   22  H   UNK N   1      17.047  16.175   5.649  0.00  0.00     0.209 HD
ENDBRANCH  20  21
ENDBRANCH  11  20
ENDBRANCH   8  11
ENDBRANCH   2   7
BRANCH   4  23
HETATM   23  C   UNK N   1      22.830  12.942  10.407  0.00  0.00     0.072 A 
HETATM   24  N   UNK N   1      23.029  12.643  11.702  0.00  0.00    -0.299 N 
HETATM   25  N   UNK N   1      24.181  11.988  11.812  0.00  0.00    -0.310 N 
ATOM     26  HN  UNK N   1      22.401  12.877  12.471  1.00  0.00     0.187 HD
HETATM   27  C   UNK N   1      24.739  11.882  10.590  0.00  0.00     0.121 A 
HETATM   28  H   UNK N   1      24.563  11.637  12.648  0.00  0.00     0.186 HD
HETATM   29  C   UNK N   1      23.900  12.498   9.674  0.00  0.00     0.020 A 
BRANCH  29  30
HETATM   30  C   UNK N   1      24.180  12.730   8.253  0.00  0.00    -0.021 A 
HETATM   31  C   UNK N   1      25.143  13.662   7.863  0.00  0.00     0.036 A 
HETATM   32  C   UNK N   1      25.356  13.914   6.505  0.00  0.00     0.034 A 
HETATM   33  C   UNK N   1      24.595  13.254   5.535  0.00  0.00     0.024 A 
HETATM   34 Cl   UNK N   1      26.582  15.056   6.018  0.00  0.00    -0.084 Cl
HETATM   35  C   UNK N   1      23.618  12.340   5.921  0.00  0.00     0.003 A 
HETATM   36  C   UNK N   1      23.415  12.087   7.271  0.00  0.00     0.012 A 
ENDBRANCH  29  30
ENDBRANCH   4  23
TORSDOF 7
ENDMDL
MODEL 8
REMARK VINA RESULT:      -8.2      2.744      3.757
REMARK  7 active torsions:
REMARK  status: ('A' for Active; 'I' for Inactive)
REMARK    1  A    between atoms: C_2  and  C_23 
REMARK    2  A    between atoms: C_5  and  C_6 
REMARK    3  A    between atoms: C_12  and  C_17 
REMARK    4  A    between atoms: O_15  and  C_16 
REMARK    5  A    between atoms: C_16  and  C_17 
REMARK    6  A    between atoms: C_17  and  N_18 
REMARK       I    between atoms: N_18  and  C_19 
REMARK    7  A    between atoms: C_19  and  C_21 
ROOT
HETATM    1  C   UNK N   1      36.160  13.789  10.699  0.00  0.00     0.102 A 
HETATM    2  C   UNK N   1      35.421  15.785  10.374  0.00  0.00     0.101 A 
HETATM    3  C   UNK N   1      35.729  15.696  11.682  0.00  0.00     0.050 A 
HETATM    4  C   UNK N   1      36.161  14.457  11.915  0.00  0.00     0.011 A 
HETATM    5  N   UNK N   1      35.716  14.635   9.736  0.00  0.00    -0.361 N 
HETATM    6  H   UNK N   1      35.628  14.450   8.773  0.00  0.00     0.165 HD
ENDROOT
BRANCH   2   7
HETATM    7  C   UNK N   1      34.860  17.015   9.794  0.00  0.00     0.268 C 
HETATM    8  N   UNK N   1      33.585  17.067   9.275  0.00  0.00    -0.345 N 
HETATM    9  H   UNK N   1      33.162  17.956   9.246  0.00  0.00     0.163 HD
HETATM   10  O   UNK N   1      35.551  18.023   9.776  0.00  0.00    -0.266 OA
BRANCH   8  11
HETATM   11  C   UNK N   1      32.782  15.940   8.756  0.00  0.00     0.141 C 
BRANCH  11  12
HETATM   12  C   UNK N   1      31.576  16.436   7.992  0.00  0.00    -0.032 A 
HETATM   13  C   UNK N   1      30.553  17.127   8.646  0.00  0.00     0.036 A 
HETATM   14  C   UNK N   1      29.459  17.607   7.915  0.00  0.00     0.073 A 
HETATM   15  C   UNK N   1      29.400  17.420   6.525  0.00  0.00     0.138 A 
HETATM   16 Cl   UNK N   1      28.167  18.437   8.750  0.00  0.00    -0.081 Cl
HETATM   17  C   UNK N   1      30.419  16.742   5.870  0.00  0.00     0.044 A 
HETATM   18  F   UNK N   1      28.356  17.891   5.807  0.00  0.00    -0.204 F 
HETATM   19  C   UNK N   1      31.489  16.253   6.595  0.00  0.00     0.012 A 
ENDBRANCH  11  12
BRANCH  11  20
HETATM   20  C   UNK N   1      32.277  14.897   9.764  0.00  0.00     0.194 C 
BRANCH  20  21
HETATM   21  O   UNK N   1      32.254  13.617   9.202  0.00  0.00    -0.399 OA
HETATM   22  H   UNK N   1      32.421  12.701   8.926  0.00  0.00     0.209 HD
ENDBRANCH  20  21
ENDBRANCH  11  20
ENDBRANCH   8  11
ENDBRANCH   2   7
BRANCH   4  23
HETATM   23  C   UNK N   1      36.435  14.018  13.295  0.00  0.00     0.072 A 
HETATM   24  N   UNK N   1      36.982  14.842  14.206  0.00  0.00    -0.299 N 
HETATM   25  N   UNK N   1      37.064  14.195  15.365  0.00  0.00    -0.310 N 
ATOM     26  HN  UNK N   1      37.283  15.801  14.036  1.00  0.00     0.187 HD
HETATM   27  C   UNK N   1      36.590  12.946  15.200  0.00  0.00     0.121 A 
HETATM   28  H   UNK N   1      37.414  14.569  16.206  0.00  0.00     0.186 HD
HETATM   29  C   UNK N   1      36.194  12.801  13.880  0.00  0.00     0.020 A 
BRANCH  29  30
HETATM   30  C   UNK N   1      35.739  11.565  13.234  0.00  0.00    -0.021 A 
HETATM   31  C   UNK N   1      36.649  10.730  12.583  0.00  0.00     0.036 A 
HETATM   32  C   UNK N   1      36.192   9.586  11.922  0.00  0.00     0.034 A 
HETATM   33  C   UNK N   1      34.827   9.285  11.892  0.00  0.00     0.024 A 
HETATM   34 Cl   UNK N   1      37.333   8.527  11.135  0.00  0.00    -0.084 Cl
HETATM   35  C   UNK N   1      33.915  10.127  12.522  0.00  0.00     0.003 A 
HETATM   36  C   UNK N   1      34.373  11.258  13.184  0.00  0.00     0.012 A 
ENDBRANCH  29  30
ENDBRANCH   4  23
TORSDOF 7
ENDMDL
MODEL 9
REMARK VINA RESULT:      -8.1      8.163     13.727
REMARK  7 active torsions:
REMARK  status: ('A' for Active; 'I' for Inactive)
REMARK    1  A    between atoms: C_2  and  C_23 
REMARK    2  A    between atoms: C_5  and  C_6 
REMARK    3  A    between atoms: C_12  and  C_17 
REMARK    4  A    between atoms: O_15  and  C_16 
REMARK    5  A    between atoms: C_16  and  C_17 
REMARK    6  A    between atoms: C_17  and  N_18 
REMARK       I    between atoms: N_18  and  C_19 
REMARK    7  A    between atoms: C_19  and  C_21 
ROOT
HETATM    1  C   UNK N   1      24.565  16.190   3.497  0.00  0.00     0.102 A 
HETATM    2  C   UNK N   1      25.902  17.836   3.869  0.00  0.00     0.101 A 
HETATM    3  C   UNK N   1      24.986  17.852   4.856  0.00  0.00     0.050 A 
HETATM    4  C   UNK N   1      24.127  16.859   4.631  0.00  0.00     0.011 A 
HETATM    5  N   UNK N   1      25.691  16.795   3.040  0.00  0.00    -0.361 N 
HETATM    6  H   UNK N   1      26.238  16.530   2.266  0.00  0.00     0.165 HD
ENDROOT
BRANCH   2   7
HETATM    7  C   UNK N   1      26.971  18.843   3.791  0.00  0.00     0.268 C 
HETATM    8  N   UNK N   1      28.300  18.517   3.940  0.00  0.00    -0.345 N 
HETATM    9  H   UNK N   1      28.950  19.133   3.530  0.00  0.00     0.163 HD
HETATM   10  O   UNK N   1      26.664  20.009   3.584  0.00  0.00    -0.266 OA
BRANCH   8  11
HETATM   11  C   UNK N   1      28.862  17.346   4.647  0.00  0.00     0.141 C 
BRANCH  11  12
HETATM   12  C   UNK N   1      29.167  17.675   6.090  0.00  0.00    -0.032 A 
HETATM   13  C   UNK N   1      30.402  17.342   6.651  0.00  0.00     0.036 A 
HETATM   14  C   UNK N   1      30.678  17.684   7.980  0.00  0.00     0.073 A 
HETATM   15  C   UNK N   1      29.729  18.382   8.743  0.00  0.00     0.138 A 
HETATM   16 Cl   UNK N   1      32.213  17.229   8.683  0.00  0.00    -0.081 Cl
HETATM   17  C   UNK N   1      28.503  18.723   8.187  0.00  0.00     0.044 A 
HETATM   18  F   UNK N   1      29.988  18.730  10.023  0.00  0.00    -0.204 F 
HETATM   19  C   UNK N   1      28.226  18.370   6.879  0.00  0.00     0.012 A 
ENDBRANCH  11  12
BRANCH  11  20
HETATM   20  C   UNK N   1      30.121  16.692   4.059  0.00  0.00     0.194 C 
BRANCH  20  21
HETATM   21  O   UNK N   1      30.201  16.893   2.678  0.00  0.00    -0.399 OA
HETATM   22  H   UNK N   1      30.075  16.914   1.716  0.00  0.00     0.209 HD
ENDBRANCH  20  21
ENDBRANCH  11  20
ENDBRANCH   8  11
ENDBRANCH   2   7
BRANCH   4  23
HETATM   23  C   UNK N   1      22.922  16.719   5.469  0.00  0.00     0.072 A 
HETATM   24  N   UNK N   1      22.931  16.004   6.607  0.00  0.00    -0.299 N 
HETATM   25  N   UNK N   1      21.731  16.097   7.172  0.00  0.00    -0.310 N 
ATOM     26  HN  UNK N   1      23.724  15.480   6.976  1.00  0.00     0.187 HD
HETATM   27  C   UNK N   1      20.938  16.854   6.390  0.00  0.00     0.121 A 
HETATM   28  H   UNK N   1      21.465  15.680   8.024  0.00  0.00     0.186 HD
HETATM   29  C   UNK N   1      21.673  17.253   5.284  0.00  0.00     0.020 A 
BRANCH  29  30
HETATM   30  C   UNK N   1      21.167  17.981   4.116  0.00  0.00    -0.021 A 
HETATM   31  C   UNK N   1      20.844  17.299   2.941  0.00  0.00     0.036 A 
HETATM   32  C   UNK N   1      20.419  18.012   1.817  0.00  0.00     0.034 A 
HETATM   33  C   UNK N   1      20.336  19.407   1.855  0.00  0.00     0.024 A 
HETATM   34 Cl   UNK N   1      19.987  17.156   0.360  0.00  0.00    -0.084 Cl
HETATM   35  C   UNK N   1      20.677  20.093   3.018  0.00  0.00     0.003 A 
HETATM   36  C   UNK N   1      21.092  19.380   4.135  0.00  0.00     0.012 A 
ENDBRANCH  29  30
ENDBRANCH   4  23
TORSDOF 7
ENDMDL
