MODEL 1
REMARK VINA RESULT:      -7.8      0.000      0.000
REMARK  6 active torsions:
REMARK  status: ('A' for Active; 'I' for Inactive)
REMARK    1  A    between atoms: C_2  and  O_3 
REMARK    2  A    between atoms: C_2  and  C_4 
REMARK    3  A    between atoms: C_4  and  C_5 
REMARK    4  A    between atoms: C_5  and  N_6 
REMARK    5  A    between atoms: C_11  and  O_12 
REMARK    6  A    between atoms: C_23  and  C_25 
ROOT
HETATM    1  N   UNK N   1      27.038  24.049  -7.153  0.00  0.00    -0.345 N 
HETATM    2  C   UNK N   1      27.985  23.212  -6.678  0.00  0.00     0.048 A 
HETATM    3  C   UNK N   1      26.707  24.863  -6.124  0.00  0.00     0.046 A 
HETATM    4  C   UNK N   1      25.760  25.886  -6.112  0.00  0.00     0.033 A 
HETATM    5  C   UNK N   1      25.566  26.586  -4.906  0.00  0.00     0.039 A 
HETATM    6  C   UNK N   1      26.315  26.254  -3.753  0.00  0.00     0.066 A 
HETATM    7  C   UNK N   1      27.269  25.222  -3.797  0.00  0.00     0.051 A 
HETATM    8  C   UNK N   1      27.442  24.544  -5.001  0.00  0.00     0.007 A 
HETATM    9  C   UNK N   1      28.258  23.489  -5.356  0.00  0.00     0.020 A 
HETATM   10  C   UNK N   1      29.194  22.723  -4.675  0.00  0.00     0.062 A 
HETATM   11  C   UNK N   1      29.647  22.770  -3.375  0.00  0.00     0.260 A 
HETATM   12  O   UNK N   1      29.291  23.564  -2.523  0.00  0.00    -0.267 OA
HETATM   13  C   UNK N   1      29.851  21.676  -5.311  0.00  0.00     0.060 A 
HETATM   14  C   UNK N   1      30.682  21.124  -4.329  0.00  0.00     0.260 A 
HETATM   15  O   UNK N   1      31.417  20.165  -4.456  0.00  0.00    -0.267 OA
HETATM   16  N   UNK N   1      30.561  21.793  -3.148  0.00  0.00    -0.289 N 
HETATM   17  C   UNK N   1      29.582  21.366  -6.693  0.00  0.00    -0.007 A 
HETATM   18  C   UNK N   1      28.620  22.170  -7.364  0.00  0.00     0.044 A 
HETATM   19  H   UNK N   1      31.037  21.606  -2.305  0.00  0.00     0.172 HD
ENDROOT
BRANCH   1  20
HETATM   20  C   UNK N   1      26.475  24.042  -8.497  0.00  0.00     0.140 C 
BRANCH  20  21
HETATM   21  C   UNK N   1      25.012  23.642  -8.432  0.00  0.00     0.130 C 
BRANCH  21  22
HETATM   22  C   UNK N   1      24.877  22.173  -8.232  0.00  0.00     0.140 C 
HETATM   23  O   UNK N   1      24.555  21.740  -7.138  0.00  0.00    -0.650 OA
BRANCH  22  24
HETATM   24  O   UNK N   1      25.125  21.321  -9.246  0.00  0.00    -0.776 OA
HETATM   25  H   UNK N   1      25.476  21.636 -10.055  0.00  0.00     0.167 HD
ENDBRANCH  22  24
ENDBRANCH  21  22
ENDBRANCH  20  21
ENDBRANCH   1  20
BRANCH  17  26
HETATM   26  C   UNK N   1      30.223  20.265  -7.484  0.00  0.00    -0.025 A 
HETATM   27  C   UNK N   1      31.561  20.316  -7.894  0.00  0.00     0.012 A 
HETATM   28  C   UNK N   1      32.129  19.277  -8.635  0.00  0.00     0.001 A 
HETATM   29  C   UNK N   1      31.362  18.163  -8.975  0.00  0.00     0.000 A 
HETATM   30  C   UNK N   1      30.027  18.092  -8.579  0.00  0.00     0.001 A 
HETATM   31  C   UNK N   1      29.460  19.138  -7.844  0.00  0.00     0.012 A 
ENDBRANCH  17  26
BRANCH   6  32
HETATM   32  O   UNK N   1      26.109  26.923  -2.607  0.00  0.00    -0.361 OA
HETATM   33  H   UNK N   1      26.732  27.560  -2.317  0.00  0.00     0.217 HD
ENDBRANCH   6  32
TORSDOF 6
ENDMDL
MODEL 2
REMARK VINA RESULT:      -7.7     14.763     16.730
REMARK  6 active torsions:
REMARK  status: ('A' for Active; 'I' for Inactive)
REMARK    1  A    between atoms: C_2  and  O_3 
REMARK    2  A    between atoms: C_2  and  C_4 
REMARK    3  A    between atoms: C_4  and  C_5 
REMARK    4  A    between atoms: C_5  and  N_6 
REMARK    5  A    between atoms: C_11  and  O_12 
REMARK    6  A    between atoms: C_23  and  C_25 
ROOT
HETATM    1  N   UNK N   1      20.390  15.902   8.084  0.00  0.00    -0.345 N 
HETATM    2  C   UNK N   1      21.237  16.113   7.054  0.00  0.00     0.048 A 
HETATM    3  C   UNK N   1      20.853  14.808   8.733  0.00  0.00     0.046 A 
HETATM    4  C   UNK N   1      20.310  14.185   9.855  0.00  0.00     0.033 A 
HETATM    5  C   UNK N   1      20.956  13.033  10.343  0.00  0.00     0.039 A 
HETATM    6  C   UNK N   1      22.118  12.537   9.707  0.00  0.00     0.066 A 
HETATM    7  C   UNK N   1      22.648  13.192   8.581  0.00  0.00     0.051 A 
HETATM    8  C   UNK N   1      21.990  14.328   8.118  0.00  0.00     0.007 A 
HETATM    9  C   UNK N   1      22.235  15.163   7.045  0.00  0.00     0.020 A 
HETATM   10  C   UNK N   1      23.200  15.192   6.049  0.00  0.00     0.062 A 
HETATM   11  C   UNK N   1      24.283  14.379   5.795  0.00  0.00     0.260 A 
HETATM   12  O   UNK N   1      24.625  13.419   6.460  0.00  0.00    -0.267 OA
HETATM   13  C   UNK N   1      23.165  16.165   5.056  0.00  0.00     0.060 A 
HETATM   14  C   UNK N   1      24.253  15.873   4.226  0.00  0.00     0.260 A 
HETATM   15  O   UNK N   1      24.576  16.466   3.217  0.00  0.00    -0.267 OA
HETATM   16  N   UNK N   1      24.939  14.784   4.679  0.00  0.00    -0.289 N 
HETATM   17  C   UNK N   1      22.130  17.170   5.043  0.00  0.00    -0.007 A 
HETATM   18  C   UNK N   1      21.158  17.114   6.079  0.00  0.00     0.044 A 
HETATM   19  H   UNK N   1      25.742  14.378   4.279  0.00  0.00     0.172 HD
ENDROOT
BRANCH   1  20
HETATM   20  C   UNK N   1      19.202  16.686   8.400  0.00  0.00     0.140 C 
BRANCH  20  21
HETATM   21  C   UNK N   1      19.615  17.980   9.077  0.00  0.00     0.130 C 
BRANCH  21  22
HETATM   22  C   UNK N   1      18.533  18.474   9.973  0.00  0.00     0.140 C 
HETATM   23  O   UNK N   1      17.504  17.829  10.089  0.00  0.00    -0.650 OA
BRANCH  22  24
HETATM   24  O   UNK N   1      18.677  19.635  10.640  0.00  0.00    -0.776 OA
HETATM   25  H   UNK N   1      19.105  19.654  11.474  0.00  0.00     0.167 HD
ENDBRANCH  22  24
ENDBRANCH  21  22
ENDBRANCH  20  21
ENDBRANCH   1  20
BRANCH  17  26
HETATM   26  C   UNK N   1      21.986  18.264   4.030  0.00  0.00    -0.025 A 
HETATM   27  C   UNK N   1      22.935  19.284   3.886  0.00  0.00     0.012 A 
HETATM   28  C   UNK N   1      22.770  20.295   2.935  0.00  0.00     0.001 A 
HETATM   29  C   UNK N   1      21.648  20.297   2.107  0.00  0.00     0.000 A 
HETATM   30  C   UNK N   1      20.689  19.292   2.234  0.00  0.00     0.001 A 
HETATM   31  C   UNK N   1      20.854  18.287   3.192  0.00  0.00     0.012 A 
ENDBRANCH  17  26
BRANCH   6  32
HETATM   32  O   UNK N   1      22.716  11.430  10.177  0.00  0.00    -0.361 OA
HETATM   33  H   UNK N   1      22.866  10.700   9.609  0.00  0.00     0.217 HD
ENDBRANCH   6  32
TORSDOF 6
ENDMDL
MODEL 3
REMARK VINA RESULT:      -7.6     11.541     15.033
REMARK  6 active torsions:
REMARK  status: ('A' for Active; 'I' for Inactive)
REMARK    1  A    between atoms: C_2  and  O_3 
REMARK    2  A    between atoms: C_2  and  C_4 
REMARK    3  A    between atoms: C_4  and  C_5 
REMARK    4  A    between atoms: C_5  and  N_6 
REMARK    5  A    between atoms: C_11  and  O_12 
REMARK    6  A    between atoms: C_23  and  C_25 
ROOT
HETATM    1  N   UNK N   1      30.554  17.331   7.649  0.00  0.00    -0.345 N 
HETATM    2  C   UNK N   1      29.842  17.113   6.522  0.00  0.00     0.048 A 
HETATM    3  C   UNK N   1      31.434  16.306   7.740  0.00  0.00     0.046 A 
HETATM    4  C   UNK N   1      32.377  16.074   8.740  0.00  0.00     0.033 A 
HETATM    5  C   UNK N   1      33.171  14.916   8.636  0.00  0.00     0.039 A 
HETATM    6  C   UNK N   1      33.009  14.027   7.547  0.00  0.00     0.066 A 
HETATM    7  C   UNK N   1      32.055  14.293   6.549  0.00  0.00     0.051 A 
HETATM    8  C   UNK N   1      31.281  15.443   6.675  0.00  0.00     0.007 A 
HETATM    9  C   UNK N   1      30.264  15.960   5.897  0.00  0.00     0.020 A 
HETATM   10  C   UNK N   1      29.641  15.548   4.727  0.00  0.00     0.062 A 
HETATM   11  C   UNK N   1      29.847  14.455   3.914  0.00  0.00     0.260 A 
HETATM   12  O   UNK N   1      30.687  13.590   4.080  0.00  0.00    -0.267 OA
HETATM   13  C   UNK N   1      28.593  16.282   4.186  0.00  0.00     0.060 A 
HETATM   14  C   UNK N   1      28.202  15.567   3.048  0.00  0.00     0.260 A 
HETATM   15  O   UNK N   1      27.296  15.849   2.289  0.00  0.00    -0.267 OA
HETATM   16  N   UNK N   1      28.970  14.453   2.879  0.00  0.00    -0.289 N 
HETATM   17  C   UNK N   1      28.132  17.492   4.821  0.00  0.00    -0.007 A 
HETATM   18  C   UNK N   1      28.792  17.889   6.017  0.00  0.00     0.044 A 
HETATM   19  H   UNK N   1      28.901  13.786   2.157  0.00  0.00     0.172 HD
ENDROOT
BRANCH   1  20
HETATM   20  C   UNK N   1      30.376  18.434   8.583  0.00  0.00     0.140 C 
BRANCH  20  21
HETATM   21  C   UNK N   1      29.555  17.965   9.771  0.00  0.00     0.130 C 
BRANCH  21  22
HETATM   22  C   UNK N   1      28.112  17.882   9.414  0.00  0.00     0.140 C 
HETATM   23  O   UNK N   1      27.516  16.828   9.550  0.00  0.00    -0.650 OA
BRANCH  22  24
HETATM   24  O   UNK N   1      27.468  18.960   8.925  0.00  0.00    -0.776 OA
HETATM   25  H   UNK N   1      27.949  19.671   8.550  0.00  0.00     0.167 HD
ENDBRANCH  22  24
ENDBRANCH  21  22
ENDBRANCH  20  21
ENDBRANCH   1  20
BRANCH  17  26
HETATM   26  C   UNK N   1      27.015  18.365   4.336  0.00  0.00    -0.025 A 
HETATM   27  C   UNK N   1      25.672  17.981   4.417  0.00  0.00     0.012 A 
HETATM   28  C   UNK N   1      24.652  18.814   3.950  0.00  0.00     0.001 A 
HETATM   29  C   UNK N   1      24.965  20.055   3.395  0.00  0.00     0.000 A 
HETATM   30  C   UNK N   1      26.297  20.458   3.303  0.00  0.00     0.001 A 
HETATM   31  C   UNK N   1      27.314  19.617   3.764  0.00  0.00     0.012 A 
ENDBRANCH  17  26
BRANCH   6  32
HETATM   32  O   UNK N   1      33.766  12.921   7.469  0.00  0.00    -0.361 OA
HETATM   33  H   UNK N   1      34.198  12.703   6.667  0.00  0.00     0.217 HD
ENDBRANCH   6  32
TORSDOF 6
ENDMDL
MODEL 4
REMARK VINA RESULT:      -7.5     11.819     13.651
REMARK  6 active torsions:
REMARK  status: ('A' for Active; 'I' for Inactive)
REMARK    1  A    between atoms: C_2  and  O_3 
REMARK    2  A    between atoms: C_2  and  C_4 
REMARK    3  A    between atoms: C_4  and  C_5 
REMARK    4  A    between atoms: C_5  and  N_6 
REMARK    5  A    between atoms: C_11  and  O_12 
REMARK    6  A    between atoms: C_23  and  C_25 
ROOT
HETATM    1  N   UNK N   1      22.722  16.209   5.006  0.00  0.00    -0.345 N 
HETATM    2  C   UNK N   1      23.843  16.945   4.846  0.00  0.00     0.048 A 
HETATM    3  C   UNK N   1      21.741  16.872   4.349  0.00  0.00     0.046 A 
HETATM    4  C   UNK N   1      20.397  16.520   4.238  0.00  0.00     0.033 A 
HETATM    5  C   UNK N   1      19.550  17.388   3.522  0.00  0.00     0.039 A 
HETATM    6  C   UNK N   1      20.058  18.571   2.939  0.00  0.00     0.066 A 
HETATM    7  C   UNK N   1      21.421  18.896   3.061  0.00  0.00     0.051 A 
HETATM    8  C   UNK N   1      22.238  18.023   3.774  0.00  0.00     0.007 A 
HETATM    9  C   UNK N   1      23.581  18.069   4.092  0.00  0.00     0.020 A 
HETATM   10  C   UNK N   1      24.603  18.971   3.829  0.00  0.00     0.062 A 
HETATM   11  C   UNK N   1      24.623  20.156   3.127  0.00  0.00     0.260 A 
HETATM   12  O   UNK N   1      23.676  20.661   2.553  0.00  0.00    -0.267 OA
HETATM   13  C   UNK N   1      25.884  18.755   4.325  0.00  0.00     0.060 A 
HETATM   14  C   UNK N   1      26.627  19.859   3.893  0.00  0.00     0.260 A 
HETATM   15  O   UNK N   1      27.798  20.083   4.129  0.00  0.00    -0.267 OA
HETATM   16  N   UNK N   1      25.860  20.713   3.159  0.00  0.00    -0.289 N 
HETATM   17  C   UNK N   1      26.183  17.587   5.117  0.00  0.00    -0.007 A 
HETATM   18  C   UNK N   1      25.115  16.681   5.367  0.00  0.00     0.044 A 
HETATM   19  H   UNK N   1      26.143  21.559   2.739  0.00  0.00     0.172 HD
ENDROOT
BRANCH   1  20
HETATM   20  C   UNK N   1      22.604  14.970   5.763  0.00  0.00     0.140 C 
BRANCH  20  21
HETATM   21  C   UNK N   1      22.051  15.271   7.144  0.00  0.00     0.130 C 
BRANCH  21  22
HETATM   22  C   UNK N   1      20.752  14.575   7.355  0.00  0.00     0.140 C 
HETATM   23  O   UNK N   1      19.738  15.230   7.527  0.00  0.00    -0.650 OA
BRANCH  22  24
HETATM   24  O   UNK N   1      20.695  13.229   7.375  0.00  0.00    -0.776 OA
HETATM   25  H   UNK N   1      20.469  12.752   6.601  0.00  0.00     0.167 HD
ENDBRANCH  22  24
ENDBRANCH  21  22
ENDBRANCH  20  21
ENDBRANCH   1  20
BRANCH  17  26
HETATM   26  C   UNK N   1      27.518  17.248   5.706  0.00  0.00    -0.025 A 
HETATM   27  C   UNK N   1      27.996  17.845   6.878  0.00  0.00     0.012 A 
HETATM   28  C   UNK N   1      29.249  17.511   7.399  0.00  0.00     0.001 A 
HETATM   29  C   UNK N   1      30.045  16.567   6.752  0.00  0.00     0.000 A 
HETATM   30  C   UNK N   1      29.590  15.961   5.582  0.00  0.00     0.001 A 
HETATM   31  C   UNK N   1      28.339  16.303   5.059  0.00  0.00     0.012 A 
ENDBRANCH  17  26
BRANCH   6  32
HETATM   32  O   UNK N   1      19.235  19.394   2.270  0.00  0.00    -0.361 OA
HETATM   33  H   UNK N   1      18.576  19.876   2.730  0.00  0.00     0.217 HD
ENDBRANCH   6  32
TORSDOF 6
ENDMDL
MODEL 5
REMARK VINA RESULT:      -7.5     12.651     14.789
REMARK  6 active torsions:
REMARK  status: ('A' for Active; 'I' for Inactive)
REMARK    1  A    between atoms: C_2  and  O_3 
REMARK    2  A    between atoms: C_2  and  C_4 
REMARK    3  A    between atoms: C_4  and  C_5 
REMARK    4  A    between atoms: C_5  and  N_6 
REMARK    5  A    between atoms: C_11  and  O_12 
REMARK    6  A    between atoms: C_23  and  C_25 
ROOT
HETATM    1  N   UNK N   1      31.938  16.453   7.430  0.00  0.00    -0.345 N 
HETATM    2  C   UNK N   1      31.508  15.838   6.308  0.00  0.00     0.048 A 
HETATM    3  C   UNK N   1      30.880  17.157   7.900  0.00  0.00     0.046 A 
HETATM    4  C   UNK N   1      30.828  17.972   9.029  0.00  0.00     0.033 A 
HETATM    5  C   UNK N   1      29.615  18.631   9.306  0.00  0.00     0.039 A 
HETATM    6  C   UNK N   1      28.494  18.462   8.461  0.00  0.00     0.066 A 
HETATM    7  C   UNK N   1      28.575  17.626   7.332  0.00  0.00     0.051 A 
HETATM    8  C   UNK N   1      29.785  16.986   7.079  0.00  0.00     0.007 A 
HETATM    9  C   UNK N   1      30.188  16.143   6.063  0.00  0.00     0.020 A 
HETATM   10  C   UNK N   1      29.561  15.622   4.939  0.00  0.00     0.062 A 
HETATM   11  C   UNK N   1      28.281  15.766   4.452  0.00  0.00     0.260 A 
HETATM   12  O   UNK N   1      27.390  16.416   4.968  0.00  0.00    -0.267 OA
HETATM   13  C   UNK N   1      30.256  14.803   4.056  0.00  0.00     0.060 A 
HETATM   14  C   UNK N   1      29.334  14.496   3.049  0.00  0.00     0.260 A 
HETATM   15  O   UNK N   1      29.538  13.819   2.060  0.00  0.00    -0.267 OA
HETATM   16  N   UNK N   1      28.127  15.080   3.291  0.00  0.00    -0.289 N 
HETATM   17  C   UNK N   1      31.640  14.469   4.290  0.00  0.00    -0.007 A 
HETATM   18  C   UNK N   1      32.251  15.017   5.452  0.00  0.00     0.044 A 
HETATM   19  H   UNK N   1      27.313  15.018   2.739  0.00  0.00     0.172 HD
ENDROOT
BRANCH   1  20
HETATM   20  C   UNK N   1      33.281  16.389   7.991  0.00  0.00     0.140 C 
BRANCH  20  21
HETATM   21  C   UNK N   1      34.103  17.554   7.472  0.00  0.00     0.130 C 
BRANCH  21  22
HETATM   22  C   UNK N   1      34.871  18.192   8.578  0.00  0.00     0.140 C 
HETATM   23  O   UNK N   1      35.287  19.329   8.445  0.00  0.00    -0.650 OA
BRANCH  22  24
HETATM   24  O   UNK N   1      35.121  17.511   9.714  0.00  0.00    -0.776 OA
HETATM   25  H   UNK N   1      35.937  17.619  10.161  0.00  0.00     0.167 HD
ENDBRANCH  22  24
ENDBRANCH  21  22
ENDBRANCH  20  21
ENDBRANCH   1  20
BRANCH  17  26
HETATM   26  C   UNK N   1      32.491  13.601   3.414  0.00  0.00    -0.025 A 
HETATM   27  C   UNK N   1      32.369  12.207   3.393  0.00  0.00     0.012 A 
HETATM   28  C   UNK N   1      33.182  11.424   2.569  0.00  0.00     0.001 A 
HETATM   29  C   UNK N   1      34.131  12.029   1.747  0.00  0.00     0.000 A 
HETATM   30  C   UNK N   1      34.272  13.417   1.754  0.00  0.00     0.001 A 
HETATM   31  C   UNK N   1      33.462  14.196   2.585  0.00  0.00     0.012 A 
ENDBRANCH  17  26
BRANCH   6  32
HETATM   32  O   UNK N   1      27.349  19.107   8.732  0.00  0.00    -0.361 OA
HETATM   33  H   UNK N   1      26.527  18.727   8.491  0.00  0.00     0.217 HD
ENDBRANCH   6  32
TORSDOF 6
ENDMDL
MODEL 6
REMARK VINA RESULT:      -7.4      1.734      4.625
REMARK  6 active torsions:
REMARK  status: ('A' for Active; 'I' for Inactive)
REMARK    1  A    between atoms: C_2  and  O_3 
REMARK    2  A    between atoms: C_2  and  C_4 
REMARK    3  A    between atoms: C_4  and  C_5 
REMARK    4  A    between atoms: C_5  and  N_6 
REMARK    5  A    between atoms: C_11  and  O_12 
REMARK    6  A    between atoms: C_23  and  C_25 
ROOT
HETATM    1  N   UNK N   1      28.701  23.717  -5.246  0.00  0.00    -0.345 N 
HETATM    2  C   UNK N   1      28.441  22.987  -6.352  0.00  0.00     0.048 A 
HETATM    3  C   UNK N   1      27.688  24.608  -5.139  0.00  0.00     0.046 A 
HETATM    4  C   UNK N   1      27.513  25.593  -4.167  0.00  0.00     0.033 A 
HETATM    5  C   UNK N   1      26.387  26.430  -4.277  0.00  0.00     0.039 A 
HETATM    6  C   UNK N   1      25.469  26.266  -5.341  0.00  0.00     0.066 A 
HETATM    7  C   UNK N   1      25.667  25.258  -6.302  0.00  0.00     0.051 A 
HETATM    8  C   UNK N   1      26.789  24.444  -6.172  0.00  0.00     0.007 A 
HETATM    9  C   UNK N   1      27.271  23.408  -6.946  0.00  0.00     0.020 A 
HETATM   10  C   UNK N   1      26.837  22.795  -8.114  0.00  0.00     0.062 A 
HETATM   11  C   UNK N   1      25.734  23.014  -8.910  0.00  0.00     0.260 A 
HETATM   12  O   UNK N   1      24.864  23.841  -8.711  0.00  0.00    -0.267 OA
HETATM   13  C   UNK N   1      27.575  21.768  -8.692  0.00  0.00     0.060 A 
HETATM   14  C   UNK N   1      26.863  21.419  -9.845  0.00  0.00     0.260 A 
HETATM   15  O   UNK N   1      27.174  20.574 -10.662  0.00  0.00    -0.267 OA
HETATM   16  N   UNK N   1      25.737  22.176  -9.978  0.00  0.00    -0.289 N 
HETATM   17  C   UNK N   1      28.803  21.311  -8.089  0.00  0.00    -0.007 A 
HETATM   18  C   UNK N   1      29.219  21.957  -6.893  0.00  0.00     0.044 A 
HETATM   19  H   UNK N   1      25.067  22.126 -10.698  0.00  0.00     0.172 HD
ENDROOT
BRANCH   1  20
HETATM   20  C   UNK N   1      29.859  23.580  -4.373  0.00  0.00     0.140 C 
BRANCH  20  21
HETATM   21  C   UNK N   1      29.647  22.409  -3.430  0.00  0.00     0.130 C 
BRANCH  21  22
HETATM   22  C   UNK N   1      29.385  22.889  -2.045  0.00  0.00     0.140 C 
HETATM   23  O   UNK N   1      30.320  23.086  -1.288  0.00  0.00    -0.650 OA
BRANCH  22  24
HETATM   24  O   UNK N   1      28.122  23.089  -1.620  0.00  0.00    -0.776 OA
HETATM   25  H   UNK N   1      27.708  22.468  -1.055  0.00  0.00     0.167 HD
ENDBRANCH  22  24
ENDBRANCH  21  22
ENDBRANCH  20  21
ENDBRANCH   1  20
BRANCH  17  26
HETATM   26  C   UNK N   1      29.682  20.218  -8.617  0.00  0.00    -0.025 A 
HETATM   27  C   UNK N   1      30.690  20.454  -9.560  0.00  0.00     0.012 A 
HETATM   28  C   UNK N   1      31.490  19.412 -10.037  0.00  0.00     0.001 A 
HETATM   29  C   UNK N   1      31.294  18.113  -9.572  0.00  0.00     0.000 A 
HETATM   30  C   UNK N   1      30.295  17.854  -8.634  0.00  0.00     0.001 A 
HETATM   31  C   UNK N   1      29.492  18.897  -8.165  0.00  0.00     0.012 A 
ENDBRANCH  17  26
BRANCH   6  32
HETATM   32  O   UNK N   1      24.406  27.080  -5.438  0.00  0.00    -0.361 OA
HETATM   33  H   UNK N   1      24.384  27.747  -6.096  0.00  0.00     0.217 HD
ENDBRANCH   6  32
TORSDOF 6
ENDMDL
MODEL 7
REMARK VINA RESULT:      -7.4     15.520     18.735
REMARK  6 active torsions:
REMARK  status: ('A' for Active; 'I' for Inactive)
REMARK    1  A    between atoms: C_2  and  O_3 
REMARK    2  A    between atoms: C_2  and  C_4 
REMARK    3  A    between atoms: C_4  and  C_5 
REMARK    4  A    between atoms: C_5  and  N_6 
REMARK    5  A    between atoms: C_11  and  O_12 
REMARK    6  A    between atoms: C_23  and  C_25 
ROOT
HETATM    1  N   UNK N   1      34.561  12.447   9.701  0.00  0.00    -0.345 N 
HETATM    2  C   UNK N   1      34.374  13.558   8.958  0.00  0.00     0.048 A 
HETATM    3  C   UNK N   1      35.098  12.864  10.872  0.00  0.00     0.046 A 
HETATM    4  C   UNK N   1      35.486  12.085  11.961  0.00  0.00     0.033 A 
HETATM    5  C   UNK N   1      36.052  12.744  13.069  0.00  0.00     0.039 A 
HETATM    6  C   UNK N   1      36.213  14.149  13.066  0.00  0.00     0.066 A 
HETATM    7  C   UNK N   1      35.805  14.909  11.955  0.00  0.00     0.051 A 
HETATM    8  C   UNK N   1      35.249  14.235  10.871  0.00  0.00     0.007 A 
HETATM    9  C   UNK N   1      34.786  14.677   9.648  0.00  0.00     0.020 A 
HETATM   10  C   UNK N   1      34.695  15.925   9.047  0.00  0.00     0.062 A 
HETATM   11  C   UNK N   1      35.035  17.184   9.490  0.00  0.00     0.260 A 
HETATM   12  O   UNK N   1      35.502  17.455  10.581  0.00  0.00    -0.267 OA
HETATM   13  C   UNK N   1      34.200  16.055   7.754  0.00  0.00     0.060 A 
HETATM   14  C   UNK N   1      34.280  17.423   7.474  0.00  0.00     0.260 A 
HETATM   15  O   UNK N   1      33.970  17.970   6.434  0.00  0.00    -0.267 OA
HETATM   16  N   UNK N   1      34.786  18.115   8.534  0.00  0.00    -0.289 N 
HETATM   17  C   UNK N   1      33.763  14.898   7.011  0.00  0.00    -0.007 A 
HETATM   18  C   UNK N   1      33.867  13.635   7.656  0.00  0.00     0.044 A 
HETATM   19  H   UNK N   1      34.940  19.086   8.594  0.00  0.00     0.172 HD
ENDROOT
BRANCH   1  20
HETATM   20  C   UNK N   1      34.269  11.078   9.296  0.00  0.00     0.140 C 
BRANCH  20  21
HETATM   21  C   UNK N   1      32.852  10.720   9.707  0.00  0.00     0.130 C 
BRANCH  21  22
HETATM   22  C   UNK N   1      32.346   9.570   8.907  0.00  0.00     0.140 C 
HETATM   23  O   UNK N   1      33.136   8.784   8.414  0.00  0.00    -0.650 OA
BRANCH  22  24
HETATM   24  O   UNK N   1      31.023   9.406   8.711  0.00  0.00    -0.776 OA
HETATM   25  H   UNK N   1      30.625   8.567   8.833  0.00  0.00     0.167 HD
ENDBRANCH  22  24
ENDBRANCH  21  22
ENDBRANCH  20  21
ENDBRANCH   1  20
BRANCH  17  26
HETATM   26  C   UNK N   1      33.215  14.911   5.617  0.00  0.00    -0.025 A 
HETATM   27  C   UNK N   1      34.036  15.014   4.487  0.00  0.00     0.012 A 
HETATM   28  C   UNK N   1      33.494  15.029   3.199  0.00  0.00     0.001 A 
HETATM   29  C   UNK N   1      32.114  14.936   3.022  0.00  0.00     0.000 A 
HETATM   30  C   UNK N   1      31.277  14.834   4.133  0.00  0.00     0.001 A 
HETATM   31  C   UNK N   1      31.822  14.828   5.420  0.00  0.00     0.012 A 
ENDBRANCH  17  26
BRANCH   6  32
HETATM   32  O   UNK N   1      36.765  14.761  14.125  0.00  0.00    -0.361 OA
HETATM   33  H   UNK N   1      37.115  14.255  14.831  0.00  0.00     0.217 HD
ENDBRANCH   6  32
TORSDOF 6
ENDMDL
MODEL 8
REMARK VINA RESULT:      -7.3     12.932     15.338
REMARK  6 active torsions:
REMARK  status: ('A' for Active; 'I' for Inactive)
REMARK    1  A    between atoms: C_2  and  O_3 
REMARK    2  A    between atoms: C_2  and  C_4 
REMARK    3  A    between atoms: C_4  and  C_5 
REMARK    4  A    between atoms: C_5  and  N_6 
REMARK    5  A    between atoms: C_11  and  O_12 
REMARK    6  A    between atoms: C_23  and  C_25 
ROOT
HETATM    1  N   UNK N   1      27.083  16.945   5.931  0.00  0.00    -0.345 N 
HETATM    2  C   UNK N   1      25.883  16.335   6.039  0.00  0.00     0.048 A 
HETATM    3  C   UNK N   1      26.899  17.989   5.089  0.00  0.00     0.046 A 
HETATM    4  C   UNK N   1      27.847  18.911   4.649  0.00  0.00     0.033 A 
HETATM    5  C   UNK N   1      27.425  19.903   3.743  0.00  0.00     0.039 A 
HETATM    6  C   UNK N   1      26.082  19.952   3.303  0.00  0.00     0.066 A 
HETATM    7  C   UNK N   1      25.146  19.012   3.771  0.00  0.00     0.051 A 
HETATM    8  C   UNK N   1      25.587  18.041   4.665  0.00  0.00     0.007 A 
HETATM    9  C   UNK N   1      24.939  16.984   5.273  0.00  0.00     0.020 A 
HETATM   10  C   UNK N   1      23.640  16.499   5.232  0.00  0.00     0.062 A 
HETATM   11  C   UNK N   1      22.519  16.933   4.558  0.00  0.00     0.260 A 
HETATM   12  O   UNK N   1      22.457  17.905   3.829  0.00  0.00    -0.267 OA
HETATM   13  C   UNK N   1      23.284  15.362   5.949  0.00  0.00     0.060 A 
HETATM   14  C   UNK N   1      21.932  15.157   5.652  0.00  0.00     0.260 A 
HETATM   15  O   UNK N   1      21.230  14.251   6.054  0.00  0.00    -0.267 OA
HETATM   16  N   UNK N   1      21.462  16.118   4.806  0.00  0.00    -0.289 N 
HETATM   17  C   UNK N   1      24.254  14.665   6.757  0.00  0.00    -0.007 A 
HETATM   18  C   UNK N   1      25.577  15.189   6.780  0.00  0.00     0.044 A 
HETATM   19  H   UNK N   1      20.548  16.203   4.449  0.00  0.00     0.172 HD
ENDROOT
BRANCH   1  20
HETATM   20  C   UNK N   1      28.323  16.531   6.574  0.00  0.00     0.140 C 
BRANCH  20  21
HETATM   21  C   UNK N   1      28.834  17.653   7.460  0.00  0.00     0.130 C 
BRANCH  21  22
HETATM   22  C   UNK N   1      27.913  17.877   8.609  0.00  0.00     0.140 C 
HETATM   23  O   UNK N   1      27.664  16.958   9.371  0.00  0.00    -0.650 OA
BRANCH  22  24
HETATM   24  O   UNK N   1      27.342  19.083   8.800  0.00  0.00    -0.776 OA
HETATM   25  H   UNK N   1      27.487  19.779   8.190  0.00  0.00     0.167 HD
ENDBRANCH  22  24
ENDBRANCH  21  22
ENDBRANCH  20  21
ENDBRANCH   1  20
BRANCH  17  26
HETATM   26  C   UNK N   1      23.993  13.433   7.570  0.00  0.00    -0.025 A 
HETATM   27  C   UNK N   1      23.990  12.150   7.010  0.00  0.00     0.012 A 
HETATM   28  C   UNK N   1      23.736  11.021   7.793  0.00  0.00     0.001 A 
HETATM   29  C   UNK N   1      23.485  11.161   9.158  0.00  0.00     0.000 A 
HETATM   30  C   UNK N   1      23.482  12.430   9.736  0.00  0.00     0.001 A 
HETATM   31  C   UNK N   1      23.728  13.557   8.948  0.00  0.00     0.012 A 
ENDBRANCH  17  26
BRANCH   6  32
HETATM   32  O   UNK N   1      25.698  20.896   2.430  0.00  0.00    -0.361 OA
HETATM   33  H   UNK N   1      26.306  21.229   1.800  0.00  0.00     0.217 HD
ENDBRANCH   6  32
TORSDOF 6
ENDMDL
MODEL 9
REMARK VINA RESULT:      -7.3      1.977      7.689
REMARK  6 active torsions:
REMARK  status: ('A' for Active; 'I' for Inactive)
REMARK    1  A    between atoms: C_2  and  O_3 
REMARK    2  A    between atoms: C_2  and  C_4 
REMARK    3  A    between atoms: C_4  and  C_5 
REMARK    4  A    between atoms: C_5  and  N_6 
REMARK    5  A    between atoms: C_11  and  O_12 
REMARK    6  A    between atoms: C_23  and  C_25 
ROOT
HETATM    1  N   UNK N   1      29.827  22.509  -5.523  0.00  0.00    -0.345 N 
HETATM    2  C   UNK N   1      28.905  23.376  -5.995  0.00  0.00     0.048 A 
HETATM    3  C   UNK N   1      29.914  21.517  -6.440  0.00  0.00     0.046 A 
HETATM    4  C   UNK N   1      30.717  20.379  -6.396  0.00  0.00     0.033 A 
HETATM    5  C   UNK N   1      30.616  19.464  -7.462  0.00  0.00     0.039 A 
HETATM    6  C   UNK N   1      29.728  19.705  -8.536  0.00  0.00     0.066 A 
HETATM    7  C   UNK N   1      28.935  20.867  -8.556  0.00  0.00     0.051 A 
HETATM    8  C   UNK N   1      29.052  21.755  -7.490  0.00  0.00     0.007 A 
HETATM    9  C   UNK N   1      28.409  22.943  -7.205  0.00  0.00     0.020 A 
HETATM   10  C   UNK N   1      27.431  23.688  -7.850  0.00  0.00     0.062 A 
HETATM   11  C   UNK N   1      26.763  23.492  -9.038  0.00  0.00     0.260 A 
HETATM   12  O   UNK N   1      26.931  22.563  -9.807  0.00  0.00    -0.267 OA
HETATM   13  C   UNK N   1      26.944  24.860  -7.283  0.00  0.00     0.060 A 
HETATM   14  C   UNK N   1      25.972  25.317  -8.180  0.00  0.00     0.260 A 
HETATM   15  O   UNK N   1      25.277  26.307  -8.056  0.00  0.00    -0.267 OA
HETATM   16  N   UNK N   1      25.863  24.484  -9.254  0.00  0.00    -0.289 N 
HETATM   17  C   UNK N   1      27.448  25.334  -6.017  0.00  0.00    -0.007 A 
HETATM   18  C   UNK N   1      28.450  24.549  -5.383  0.00  0.00     0.044 A 
HETATM   19  H   UNK N   1      25.257  24.583 -10.025  0.00  0.00     0.172 HD
ENDROOT
BRANCH   1  20
HETATM   20  C   UNK N   1      30.549  22.618  -4.262  0.00  0.00     0.140 C 
BRANCH  20  21
HETATM   21  C   UNK N   1      29.798  21.861  -3.181  0.00  0.00     0.130 C 
BRANCH  21  22
HETATM   22  C   UNK N   1      29.489  22.754  -2.030  0.00  0.00     0.140 C 
HETATM   23  O   UNK N   1      30.396  23.178  -1.335  0.00  0.00    -0.650 OA
BRANCH  22  24
HETATM   24  O   UNK N   1      28.214  23.080  -1.743  0.00  0.00    -0.776 OA
HETATM   25  H   UNK N   1      27.553  23.041  -2.406  0.00  0.00     0.167 HD
ENDBRANCH  22  24
ENDBRANCH  21  22
ENDBRANCH  20  21
ENDBRANCH   1  20
BRANCH  17  26
HETATM   26  C   UNK N   1      27.002  26.577  -5.308  0.00  0.00    -0.025 A 
HETATM   27  C   UNK N   1      26.157  26.543  -4.193  0.00  0.00     0.012 A 
HETATM   28  C   UNK N   1      25.754  27.720  -3.556  0.00  0.00     0.001 A 
HETATM   29  C   UNK N   1      26.198  28.955  -4.028  0.00  0.00     0.000 A 
HETATM   30  C   UNK N   1      27.040  29.012  -5.138  0.00  0.00     0.001 A 
HETATM   31  C   UNK N   1      27.434  27.833  -5.777  0.00  0.00     0.012 A 
ENDBRANCH  17  26
BRANCH   6  32
HETATM   32  O   UNK N   1      29.634  18.818  -9.538  0.00  0.00    -0.361 OA
HETATM   33  H   UNK N   1      29.248  19.069 -10.354  0.00  0.00     0.217 HD
ENDBRANCH   6  32
TORSDOF 6
ENDMDL
