MODEL 1
REMARK VINA RESULT:      -8.0      0.000      0.000
REMARK  1 active torsions:
REMARK  status: ('A' for Active; 'I' for Inactive)
REMARK    1  A    between atoms: N_13  and  C_14 
ROOT
HETATM    1  C   UNK N   1      23.918  16.591   5.833  0.00  0.00     0.044 A 
HETATM    2  C   UNK N   1      22.552  16.606   5.951  0.00  0.00     0.001 A 
HETATM    3  C   UNK N   1      21.774  17.543   5.272  0.00  0.00     0.044 A 
HETATM    4  C   UNK N   1      20.818  15.194   7.202  0.00  0.00     0.042 C 
HETATM    5  C   UNK N   1      23.423  14.984   7.171  0.00  0.00     0.069 A 
HETATM    6  C   UNK N   1      22.212  15.578   6.801  0.00  0.00    -0.017 A 
HETATM    7  C   UNK N   1      23.624  13.853   8.087  0.00  0.00     0.083 A 
HETATM    8  C   UNK N   1      22.668  13.114   8.756  0.00  0.00    -0.004 A 
HETATM    9  C   UNK N   1      21.177  13.242   8.696  0.00  0.00     0.043 C 
HETATM   10  C   UNK N   1      23.388  12.203   9.498  0.00  0.00     0.030 A 
HETATM   11  O   UNK N   1      22.609  21.071   2.292  0.00  0.00    -0.272 OA
HETATM   12  C   UNK N   1      22.880  20.124   3.031  0.00  0.00     0.237 A 
HETATM   13  N   UNK N   1      21.897  19.482   3.690  0.00  0.00    -0.317 N 
HETATM   14  C   UNK N   1      24.333  19.563   3.299  0.00  0.00     0.063 A 
HETATM   15  C   UNK N   1      25.047  20.551   2.376  0.00  0.00     0.030 C 
HETATM   16  C   UNK N   1      25.816  19.207   3.392  0.00  0.00     0.030 C 
HETATM   17  C   UNK N   1      23.841  18.453   4.297  0.00  0.00    -0.012 A 
HETATM   18  C   UNK N   1      24.602  17.489   5.018  0.00  0.00     0.041 A 
HETATM   19  C   UNK N   1      22.457  18.465   4.451  0.00  0.00     0.045 A 
HETATM   20  N   UNK N   1      24.462  15.614   6.574  0.00  0.00    -0.353 N 
HETATM   21  C   UNK N   1      20.733  14.696   8.638  0.00  0.00     0.009 C 
HETATM   22  C   UNK N   1      22.842  11.156  10.402  0.00  0.00     0.070 C 
HETATM   23  N   UNK N   1      24.702  12.390   9.278  0.00  0.00    -0.304 N 
ATOM     24  HN  UNK N   1      25.460  11.852   9.697  1.00  0.00     0.186 HD
HETATM   25  N   UNK N   1      24.846  13.393   8.421  0.00  0.00    -0.298 N 
HETATM   26  H   UNK N   1      25.419  15.399   6.666  0.00  0.00     0.166 HD
HETATM   27  H   UNK N   1      25.703  13.742   8.086  0.00  0.00     0.187 HD
ENDROOT
BRANCH  13  28
HETATM   28  C   UNK N   1      20.494  19.867   3.570  0.00  0.00     0.128 C 
HETATM   29  C   UNK N   1      19.653  18.989   2.658  0.00  0.00     0.027 C 
ENDBRANCH  13  28
TORSDOF 1
ENDMDL
MODEL 2
REMARK VINA RESULT:      -7.9      3.652      3.886
REMARK  1 active torsions:
REMARK  status: ('A' for Active; 'I' for Inactive)
REMARK    1  A    between atoms: N_13  and  C_14 
ROOT
HETATM    1  C   UNK N   1      23.791  13.469   6.193  0.00  0.00     0.044 A 
HETATM    2  C   UNK N   1      22.442  13.597   6.399  0.00  0.00     0.001 A 
HETATM    3  C   UNK N   1      21.580  13.962   5.365  0.00  0.00     0.044 A 
HETATM    4  C   UNK N   1      20.867  13.281   8.396  0.00  0.00     0.042 C 
HETATM    5  C   UNK N   1      23.463  13.009   8.267  0.00  0.00     0.069 A 
HETATM    6  C   UNK N   1      22.208  13.300   7.722  0.00  0.00    -0.017 A 
HETATM    7  C   UNK N   1      23.776  12.651   9.658  0.00  0.00     0.083 A 
HETATM    8  C   UNK N   1      22.905  12.496  10.717  0.00  0.00    -0.004 A 
HETATM    9  C   UNK N   1      21.412  12.611  10.724  0.00  0.00     0.043 C 
HETATM   10  C   UNK N   1      23.713  12.192  11.791  0.00  0.00     0.030 A 
HETATM   11  O   UNK N   1      22.047  14.956   0.802  0.00  0.00    -0.272 OA
HETATM   12  C   UNK N   1      22.409  14.636   1.935  0.00  0.00     0.237 A 
HETATM   13  N   UNK N   1      21.508  14.552   2.931  0.00  0.00    -0.317 N 
HETATM   14  C   UNK N   1      23.895  14.302   2.357  0.00  0.00     0.063 A 
HETATM   15  C   UNK N   1      24.496  14.510   0.966  0.00  0.00     0.030 C 
HETATM   16  C   UNK N   1      25.390  14.025   2.514  0.00  0.00     0.030 C 
HETATM   17  C   UNK N   1      23.525  14.033   3.861  0.00  0.00    -0.012 A 
HETATM   18  C   UNK N   1      24.375  13.673   4.946  0.00  0.00     0.041 A 
HETATM   19  C   UNK N   1      22.162  14.181   4.098  0.00  0.00     0.045 A 
HETATM   20  N   UNK N   1      24.427  13.118   7.322  0.00  0.00    -0.353 N 
HETATM   21  C   UNK N   1      20.926  13.750   9.842  0.00  0.00     0.009 C 
HETATM   22  C   UNK N   1      23.280  11.919  13.188  0.00  0.00     0.070 C 
HETATM   23  N   UNK N   1      24.997  12.165  11.387  0.00  0.00    -0.304 N 
ATOM     24  HN  UNK N   1      25.804  11.963  11.977  1.00  0.00     0.186 HD
HETATM   25  N   UNK N   1      25.036  12.445  10.092  0.00  0.00    -0.298 N 
HETATM   26  H   UNK N   1      25.393  12.970   7.440  0.00  0.00     0.166 HD
HETATM   27  H   UNK N   1      25.849  12.493   9.539  0.00  0.00     0.187 HD
ENDROOT
BRANCH  13  28
HETATM   28  C   UNK N   1      20.089  14.833   2.728  0.00  0.00     0.128 C 
HETATM   29  C   UNK N   1      19.213  13.618   2.478  0.00  0.00     0.027 C 
ENDBRANCH  13  28
TORSDOF 1
ENDMDL
MODEL 3
REMARK VINA RESULT:      -7.9      7.802      9.145
REMARK  1 active torsions:
REMARK  status: ('A' for Active; 'I' for Inactive)
REMARK    1  A    between atoms: N_13  and  C_14 
ROOT
HETATM    1  C   UNK N   1      30.919  16.583   7.962  0.00  0.00     0.044 A 
HETATM    2  C   UNK N   1      31.305  15.823   6.889  0.00  0.00     0.001 A 
HETATM    3  C   UNK N   1      30.707  15.973   5.638  0.00  0.00     0.044 A 
HETATM    4  C   UNK N   1      33.062  14.000   6.488  0.00  0.00     0.042 C 
HETATM    5  C   UNK N   1      32.480  15.294   8.683  0.00  0.00     0.069 A 
HETATM    6  C   UNK N   1      32.312  14.992   7.327  0.00  0.00    -0.017 A 
HETATM    7  C   UNK N   1      33.415  14.673   9.630  0.00  0.00     0.083 A 
HETATM    8  C   UNK N   1      34.348  13.684   9.388  0.00  0.00    -0.004 A 
HETATM    9  C   UNK N   1      34.679  13.011   8.092  0.00  0.00     0.043 C 
HETATM   10  C   UNK N   1      34.933  13.448  10.612  0.00  0.00     0.030 A 
HETATM   11  O   UNK N   1      27.360  18.719   3.827  0.00  0.00    -0.272 OA
HETATM   12  C   UNK N   1      28.114  18.273   4.692  0.00  0.00     0.237 A 
HETATM   13  N   UNK N   1      28.964  17.273   4.393  0.00  0.00    -0.317 N 
HETATM   14  C   UNK N   1      28.187  18.778   6.189  0.00  0.00     0.063 A 
HETATM   15  C   UNK N   1      27.113  19.856   6.034  0.00  0.00     0.030 C 
HETATM   16  C   UNK N   1      28.071  19.436   7.563  0.00  0.00     0.030 C 
HETATM   17  C   UNK N   1      29.305  17.751   6.598  0.00  0.00    -0.012 A 
HETATM   18  C   UNK N   1      29.930  17.558   7.863  0.00  0.00     0.041 A 
HETATM   19  C   UNK N   1      29.696  16.951   5.528  0.00  0.00     0.045 A 
HETATM   20  N   UNK N   1      31.620  16.269   9.062  0.00  0.00    -0.353 N 
HETATM   21  C   UNK N   1      33.437  12.741   7.256  0.00  0.00     0.009 C 
HETATM   22  C   UNK N   1      36.015  12.472  10.914  0.00  0.00     0.070 C 
HETATM   23  N   UNK N   1      34.379  14.258  11.533  0.00  0.00    -0.304 N 
ATOM     24  HN  UNK N   1      34.626  14.295  12.522  1.00  0.00     0.186 HD
HETATM   25  N   UNK N   1      33.456  15.002  10.938  0.00  0.00    -0.298 N 
HETATM   26  H   UNK N   1      31.528  16.663   9.960  0.00  0.00     0.166 HD
HETATM   27  H   UNK N   1      32.895  15.681  11.376  0.00  0.00     0.187 HD
ENDROOT
BRANCH  13  28
HETATM   28  C   UNK N   1      29.031  16.675   3.063  0.00  0.00     0.128 C 
HETATM   29  C   UNK N   1      28.189  15.426   2.866  0.00  0.00     0.027 C 
ENDBRANCH  13  28
TORSDOF 1
ENDMDL
MODEL 4
REMARK VINA RESULT:      -7.8     14.240     14.944
REMARK  1 active torsions:
REMARK  status: ('A' for Active; 'I' for Inactive)
REMARK    1  A    between atoms: N_13  and  C_14 
ROOT
HETATM    1  C   UNK N   1      29.123  23.818  -4.252  0.00  0.00     0.044 A 
HETATM    2  C   UNK N   1      28.965  23.270  -5.498  0.00  0.00     0.001 A 
HETATM    3  C   UNK N   1      27.981  23.728  -6.375  0.00  0.00     0.044 A 
HETATM    4  C   UNK N   1      30.143  21.432  -6.841  0.00  0.00     0.042 C 
HETATM    5  C   UNK N   1      30.617  22.281  -4.416  0.00  0.00     0.069 A 
HETATM    6  C   UNK N   1      29.919  22.286  -5.627  0.00  0.00    -0.017 A 
HETATM    7  C   UNK N   1      31.725  21.401  -4.022  0.00  0.00     0.083 A 
HETATM    8  C   UNK N   1      32.336  20.411  -4.765  0.00  0.00    -0.004 A 
HETATM    9  C   UNK N   1      32.060  19.999  -6.178  0.00  0.00     0.043 C 
HETATM   10  C   UNK N   1      33.285  19.876  -3.922  0.00  0.00     0.030 A 
HETATM   11  O   UNK N   1      24.678  27.059  -6.266  0.00  0.00    -0.272 OA
HETATM   12  C   UNK N   1      25.617  26.381  -5.849  0.00  0.00     0.237 A 
HETATM   13  N   UNK N   1      26.130  25.398  -6.613  0.00  0.00    -0.317 N 
HETATM   14  C   UNK N   1      26.312  26.554  -4.439  0.00  0.00     0.063 A 
HETATM   15  C   UNK N   1      25.439  27.725  -3.986  0.00  0.00     0.030 C 
HETATM   16  C   UNK N   1      26.812  26.916  -3.042  0.00  0.00     0.030 C 
HETATM   17  C   UNK N   1      27.325  25.375  -4.670  0.00  0.00    -0.012 A 
HETATM   18  C   UNK N   1      28.332  24.870  -3.798  0.00  0.00     0.041 A 
HETATM   19  C   UNK N   1      27.167  24.787  -5.922  0.00  0.00     0.045 A 
HETATM   20  N   UNK N   1      30.120  23.223  -3.579  0.00  0.00    -0.353 N 
HETATM   21  C   UNK N   1      30.572  20.014  -6.495  0.00  0.00     0.009 C 
HETATM   22  C   UNK N   1      34.235  18.773  -4.228  0.00  0.00     0.070 C 
HETATM   23  N   UNK N   1      33.241  20.519  -2.740  0.00  0.00    -0.304 N 
ATOM     24  HN  UNK N   1      33.836  20.328  -1.934  1.00  0.00     0.186 HD
HETATM   25  N   UNK N   1      32.293  21.445  -2.800  0.00  0.00    -0.298 N 
HETATM   26  H   UNK N   1      30.427  23.428  -2.666  0.00  0.00     0.166 HD
HETATM   27  H   UNK N   1      32.046  22.061  -2.073  0.00  0.00     0.187 HD
ENDROOT
BRANCH  13  28
HETATM   28  C   UNK N   1      25.610  25.089  -7.942  0.00  0.00     0.128 C 
HETATM   29  C   UNK N   1      26.288  25.814  -9.092  0.00  0.00     0.027 C 
ENDBRANCH  13  28
TORSDOF 1
ENDMDL
MODEL 5
REMARK VINA RESULT:      -7.7      5.697      8.049
REMARK  1 active torsions:
REMARK  status: ('A' for Active; 'I' for Inactive)
REMARK    1  A    between atoms: N_13  and  C_14 
ROOT
HETATM    1  C   UNK N   1      28.407  16.699   6.218  0.00  0.00     0.044 A 
HETATM    2  C   UNK N   1      28.632  16.447   4.890  0.00  0.00     0.001 A 
HETATM    3  C   UNK N   1      29.903  16.573   4.330  0.00  0.00     0.044 A 
HETATM    4  C   UNK N   1      27.191  15.682   2.913  0.00  0.00     0.042 C 
HETATM    5  C   UNK N   1      26.503  16.140   5.392  0.00  0.00     0.069 A 
HETATM    6  C   UNK N   1      27.424  16.079   4.341  0.00  0.00    -0.017 A 
HETATM    7  C   UNK N   1      25.060  15.865   5.337  0.00  0.00     0.083 A 
HETATM    8  C   UNK N   1      24.307  15.461   4.253  0.00  0.00    -0.004 A 
HETATM    9  C   UNK N   1      24.764  15.160   2.859  0.00  0.00     0.043 C 
HETATM   10  C   UNK N   1      23.019  15.379   4.734  0.00  0.00     0.030 A 
HETATM   11  O   UNK N   1      34.169  17.715   5.920  0.00  0.00    -0.272 OA
HETATM   12  C   UNK N   1      32.959  17.493   5.980  0.00  0.00     0.237 A 
HETATM   13  N   UNK N   1      32.280  17.150   4.869  0.00  0.00    -0.317 N 
HETATM   14  C   UNK N   1      32.080  17.577   7.292  0.00  0.00     0.063 A 
HETATM   15  C   UNK N   1      33.234  17.961   8.219  0.00  0.00     0.030 C 
HETATM   16  C   UNK N   1      31.456  17.722   8.679  0.00  0.00     0.030 C 
HETATM   17  C   UNK N   1      30.745  17.197   6.555  0.00  0.00    -0.012 A 
HETATM   18  C   UNK N   1      29.429  17.072   7.086  0.00  0.00     0.041 A 
HETATM   19  C   UNK N   1      30.946  16.959   5.199  0.00  0.00     0.045 A 
HETATM   20  N   UNK N   1      27.115  16.523   6.537  0.00  0.00    -0.353 N 
HETATM   21  C   UNK N   1      25.835  16.131   2.388  0.00  0.00     0.009 C 
HETATM   22  C   UNK N   1      21.804  14.979   3.975  0.00  0.00     0.070 C 
HETATM   23  N   UNK N   1      23.010  15.713   6.038  0.00  0.00    -0.304 N 
ATOM     24  HN  UNK N   1      22.189  15.734   6.643  1.00  0.00     0.186 HD
HETATM   25  N   UNK N   1      24.249  16.009   6.405  0.00  0.00    -0.298 N 
HETATM   26  H   UNK N   1      26.698  16.647   7.421  0.00  0.00     0.166 HD
HETATM   27  H   UNK N   1      24.530  16.287   7.306  0.00  0.00     0.187 HD
ENDROOT
BRANCH  13  28
HETATM   28  C   UNK N   1      32.926  17.031   3.564  0.00  0.00     0.128 C 
HETATM   29  C   UNK N   1      33.333  15.623   3.165  0.00  0.00     0.027 C 
ENDBRANCH  13  28
TORSDOF 1
ENDMDL
MODEL 6
REMARK VINA RESULT:      -7.7      8.785     11.337
REMARK  1 active torsions:
REMARK  status: ('A' for Active; 'I' for Inactive)
REMARK    1  A    between atoms: N_13  and  C_14 
ROOT
HETATM    1  C   UNK N   1      32.167  16.426   6.187  0.00  0.00     0.044 A 
HETATM    2  C   UNK N   1      31.819  16.726   7.479  0.00  0.00     0.001 A 
HETATM    3  C   UNK N   1      32.614  16.334   8.556  0.00  0.00     0.044 A 
HETATM    4  C   UNK N   1      29.891  17.991   8.598  0.00  0.00     0.042 C 
HETATM    5  C   UNK N   1      30.315  17.512   6.065  0.00  0.00     0.069 A 
HETATM    6  C   UNK N   1      30.636  17.429   7.423  0.00  0.00    -0.017 A 
HETATM    7  C   UNK N   1      29.134  18.142   5.459  0.00  0.00     0.083 A 
HETATM    8  C   UNK N   1      28.104  18.811   6.089  0.00  0.00    -0.004 A 
HETATM    9  C   UNK N   1      27.937  19.106   7.547  0.00  0.00     0.043 C 
HETATM   10  C   UNK N   1      27.249  19.172   5.071  0.00  0.00     0.030 A 
HETATM   11  O   UNK N   1      36.671  14.032   9.067  0.00  0.00    -0.272 OA
HETATM   12  C   UNK N   1      35.726  14.543   8.465  0.00  0.00     0.237 A 
HETATM   13  N   UNK N   1      34.732  15.137   9.151  0.00  0.00    -0.317 N 
HETATM   14  C   UNK N   1      35.554  14.571   6.894  0.00  0.00     0.063 A 
HETATM   15  C   UNK N   1      36.859  13.833   6.588  0.00  0.00     0.030 C 
HETATM   16  C   UNK N   1      35.617  14.470   5.370  0.00  0.00     0.030 C 
HETATM   17  C   UNK N   1      34.181  15.333   6.946  0.00  0.00    -0.012 A 
HETATM   18  C   UNK N   1      33.335  15.738   5.874  0.00  0.00     0.041 A 
HETATM   19  C   UNK N   1      33.796  15.627   8.251  0.00  0.00     0.045 A 
HETATM   20  N   UNK N   1      31.259  16.893   5.316  0.00  0.00    -0.353 N 
HETATM   21  C   UNK N   1      28.381  17.941   8.418  0.00  0.00     0.009 C 
HETATM   22  C   UNK N   1      25.973  19.926   5.201  0.00  0.00     0.070 C 
HETATM   23  N   UNK N   1      27.748  18.742   3.898  0.00  0.00    -0.304 N 
ATOM     24  HN  UNK N   1      27.319  18.876   2.982  1.00  0.00     0.186 HD
HETATM   25  N   UNK N   1      28.893  18.116   4.132  0.00  0.00    -0.298 N 
HETATM   26  H   UNK N   1      31.274  16.803   4.335  0.00  0.00     0.166 HD
HETATM   27  H   UNK N   1      29.470  17.701   3.451  0.00  0.00     0.187 HD
ENDROOT
BRANCH  13  28
HETATM   28  C   UNK N   1      34.718  15.201  10.610  0.00  0.00     0.128 C 
HETATM   29  C   UNK N   1      35.380  16.427  11.215  0.00  0.00     0.027 C 
ENDBRANCH  13  28
TORSDOF 1
ENDMDL
MODEL 7
REMARK VINA RESULT:      -7.4      3.456      7.031
REMARK  1 active torsions:
REMARK  status: ('A' for Active; 'I' for Inactive)
REMARK    1  A    between atoms: N_13  and  C_14 
ROOT
HETATM    1  C   UNK N   1      24.433  14.184   7.225  0.00  0.00     0.044 A 
HETATM    2  C   UNK N   1      23.840  15.236   6.578  0.00  0.00     0.001 A 
HETATM    3  C   UNK N   1      22.541  15.641   6.886  0.00  0.00     0.044 A 
HETATM    4  C   UNK N   1      24.558  16.892   4.758  0.00  0.00     0.042 C 
HETATM    5  C   UNK N   1      25.886  14.905   5.815  0.00  0.00     0.069 A 
HETATM    6  C   UNK N   1      24.758  15.720   5.673  0.00  0.00    -0.017 A 
HETATM    7  C   UNK N   1      27.147  14.980   5.064  0.00  0.00     0.083 A 
HETATM    8  C   UNK N   1      27.504  15.880   4.080  0.00  0.00    -0.004 A 
HETATM    9  C   UNK N   1      26.720  17.039   3.546  0.00  0.00     0.043 C 
HETATM   10  C   UNK N   1      28.766  15.489   3.690  0.00  0.00     0.030 A 
HETATM   11  O   UNK N   1      19.232  14.274   9.919  0.00  0.00    -0.272 OA
HETATM   12  C   UNK N   1      20.327  14.262   9.356  0.00  0.00     0.237 A 
HETATM   13  N   UNK N   1      20.586  15.142   8.369  0.00  0.00    -0.317 N 
HETATM   14  C   UNK N   1      21.514  13.272   9.688  0.00  0.00     0.063 A 
HETATM   15  C   UNK N   1      20.781  12.533  10.809  0.00  0.00     0.030 C 
HETATM   16  C   UNK N   1      22.499  12.218  10.191  0.00  0.00     0.030 C 
HETATM   17  C   UNK N   1      22.465  13.867   8.588  0.00  0.00    -0.012 A 
HETATM   18  C   UNK N   1      23.788  13.475   8.235  0.00  0.00     0.041 A 
HETATM   19  C   UNK N   1      21.874  14.923   7.901  0.00  0.00     0.045 A 
HETATM   20  N   UNK N   1      25.676  13.966   6.768  0.00  0.00    -0.353 N 
HETATM   21  C   UNK N   1      25.241  16.713   3.410  0.00  0.00     0.009 C 
HETATM   22  C   UNK N   1      29.620  16.128   2.654  0.00  0.00     0.070 C 
HETATM   23  N   UNK N   1      29.139  14.414   4.409  0.00  0.00    -0.304 N 
ATOM     24  HN  UNK N   1      30.029  13.921   4.328  1.00  0.00     0.186 HD
HETATM   25  N   UNK N   1      28.156  14.104   5.243  0.00  0.00    -0.298 N 
HETATM   26  H   UNK N   1      26.305  13.268   7.062  0.00  0.00     0.166 HD
HETATM   27  H   UNK N   1      28.162  13.359   5.886  0.00  0.00     0.187 HD
ENDROOT
BRANCH  13  28
HETATM   28  C   UNK N   1      19.605  16.127   7.923  0.00  0.00     0.128 C 
HETATM   29  C   UNK N   1      19.691  17.485   8.598  0.00  0.00     0.027 C 
ENDBRANCH  13  28
TORSDOF 1
ENDMDL
MODEL 8
REMARK VINA RESULT:      -7.4     16.445     18.214
REMARK  1 active torsions:
REMARK  status: ('A' for Active; 'I' for Inactive)
REMARK    1  A    between atoms: N_13  and  C_14 
ROOT
HETATM    1  C   UNK N   1      36.516  12.719  14.439  0.00  0.00     0.044 A 
HETATM    2  C   UNK N   1      36.523  11.377  14.163  0.00  0.00     0.001 A 
HETATM    3  C   UNK N   1      36.186  10.433  15.134  0.00  0.00     0.044 A 
HETATM    4  C   UNK N   1      37.012   9.946  12.094  0.00  0.00     0.042 C 
HETATM    5  C   UNK N   1      37.111  12.541  12.381  0.00  0.00     0.069 A 
HETATM    6  C   UNK N   1      36.895  11.240  12.845  0.00  0.00    -0.017 A 
HETATM    7  C   UNK N   1      37.548  12.955  11.040  0.00  0.00     0.083 A 
HETATM    8  C   UNK N   1      37.812  12.159   9.944  0.00  0.00    -0.004 A 
HETATM    9  C   UNK N   1      37.687  10.672   9.817  0.00  0.00     0.043 C 
HETATM   10  C   UNK N   1      38.213  13.039   8.963  0.00  0.00     0.030 A 
HETATM   11  O   UNK N   1      34.824  10.577  19.622  0.00  0.00    -0.272 OA
HETATM   12  C   UNK N   1      35.173  11.024  18.529  0.00  0.00     0.237 A 
HETATM   13  N   UNK N   1      35.462  10.183  17.519  0.00  0.00    -0.317 N 
HETATM   14  C   UNK N   1      35.325  12.558  18.177  0.00  0.00     0.063 A 
HETATM   15  C   UNK N   1      34.899  13.069  19.554  0.00  0.00     0.030 C 
HETATM   16  C   UNK N   1      35.395  14.082  18.084  0.00  0.00     0.030 C 
HETATM   17  C   UNK N   1      35.791  12.287  16.701  0.00  0.00    -0.012 A 
HETATM   18  C   UNK N   1      36.156  13.219  15.687  0.00  0.00     0.041 A 
HETATM   19  C   UNK N   1      35.828  10.927  16.406  0.00  0.00     0.045 A 
HETATM   20  N   UNK N   1      36.878  13.441  13.366  0.00  0.00    -0.353 N 
HETATM   21  C   UNK N   1      38.144   9.953  11.077  0.00  0.00     0.009 C 
HETATM   22  C   UNK N   1      38.612  12.704   7.569  0.00  0.00     0.070 C 
HETATM   23  N   UNK N   1      38.183  14.293   9.451  0.00  0.00    -0.304 N 
ATOM     24  HN  UNK N   1      38.429  15.139   8.938  1.00  0.00     0.186 HD
HETATM   25  N   UNK N   1      37.780  14.242  10.714  0.00  0.00    -0.298 N 
HETATM   26  H   UNK N   1      36.958  14.420  13.307  0.00  0.00     0.166 HD
HETATM   27  H   UNK N   1      37.669  15.016  11.312  0.00  0.00     0.187 HD
ENDROOT
BRANCH  13  28
HETATM   28  C   UNK N   1      35.385   8.732  17.663  0.00  0.00     0.128 C 
HETATM   29  C   UNK N   1      36.701   8.036  17.965  0.00  0.00     0.027 C 
ENDBRANCH  13  28
TORSDOF 1
ENDMDL
MODEL 9
REMARK VINA RESULT:      -7.4     17.353     18.759
REMARK  1 active torsions:
REMARK  status: ('A' for Active; 'I' for Inactive)
REMARK    1  A    between atoms: N_13  and  C_14 
ROOT
HETATM    1  C   UNK N   1      34.767  11.997  19.451  0.00  0.00     0.044 A 
HETATM    2  C   UNK N   1      34.703  10.752  18.881  0.00  0.00     0.001 A 
HETATM    3  C   UNK N   1      35.163  10.521  17.585  0.00  0.00     0.044 A 
HETATM    4  C   UNK N   1      33.903   8.440  19.644  0.00  0.00     0.042 C 
HETATM    5  C   UNK N   1      33.881  10.715  20.931  0.00  0.00     0.069 A 
HETATM    6  C   UNK N   1      34.144   9.911  19.816  0.00  0.00    -0.017 A 
HETATM    7  C   UNK N   1      33.261  10.312  22.201  0.00  0.00     0.083 A 
HETATM    8  C   UNK N   1      32.831   9.057  22.583  0.00  0.00    -0.004 A 
HETATM    9  C   UNK N   1      32.917   7.769  21.823  0.00  0.00     0.043 C 
HETATM   10  C   UNK N   1      32.306   9.237  23.843  0.00  0.00     0.030 A 
HETATM   11  O   UNK N   1      37.158  13.115  14.220  0.00  0.00    -0.272 OA
HETATM   12  C   UNK N   1      36.661  12.875  15.322  0.00  0.00     0.237 A 
HETATM   13  N   UNK N   1      36.219  11.635  15.605  0.00  0.00    -0.317 N 
HETATM   14  C   UNK N   1      36.481  13.925  16.490  0.00  0.00     0.063 A 
HETATM   15  C   UNK N   1      37.107  15.097  15.733  0.00  0.00     0.030 C 
HETATM   16  C   UNK N   1      36.419  15.109  17.454  0.00  0.00     0.030 C 
HETATM   17  C   UNK N   1      35.804  12.892  17.463  0.00  0.00    -0.012 A 
HETATM   18  C   UNK N   1      35.310  13.092  18.784  0.00  0.00     0.041 A 
HETATM   19  C   UNK N   1      35.707  11.625  16.895  0.00  0.00     0.045 A 
HETATM   20  N   UNK N   1      34.265  11.992  20.696  0.00  0.00    -0.353 N 
HETATM   21  C   UNK N   1      32.637   7.963  20.341  0.00  0.00     0.009 C 
HETATM   22  C   UNK N   1      31.706   8.195  24.719  0.00  0.00     0.070 C 
HETATM   23  N   UNK N   1      32.422  10.531  24.193  0.00  0.00    -0.304 N 
ATOM     24  HN  UNK N   1      32.117  10.941  25.075  1.00  0.00     0.186 HD
HETATM   25  N   UNK N   1      33.002  11.185  23.195  0.00  0.00    -0.298 N 
HETATM   26  H   UNK N   1      34.190  12.757  21.311  0.00  0.00     0.166 HD
HETATM   27  H   UNK N   1      33.208  12.147  23.183  0.00  0.00     0.187 HD
ENDROOT
BRANCH  13  28
HETATM   28  C   UNK N   1      36.297  10.538  14.644  0.00  0.00     0.128 C 
HETATM   29  C   UNK N   1      37.536   9.666  14.750  0.00  0.00     0.027 C 
ENDBRANCH  13  28
TORSDOF 1
ENDMDL
