MODEL 1
REMARK VINA RESULT:      -7.4      0.000      0.000
REMARK  3 active torsions:
REMARK  status: ('A' for Active; 'I' for Inactive)
REMARK    1  A    between atoms: C_6  and  C_9 
REMARK    2  A    between atoms: N_28  and  C_12 
REMARK    3  A    between atoms: C_13  and  N_28 
ROOT
HETATM    1  C   UNK N   1      34.891  13.885  11.781  0.00  0.00     0.134 A 
HETATM    2  N   UNK N   1      35.706  14.148  12.840  0.00  0.00    -0.326 N 
ATOM      3  HN  UNK N   1      36.021  15.106  12.995  1.00  0.00     0.169 HD
HETATM    4  C   UNK N   1      36.111  13.170  13.698  0.00  0.00     0.119 A 
HETATM    5  C   UNK N   1      35.699  11.835  13.449  0.00  0.00     0.035 A 
HETATM    6  C   UNK N   1      36.134  10.745  14.216  0.00  0.00     0.017 A 
HETATM    7  C   UNK N   1      35.703   9.448  13.929  0.00  0.00     0.001 A 
HETATM    8  C   UNK N   1      34.835   9.225  12.860  0.00  0.00     0.002 A 
HETATM    9  C   UNK N   1      34.410  10.295  12.071  0.00  0.00     0.030 A 
HETATM   10  C   UNK N   1      34.841  11.594  12.357  0.00  0.00     0.047 A 
HETATM   11  N   UNK N   1      34.458  12.616  11.556  0.00  0.00    -0.340 N 
ATOM     12  HN  UNK N   1      33.834  12.431  10.771  1.00  0.00     0.167 HD
ENDROOT
BRANCH   4  13
HETATM   13  N   UNK N   1      37.008  13.523  14.754  0.00  0.00    -0.342 N 
HETATM   14  H   UNK N   1      37.962  13.323  14.611  0.00  0.00     0.167 HD
BRANCH  13  15
HETATM   15  C   UNK N   1      36.656  14.134  15.989  0.00  0.00     0.036 A 
HETATM   16  C   UNK N   1      35.717  13.513  16.813  0.00  0.00     0.046 A 
HETATM   17  C   UNK N   1      35.336  14.130  18.007  0.00  0.00     0.090 A 
HETATM   18  N   UNK N   1      35.887  15.319  18.370  0.00  0.00    -0.375 N 
HETATM   19  C   UNK N   1      36.830  15.928  17.600  0.00  0.00     0.090 A 
ATOM     20  HN  UNK N   1      35.588  15.765  19.237  1.00  0.00     0.164 HD
HETATM   21  C   UNK N   1      37.236  15.344  16.398  0.00  0.00     0.046 A 
ENDBRANCH  13  15
ENDBRANCH   4  13
BRANCH   1  22
HETATM   22  C   UNK N   1      34.523  14.945  10.827  0.00  0.00     0.077 A 
HETATM   23  C   UNK N   1      35.298  16.107  10.709  0.00  0.00     0.033 A 
HETATM   24  C   UNK N   1      34.949  17.071   9.761  0.00  0.00     0.004 A 
HETATM   25  C   UNK N   1      33.840  16.866   8.938  0.00  0.00     0.024 A 
HETATM   26  C   UNK N   1      33.090  15.697   9.081  0.00  0.00     0.005 A 
HETATM   27  C   UNK N   1      31.910  15.459   8.210  0.00  0.00     0.068 C 
HETATM   28  N   UNK N   1      33.444  14.771  10.011  0.00  0.00    -0.357 N 
ATOM     29  HN  UNK N   1      32.887  13.921  10.102  1.00  0.00     0.166 HD
ENDBRANCH   1  22
TORSDOF 3
ENDMDL
MODEL 2
REMARK VINA RESULT:      -7.3     19.402     23.766
REMARK  3 active torsions:
REMARK  status: ('A' for Active; 'I' for Inactive)
REMARK    1  A    between atoms: C_6  and  C_9 
REMARK    2  A    between atoms: N_28  and  C_12 
REMARK    3  A    between atoms: C_13  and  N_28 
ROOT
HETATM    1  C   UNK N   1      28.041  24.055  -4.510  0.00  0.00     0.134 A 
HETATM    2  N   UNK N   1      27.182  23.721  -5.512  0.00  0.00    -0.326 N 
ATOM      3  HN  UNK N   1      27.314  22.838  -6.004  1.00  0.00     0.169 HD
HETATM    4  C   UNK N   1      26.150  24.533  -5.876  0.00  0.00     0.119 A 
HETATM    5  C   UNK N   1      25.999  25.779  -5.212  0.00  0.00     0.035 A 
HETATM    6  C   UNK N   1      25.028  26.725  -5.573  0.00  0.00     0.017 A 
HETATM    7  C   UNK N   1      24.921  27.938  -4.891  0.00  0.00     0.001 A 
HETATM    8  C   UNK N   1      25.795  28.225  -3.842  0.00  0.00     0.002 A 
HETATM    9  C   UNK N   1      26.783  27.306  -3.485  0.00  0.00     0.030 A 
HETATM   10  C   UNK N   1      26.891  26.090  -4.167  0.00  0.00     0.047 A 
HETATM   11  N   UNK N   1      27.882  25.227  -3.841  0.00  0.00    -0.340 N 
ATOM     12  HN  UNK N   1      28.519  25.461  -3.080  1.00  0.00     0.167 HD
ENDROOT
BRANCH   4  13
HETATM   13  N   UNK N   1      25.325  24.132  -6.973  0.00  0.00    -0.342 N 
HETATM   14  H   UNK N   1      24.458  24.589  -7.068  0.00  0.00     0.167 HD
BRANCH  13  15
HETATM   15  C   UNK N   1      25.635  23.136  -7.940  0.00  0.00     0.036 A 
HETATM   16  C   UNK N   1      25.225  21.821  -7.720  0.00  0.00     0.046 A 
HETATM   17  C   UNK N   1      25.564  20.831  -8.645  0.00  0.00     0.090 A 
HETATM   18  N   UNK N   1      26.277  21.149  -9.759  0.00  0.00    -0.375 N 
HETATM   19  C   UNK N   1      26.659  22.430 -10.013  0.00  0.00     0.090 A 
ATOM     20  HN  UNK N   1      26.529  20.413 -10.417  1.00  0.00     0.164 HD
HETATM   21  C   UNK N   1      26.341  23.448  -9.111  0.00  0.00     0.046 A 
ENDBRANCH  13  15
ENDBRANCH   4  13
BRANCH   1  22
HETATM   22  C   UNK N   1      29.191  23.195  -4.181  0.00  0.00     0.077 A 
HETATM   23  C   UNK N   1      29.848  23.314  -2.948  0.00  0.00     0.033 A 
HETATM   24  C   UNK N   1      30.903  22.451  -2.648  0.00  0.00     0.004 A 
HETATM   25  C   UNK N   1      31.289  21.478  -3.571  0.00  0.00     0.024 A 
HETATM   26  C   UNK N   1      30.613  21.386  -4.789  0.00  0.00     0.005 A 
HETATM   27  C   UNK N   1      31.006  20.353  -5.782  0.00  0.00     0.068 C 
HETATM   28  N   UNK N   1      29.589  22.236  -5.065  0.00  0.00    -0.357 N 
ATOM     29  HN  UNK N   1      29.104  22.155  -5.959  1.00  0.00     0.166 HD
ENDBRANCH   1  22
TORSDOF 3
ENDMDL
MODEL 3
REMARK VINA RESULT:      -7.3      2.572      7.188
REMARK  3 active torsions:
REMARK  status: ('A' for Active; 'I' for Inactive)
REMARK    1  A    between atoms: C_6  and  C_9 
REMARK    2  A    between atoms: N_28  and  C_12 
REMARK    3  A    between atoms: C_13  and  N_28 
ROOT
HETATM    1  C   UNK N   1      36.345  13.936  11.949  0.00  0.00     0.134 A 
HETATM    2  N   UNK N   1      35.283  14.215  11.144  0.00  0.00    -0.326 N 
ATOM      3  HN  UNK N   1      34.379  14.420  11.570  1.00  0.00     0.169 HD
HETATM    4  C   UNK N   1      35.392  14.231   9.786  0.00  0.00     0.119 A 
HETATM    5  C   UNK N   1      36.645  13.907   9.201  0.00  0.00     0.035 A 
HETATM    6  C   UNK N   1      36.839  13.805   7.816  0.00  0.00     0.017 A 
HETATM    7  C   UNK N   1      38.089  13.479   7.289  0.00  0.00     0.001 A 
HETATM    8  C   UNK N   1      39.163  13.239   8.146  0.00  0.00     0.002 A 
HETATM    9  C   UNK N   1      38.983  13.312   9.529  0.00  0.00     0.030 A 
HETATM   10  C   UNK N   1      37.731  13.639  10.058  0.00  0.00     0.047 A 
HETATM   11  N   UNK N   1      37.559  13.661  11.400  0.00  0.00    -0.340 N 
ATOM     12  HN  UNK N   1      38.353  13.471  12.010  1.00  0.00     0.167 HD
ENDROOT
BRANCH   4  13
HETATM   13  N   UNK N   1      34.216  14.484   9.013  0.00  0.00    -0.342 N 
HETATM   14  H   UNK N   1      33.742  13.698   8.656  0.00  0.00     0.167 HD
BRANCH  13  15
HETATM   15  C   UNK N   1      33.664  15.760   8.712  0.00  0.00     0.036 A 
HETATM   16  C   UNK N   1      34.521  16.819   8.413  0.00  0.00     0.046 A 
HETATM   17  C   UNK N   1      33.987  18.085   8.159  0.00  0.00     0.090 A 
HETATM   18  N   UNK N   1      32.641  18.279   8.187  0.00  0.00    -0.375 N 
HETATM   19  C   UNK N   1      31.782  17.254   8.442  0.00  0.00     0.090 A 
ATOM     20  HN  UNK N   1      32.266  19.211   8.014  1.00  0.00     0.164 HD
HETATM   21  C   UNK N   1      32.278  15.974   8.704  0.00  0.00     0.046 A 
ENDBRANCH  13  15
ENDBRANCH   4  13
BRANCH   1  22
HETATM   22  C   UNK N   1      36.187  13.855  13.411  0.00  0.00     0.077 A 
HETATM   23  C   UNK N   1      35.409  12.847  13.995  0.00  0.00     0.033 A 
HETATM   24  C   UNK N   1      35.319  12.769  15.386  0.00  0.00     0.004 A 
HETATM   25  C   UNK N   1      36.007  13.689  16.179  0.00  0.00     0.024 A 
HETATM   26  C   UNK N   1      36.775  14.681  15.565  0.00  0.00     0.005 A 
HETATM   27  C   UNK N   1      37.519  15.665  16.392  0.00  0.00     0.068 C 
HETATM   28  N   UNK N   1      36.849  14.741  14.209  0.00  0.00    -0.357 N 
ATOM     29  HN  UNK N   1      37.415  15.470  13.775  1.00  0.00     0.166 HD
ENDBRANCH   1  22
TORSDOF 3
ENDMDL
MODEL 4
REMARK VINA RESULT:      -7.2      5.299      9.660
REMARK  3 active torsions:
REMARK  status: ('A' for Active; 'I' for Inactive)
REMARK    1  A    between atoms: C_6  and  C_9 
REMARK    2  A    between atoms: N_28  and  C_12 
REMARK    3  A    between atoms: C_13  and  N_28 
ROOT
HETATM    1  C   UNK N   1      29.557  17.953   5.313  0.00  0.00     0.134 A 
HETATM    2  N   UNK N   1      29.938  17.266   6.425  0.00  0.00    -0.326 N 
ATOM      3  HN  UNK N   1      29.402  17.380   7.285  1.00  0.00     0.169 HD
HETATM    4  C   UNK N   1      31.014  16.430   6.423  0.00  0.00     0.119 A 
HETATM    5  C   UNK N   1      31.778  16.309   5.232  0.00  0.00     0.035 A 
HETATM    6  C   UNK N   1      32.954  15.549   5.152  0.00  0.00     0.017 A 
HETATM    7  C   UNK N   1      33.672  15.465   3.958  0.00  0.00     0.001 A 
HETATM    8  C   UNK N   1      33.227  16.150   2.828  0.00  0.00     0.002 A 
HETATM    9  C   UNK N   1      32.072  16.932   2.896  0.00  0.00     0.030 A 
HETATM   10  C   UNK N   1      31.351  17.017   4.091  0.00  0.00     0.047 A 
HETATM   11  N   UNK N   1      30.258  17.814   4.156  0.00  0.00    -0.340 N 
ATOM     12  HN  UNK N   1      29.956  18.318   3.323  1.00  0.00     0.167 HD
ENDROOT
BRANCH   4  13
HETATM   13  N   UNK N   1      31.376  15.787   7.647  0.00  0.00    -0.342 N 
HETATM   14  H   UNK N   1      30.740  15.127   8.007  0.00  0.00     0.167 HD
BRANCH  13  15
HETATM   15  C   UNK N   1      32.565  16.008   8.395  0.00  0.00     0.036 A 
HETATM   16  C   UNK N   1      33.074  14.977   9.187  0.00  0.00     0.046 A 
HETATM   17  C   UNK N   1      34.217  15.203   9.958  0.00  0.00     0.090 A 
HETATM   18  N   UNK N   1      34.838  16.412   9.925  0.00  0.00    -0.375 N 
HETATM   19  C   UNK N   1      34.382  17.422   9.135  0.00  0.00     0.090 A 
ATOM     20  HN  UNK N   1      35.663  16.566  10.504  1.00  0.00     0.164 HD
HETATM   21  C   UNK N   1      33.240  17.237   8.352  0.00  0.00     0.046 A 
ENDBRANCH  13  15
ENDBRANCH   4  13
BRANCH   1  22
HETATM   22  C   UNK N   1      28.434  18.904   5.357  0.00  0.00     0.077 A 
HETATM   23  C   UNK N   1      28.009  19.457   6.573  0.00  0.00     0.033 A 
HETATM   24  C   UNK N   1      26.972  20.393   6.575  0.00  0.00     0.004 A 
HETATM   25  C   UNK N   1      26.375  20.771   5.371  0.00  0.00     0.024 A 
HETATM   26  C   UNK N   1      26.823  20.201   4.178  0.00  0.00     0.005 A 
HETATM   27  C   UNK N   1      26.204  20.595   2.886  0.00  0.00     0.068 C 
HETATM   28  N   UNK N   1      27.832  19.290   4.196  0.00  0.00    -0.357 N 
ATOM     29  HN  UNK N   1      28.150  18.884   3.316  1.00  0.00     0.166 HD
ENDBRANCH   1  22
TORSDOF 3
ENDMDL
MODEL 5
REMARK VINA RESULT:      -7.0      2.713      5.240
REMARK  3 active torsions:
REMARK  status: ('A' for Active; 'I' for Inactive)
REMARK    1  A    between atoms: C_6  and  C_9 
REMARK    2  A    between atoms: N_28  and  C_12 
REMARK    3  A    between atoms: C_13  and  N_28 
ROOT
HETATM    1  C   UNK N   1      36.504  13.558  13.294  0.00  0.00     0.134 A 
HETATM    2  N   UNK N   1      35.713  12.543  13.741  0.00  0.00    -0.326 N 
ATOM      3  HN  UNK N   1      35.391  11.838  13.078  1.00  0.00     0.169 HD
HETATM    4  C   UNK N   1      35.340  12.442  15.048  0.00  0.00     0.119 A 
HETATM    5  C   UNK N   1      35.761  13.450  15.954  0.00  0.00     0.035 A 
HETATM    6  C   UNK N   1      35.357  13.488  17.297  0.00  0.00     0.017 A 
HETATM    7  C   UNK N   1      35.795  14.503  18.148  0.00  0.00     0.001 A 
HETATM    8  C   UNK N   1      36.638  15.503  17.663  0.00  0.00     0.002 A 
HETATM    9  C   UNK N   1      37.031  15.495  16.323  0.00  0.00     0.030 A 
HETATM   10  C   UNK N   1      36.593  14.478  15.469  0.00  0.00     0.047 A 
HETATM   11  N   UNK N   1      36.944  14.507  14.162  0.00  0.00    -0.340 N 
ATOM     12  HN  UNK N   1      37.551  15.254  13.823  1.00  0.00     0.167 HD
ENDROOT
BRANCH   4  13
HETATM   13  N   UNK N   1      34.467  11.374  15.423  0.00  0.00    -0.342 N 
HETATM   14  H   UNK N   1      33.500  11.541  15.339  0.00  0.00     0.167 HD
BRANCH  13  15
HETATM   15  C   UNK N   1      34.859  10.095  15.905  0.00  0.00     0.036 A 
HETATM   16  C   UNK N   1      34.705   9.801  17.260  0.00  0.00     0.046 A 
HETATM   17  C   UNK N   1      35.128   8.562  17.747  0.00  0.00     0.090 A 
HETATM   18  N   UNK N   1      35.672   7.644  16.904  0.00  0.00    -0.375 N 
HETATM   19  C   UNK N   1      35.801   7.893  15.572  0.00  0.00     0.090 A 
ATOM     20  HN  UNK N   1      35.990   6.749  17.277  1.00  0.00     0.164 HD
HETATM   21  C   UNK N   1      35.393   9.122  15.047  0.00  0.00     0.046 A 
ENDBRANCH  13  15
ENDBRANCH   4  13
BRANCH   1  22
HETATM   22  C   UNK N   1      36.836  13.687  11.865  0.00  0.00     0.077 A 
HETATM   23  C   UNK N   1      36.057  14.484  11.015  0.00  0.00     0.033 A 
HETATM   24  C   UNK N   1      36.428  14.623   9.676  0.00  0.00     0.004 A 
HETATM   25  C   UNK N   1      37.568  13.976   9.200  0.00  0.00     0.024 A 
HETATM   26  C   UNK N   1      38.322  13.189  10.073  0.00  0.00     0.005 A 
HETATM   27  C   UNK N   1      39.542  12.496   9.586  0.00  0.00     0.068 C 
HETATM   28  N   UNK N   1      37.945  13.064  11.373  0.00  0.00    -0.357 N 
ATOM     29  HN  UNK N   1      38.507  12.487  12.000  1.00  0.00     0.166 HD
ENDBRANCH   1  22
TORSDOF 3
ENDMDL
MODEL 6
REMARK VINA RESULT:      -7.0      8.867     12.180
REMARK  3 active torsions:
REMARK  status: ('A' for Active; 'I' for Inactive)
REMARK    1  A    between atoms: C_6  and  C_9 
REMARK    2  A    between atoms: N_28  and  C_12 
REMARK    3  A    between atoms: C_13  and  N_28 
ROOT
HETATM    1  C   UNK N   1      27.270  18.572   5.276  0.00  0.00     0.134 A 
HETATM    2  N   UNK N   1      28.007  17.540   4.781  0.00  0.00    -0.326 N 
ATOM      3  HN  UNK N   1      27.822  17.208   3.834  1.00  0.00     0.169 HD
HETATM    4  C   UNK N   1      28.987  16.938   5.513  0.00  0.00     0.119 A 
HETATM    5  C   UNK N   1      29.210  17.381   6.843  0.00  0.00     0.035 A 
HETATM    6  C   UNK N   1      30.129  16.769   7.708  0.00  0.00     0.017 A 
HETATM    7  C   UNK N   1      30.310  17.239   9.010  0.00  0.00     0.001 A 
HETATM    8  C   UNK N   1      29.564  18.325   9.467  0.00  0.00     0.002 A 
HETATM    9  C   UNK N   1      28.627  18.932   8.627  0.00  0.00     0.030 A 
HETATM   10  C   UNK N   1      28.445  18.462   7.323  0.00  0.00     0.047 A 
HETATM   11  N   UNK N   1      27.502  19.029   6.535  0.00  0.00    -0.340 N 
ATOM     12  HN  UNK N   1      26.957  19.815   6.891  1.00  0.00     0.167 HD
ENDROOT
BRANCH   4  13
HETATM   13  N   UNK N   1      29.679  15.828   4.936  0.00  0.00    -0.342 N 
HETATM   14  H   UNK N   1      29.290  14.936   5.085  0.00  0.00     0.167 HD
BRANCH  13  15
HETATM   15  C   UNK N   1      30.875  15.887   4.169  0.00  0.00     0.036 A 
HETATM   16  C   UNK N   1      31.402  14.710   3.636  0.00  0.00     0.046 A 
HETATM   17  C   UNK N   1      32.600  14.756   2.919  0.00  0.00     0.090 A 
HETATM   18  N   UNK N   1      33.240  15.941   2.728  0.00  0.00    -0.375 N 
HETATM   19  C   UNK N   1      32.728  17.108   3.208  0.00  0.00     0.090 A 
ATOM     20  HN  UNK N   1      34.120  15.957   2.215  1.00  0.00     0.164 HD
HETATM   21  C   UNK N   1      31.534  17.103   3.934  0.00  0.00     0.046 A 
ENDBRANCH  13  15
ENDBRANCH   4  13
BRANCH   1  22
HETATM   22  C   UNK N   1      26.170  19.160   4.493  0.00  0.00     0.077 A 
HETATM   23  C   UNK N   1      26.422  20.138   3.521  0.00  0.00     0.033 A 
HETATM   24  C   UNK N   1      25.363  20.640   2.763  0.00  0.00     0.004 A 
HETATM   25  C   UNK N   1      24.069  20.162   2.974  0.00  0.00     0.024 A 
HETATM   26  C   UNK N   1      23.852  19.187   3.951  0.00  0.00     0.005 A 
HETATM   27  C   UNK N   1      22.483  18.662   4.186  0.00  0.00     0.068 C 
HETATM   28  N   UNK N   1      24.896  18.711   4.680  0.00  0.00    -0.357 N 
ATOM     29  HN  UNK N   1      24.721  17.998   5.388  1.00  0.00     0.166 HD
ENDBRANCH   1  22
TORSDOF 3
ENDMDL
MODEL 7
REMARK VINA RESULT:      -6.9      3.679      9.800
REMARK  3 active torsions:
REMARK  status: ('A' for Active; 'I' for Inactive)
REMARK    1  A    between atoms: C_6  and  C_9 
REMARK    2  A    between atoms: N_28  and  C_12 
REMARK    3  A    between atoms: C_13  and  N_28 
ROOT
HETATM    1  C   UNK N   1      32.521  15.934   8.888  0.00  0.00     0.134 A 
HETATM    2  N   UNK N   1      32.339  15.264   7.717  0.00  0.00    -0.326 N 
ATOM      3  HN  UNK N   1      33.003  14.535   7.455  1.00  0.00     0.169 HD
HETATM    4  C   UNK N   1      31.295  15.537   6.884  0.00  0.00     0.119 A 
HETATM    5  C   UNK N   1      30.400  16.580   7.239  0.00  0.00     0.035 A 
HETATM    6  C   UNK N   1      29.349  17.000   6.410  0.00  0.00     0.017 A 
HETATM    7  C   UNK N   1      28.497  18.033   6.801  0.00  0.00     0.001 A 
HETATM    8  C   UNK N   1      28.691  18.668   8.028  0.00  0.00     0.002 A 
HETATM    9  C   UNK N   1      29.746  18.280   8.855  0.00  0.00     0.030 A 
HETATM   10  C   UNK N   1      30.601  17.245   8.464  0.00  0.00     0.047 A 
HETATM   11  N   UNK N   1      31.647  16.908   9.255  0.00  0.00    -0.340 N 
ATOM     12  HN  UNK N   1      31.780  17.393  10.143  1.00  0.00     0.167 HD
ENDROOT
BRANCH   4  13
HETATM   13  N   UNK N   1      31.207  14.822   5.650  0.00  0.00    -0.342 N 
HETATM   14  H   UNK N   1      30.514  14.124   5.589  0.00  0.00     0.167 HD
BRANCH  13  15
HETATM   15  C   UNK N   1      32.021  15.020   4.501  0.00  0.00     0.036 A 
HETATM   16  C   UNK N   1      32.544  13.911   3.836  0.00  0.00     0.046 A 
HETATM   17  C   UNK N   1      33.380  14.101   2.733  0.00  0.00     0.090 A 
HETATM   18  N   UNK N   1      33.670  15.358   2.302  0.00  0.00    -0.375 N 
HETATM   19  C   UNK N   1      33.145  16.455   2.912  0.00  0.00     0.090 A 
ATOM     20  HN  UNK N   1      34.293  15.481   1.504  1.00  0.00     0.164 HD
HETATM   21  C   UNK N   1      32.307  16.307   4.020  0.00  0.00     0.046 A 
ENDBRANCH  13  15
ENDBRANCH   4  13
BRANCH   1  22
HETATM   22  C   UNK N   1      33.695  15.671   9.737  0.00  0.00     0.077 A 
HETATM   23  C   UNK N   1      34.729  16.611   9.846  0.00  0.00     0.033 A 
HETATM   24  C   UNK N   1      35.805  16.351  10.697  0.00  0.00     0.004 A 
HETATM   25  C   UNK N   1      35.839  15.166  11.433  0.00  0.00     0.024 A 
HETATM   26  C   UNK N   1      34.792  14.250  11.301  0.00  0.00     0.005 A 
HETATM   27  C   UNK N   1      34.808  12.985  12.080  0.00  0.00     0.068 C 
HETATM   28  N   UNK N   1      33.754  14.520  10.466  0.00  0.00    -0.357 N 
ATOM     29  HN  UNK N   1      32.996  13.842  10.382  1.00  0.00     0.166 HD
ENDBRANCH   1  22
TORSDOF 3
ENDMDL
MODEL 8
REMARK VINA RESULT:      -6.9     11.138     15.997
REMARK  3 active torsions:
REMARK  status: ('A' for Active; 'I' for Inactive)
REMARK    1  A    between atoms: C_6  and  C_9 
REMARK    2  A    between atoms: N_28  and  C_12 
REMARK    3  A    between atoms: C_13  and  N_28 
ROOT
HETATM    1  C   UNK N   1      24.214  18.530   4.499  0.00  0.00     0.134 A 
HETATM    2  N   UNK N   1      23.548  17.429   4.945  0.00  0.00    -0.326 N 
ATOM      3  HN  UNK N   1      24.052  16.736   5.498  1.00  0.00     0.169 HD
HETATM    4  C   UNK N   1      22.228  17.226   4.674  0.00  0.00     0.119 A 
HETATM    5  C   UNK N   1      21.546  18.177   3.870  0.00  0.00     0.035 A 
HETATM    6  C   UNK N   1      20.215  18.015   3.458  0.00  0.00     0.017 A 
HETATM    7  C   UNK N   1      19.589  18.977   2.663  0.00  0.00     0.001 A 
HETATM    8  C   UNK N   1      20.292  20.112   2.261  0.00  0.00     0.002 A 
HETATM    9  C   UNK N   1      21.625  20.278   2.641  0.00  0.00     0.030 A 
HETATM   10  C   UNK N   1      22.254  19.315   3.437  0.00  0.00     0.047 A 
HETATM   11  N   UNK N   1      23.560  19.466   3.761  0.00  0.00    -0.340 N 
ATOM     12  HN  UNK N   1      24.061  20.297   3.446  1.00  0.00     0.167 HD
ENDROOT
BRANCH   4  13
HETATM   13  N   UNK N   1      21.618  16.019   5.136  0.00  0.00    -0.342 N 
HETATM   14  H   UNK N   1      21.508  15.296   4.477  0.00  0.00     0.167 HD
BRANCH  13  15
HETATM   15  C   UNK N   1      21.155  15.760   6.456  0.00  0.00     0.036 A 
HETATM   16  C   UNK N   1      20.737  16.826   7.252  0.00  0.00     0.046 A 
HETATM   17  C   UNK N   1      20.323  16.584   8.564  0.00  0.00     0.090 A 
HETATM   18  N   UNK N   1      20.312  15.316   9.056  0.00  0.00    -0.375 N 
HETATM   19  C   UNK N   1      20.683  14.255   8.288  0.00  0.00     0.090 A 
ATOM     20  HN  UNK N   1      20.021  15.156  10.020  1.00  0.00     0.164 HD
HETATM   21  C   UNK N   1      21.106  14.457   6.972  0.00  0.00     0.046 A 
ENDBRANCH  13  15
ENDBRANCH   4  13
BRANCH   1  22
HETATM   22  C   UNK N   1      25.657  18.693   4.744  0.00  0.00     0.077 A 
HETATM   23  C   UNK N   1      26.388  19.694   4.089  0.00  0.00     0.033 A 
HETATM   24  C   UNK N   1      27.744  19.853   4.380  0.00  0.00     0.004 A 
HETATM   25  C   UNK N   1      28.355  19.023   5.321  0.00  0.00     0.024 A 
HETATM   26  C   UNK N   1      27.597  18.036   5.956  0.00  0.00     0.005 A 
HETATM   27  C   UNK N   1      28.229  17.147   6.964  0.00  0.00     0.068 C 
HETATM   28  N   UNK N   1      26.279  17.895   5.658  0.00  0.00    -0.357 N 
ATOM     29  HN  UNK N   1      25.738  17.171   6.132  1.00  0.00     0.166 HD
ENDBRANCH   1  22
TORSDOF 3
ENDMDL
MODEL 9
REMARK VINA RESULT:      -6.9      3.930      8.662
REMARK  3 active torsions:
REMARK  status: ('A' for Active; 'I' for Inactive)
REMARK    1  A    between atoms: C_6  and  C_9 
REMARK    2  A    between atoms: N_28  and  C_12 
REMARK    3  A    between atoms: C_13  and  N_28 
ROOT
HETATM    1  C   UNK N   1      34.415  15.803   8.784  0.00  0.00     0.134 A 
HETATM    2  N   UNK N   1      33.424  16.704   9.027  0.00  0.00    -0.326 N 
ATOM      3  HN  UNK N   1      33.209  16.956   9.992  1.00  0.00     0.169 HD
HETATM    4  C   UNK N   1      32.711  17.280   8.019  0.00  0.00     0.119 A 
HETATM    5  C   UNK N   1      32.991  16.893   6.682  0.00  0.00     0.035 A 
HETATM    6  C   UNK N   1      32.254  17.357   5.582  0.00  0.00     0.017 A 
HETATM    7  C   UNK N   1      32.566  16.944   4.286  0.00  0.00     0.001 A 
HETATM    8  C   UNK N   1      33.616  16.051   4.074  0.00  0.00     0.002 A 
HETATM    9  C   UNK N   1      34.345  15.560   5.159  0.00  0.00     0.030 A 
HETATM   10  C   UNK N   1      34.034  15.973   6.458  0.00  0.00     0.047 A 
HETATM   11  N   UNK N   1      34.718  15.455   7.506  0.00  0.00    -0.340 N 
ATOM     12  HN  UNK N   1      35.474  14.793   7.331  1.00  0.00     0.167 HD
ENDROOT
BRANCH   4  13
HETATM   13  N   UNK N   1      31.652  18.178   8.363  0.00  0.00    -0.342 N 
HETATM   14  H   UNK N   1      31.905  19.110   8.555  0.00  0.00     0.167 HD
BRANCH  13  15
HETATM   15  C   UNK N   1      30.271  17.854   8.456  0.00  0.00     0.036 A 
HETATM   16  C   UNK N   1      29.706  17.631   9.712  0.00  0.00     0.046 A 
HETATM   17  C   UNK N   1      28.359  17.270   9.806  0.00  0.00     0.090 A 
HETATM   18  N   UNK N   1      27.601  17.153   8.683  0.00  0.00    -0.375 N 
HETATM   19  C   UNK N   1      28.120  17.399   7.449  0.00  0.00     0.090 A 
ATOM     20  HN  UNK N   1      26.624  16.875   8.767  1.00  0.00     0.164 HD
HETATM   21  C   UNK N   1      29.463  17.759   7.313  0.00  0.00     0.046 A 
ENDBRANCH  13  15
ENDBRANCH   4  13
BRANCH   1  22
HETATM   22  C   UNK N   1      35.125  15.141   9.892  0.00  0.00     0.077 A 
HETATM   23  C   UNK N   1      34.529  15.017  11.155  0.00  0.00     0.033 A 
HETATM   24  C   UNK N   1      35.209  14.341  12.170  0.00  0.00     0.004 A 
HETATM   25  C   UNK N   1      36.467  13.792  11.917  0.00  0.00     0.024 A 
HETATM   26  C   UNK N   1      37.032  13.933  10.648  0.00  0.00     0.005 A 
HETATM   27  C   UNK N   1      38.368  13.351  10.359  0.00  0.00     0.068 C 
HETATM   28  N   UNK N   1      36.356  14.596   9.673  0.00  0.00    -0.357 N 
ATOM     29  HN  UNK N   1      36.781  14.689   8.750  1.00  0.00     0.166 HD
ENDBRANCH   1  22
TORSDOF 3
ENDMDL
