MODEL 1
REMARK VINA RESULT:      -7.9      0.000      0.000
REMARK  5 active torsions:
REMARK  status: ('A' for Active; 'I' for Inactive)
REMARK       I    between atoms: C_1  and  N_16 
REMARK    1  A    between atoms: C_4  and  N_9 
REMARK    2  A    between atoms: N_9  and  C_10 
REMARK    3  A    between atoms: C_11  and  C_24 
REMARK    4  A    between atoms: N_16  and  C_17 
REMARK    5  A    between atoms: C_21  and  O_23 
REMARK       I    between atoms: C_24  and  N_25 
ROOT
HETATM    1  C   UNK N   1      21.529  16.407   6.921  0.00  0.00     0.684 A 
HETATM    2  N   UNK N   1      21.412  15.359   7.765  0.00  0.00    -0.176 N 
ATOM      3  HN  UNK N   1      20.746  15.426   8.534  1.00  0.00     0.186 HD
HETATM    4  C   UNK N   1      22.133  14.231   7.637  0.00  0.00     0.122 A 
HETATM    5  C   UNK N   1      23.050  14.127   6.587  0.00  0.00     0.066 A 
HETATM    6  C   UNK N   1      23.173  15.214   5.710  0.00  0.00     0.110 A 
HETATM    7  N   UNK N   1      22.414  16.334   5.890  0.00  0.00    -0.202 N 
ATOM      8  HN  UNK N   1      22.511  17.120   5.246  1.00  0.00     0.183 HD
HETATM    9  N   UNK N   1      20.733  17.571   7.117  0.00  0.00    -0.192 N 
HETATM   10  H   UNK N   1      20.842  18.318   6.485  0.00  0.00     0.184 HD
ENDROOT
BRANCH   4  11
HETATM   11  N   UNK N   1      21.906  13.213   8.595  0.00  0.00    -0.341 N 
HETATM   12  H   UNK N   1      21.060  12.723   8.477  0.00  0.00     0.167 HD
BRANCH  11  13
HETATM   13  C   UNK N   1      22.688  12.778   9.691  0.00  0.00     0.049 A 
HETATM   14  C   UNK N   1      22.036  12.423  10.902  0.00  0.00     0.058 A 
HETATM   15  C   UNK N   1      22.811  11.992  11.988  0.00  0.00     0.019 A 
HETATM   16  C   UNK N   1      24.200  11.910  11.888  0.00  0.00     0.001 A 
HETATM   17  C   UNK N   1      24.836  12.260  10.697  0.00  0.00     0.002 A 
HETATM   18  C   UNK N   1      24.084  12.692   9.602  0.00  0.00     0.030 A 
BRANCH  14  19
HETATM   19  C   UNK N   1      20.549  12.489  11.072  0.00  0.00     0.251 C 
HETATM   20  N   UNK N   1      19.904  11.700  11.956  0.00  0.00    -0.366 N 
HETATM   21  H   UNK N   1      20.411  11.061  12.508  0.00  0.00     0.159 HD
HETATM   22  H   UNK N   1      18.925  11.762  12.049  0.00  0.00     0.159 HD
HETATM   23  O   UNK N   1      19.897  13.272  10.398  0.00  0.00    -0.268 OA
ENDBRANCH  14  19
ENDBRANCH  11  13
ENDBRANCH   4  11
BRANCH   9  24
HETATM   24  C   UNK N   1      19.782  17.720   8.179  0.00  0.00     0.051 A 
HETATM   25  C   UNK N   1      19.925  18.710   9.169  0.00  0.00     0.066 A 
HETATM   26  C   UNK N   1      18.995  18.845  10.196  0.00  0.00     0.067 A 
HETATM   27  C   UNK N   1      17.897  17.985  10.251  0.00  0.00     0.036 A 
HETATM   28  C   UNK N   1      17.739  16.995   9.275  0.00  0.00     0.005 A 
HETATM   29  C   UNK N   1      18.678  16.862   8.242  0.00  0.00     0.030 A 
BRANCH  26  30
HETATM   30  O   UNK N   1      19.157  19.799  11.127  0.00  0.00    -0.361 OA
HETATM   31  H   UNK N   1      19.243  20.695  10.870  0.00  0.00     0.217 HD
ENDBRANCH  26  30
ENDBRANCH   9  24
TORSDOF 5
ENDMDL
MODEL 2
REMARK VINA RESULT:      -7.8      8.950     11.744
REMARK  5 active torsions:
REMARK  status: ('A' for Active; 'I' for Inactive)
REMARK       I    between atoms: C_1  and  N_16 
REMARK    1  A    between atoms: C_4  and  N_9 
REMARK    2  A    between atoms: N_9  and  C_10 
REMARK    3  A    between atoms: C_11  and  C_24 
REMARK    4  A    between atoms: N_16  and  C_17 
REMARK    5  A    between atoms: C_21  and  O_23 
REMARK       I    between atoms: C_24  and  N_25 
ROOT
HETATM    1  C   UNK N   1      31.839  16.180   4.529  0.00  0.00     0.684 A 
HETATM    2  N   UNK N   1      30.826  16.697   5.257  0.00  0.00    -0.176 N 
ATOM      3  HN  UNK N   1      31.012  16.974   6.221  1.00  0.00     0.186 HD
HETATM    4  C   UNK N   1      29.584  16.864   4.771  0.00  0.00     0.122 A 
HETATM    5  C   UNK N   1      29.315  16.489   3.451  0.00  0.00     0.066 A 
HETATM    6  C   UNK N   1      30.365  15.952   2.693  0.00  0.00     0.110 A 
HETATM    7  N   UNK N   1      31.607  15.806   3.241  0.00  0.00    -0.202 N 
ATOM      8  HN  UNK N   1      32.365  15.414   2.681  1.00  0.00     0.183 HD
HETATM    9  N   UNK N   1      33.131  16.032   5.109  0.00  0.00    -0.192 N 
HETATM   10  H   UNK N   1      33.847  15.651   4.552  0.00  0.00     0.184 HD
ENDROOT
BRANCH   4  11
HETATM   11  N   UNK N   1      28.620  17.419   5.649  0.00  0.00    -0.341 N 
HETATM   12  H   UNK N   1      28.308  16.805   6.352  0.00  0.00     0.167 HD
BRANCH  11  13
HETATM   13  C   UNK N   1      28.030  18.704   5.687  0.00  0.00     0.049 A 
HETATM   14  C   UNK N   1      27.924  19.375   6.935  0.00  0.00     0.058 A 
HETATM   15  C   UNK N   1      27.338  20.649   6.972  0.00  0.00     0.019 A 
HETATM   16  C   UNK N   1      26.866  21.253   5.807  0.00  0.00     0.001 A 
HETATM   17  C   UNK N   1      26.972  20.590   4.584  0.00  0.00     0.002 A 
HETATM   18  C   UNK N   1      27.551  19.321   4.523  0.00  0.00     0.030 A 
BRANCH  14  19
HETATM   19  C   UNK N   1      28.412  18.779   8.219  0.00  0.00     0.251 C 
HETATM   20  N   UNK N   1      27.556  18.375   9.181  0.00  0.00    -0.366 N 
HETATM   21  H   UNK N   1      26.585  18.470   9.047  0.00  0.00     0.159 HD
HETATM   22  H   UNK N   1      27.902  17.986  10.017  0.00  0.00     0.159 HD
HETATM   23  O   UNK N   1      29.612  18.651   8.410  0.00  0.00    -0.268 OA
ENDBRANCH  14  19
ENDBRANCH  11  13
ENDBRANCH   4  11
BRANCH   9  24
HETATM   24  C   UNK N   1      33.449  16.403   6.456  0.00  0.00     0.051 A 
HETATM   25  C   UNK N   1      34.053  17.637   6.762  0.00  0.00     0.066 A 
HETATM   26  C   UNK N   1      34.358  17.986   8.075  0.00  0.00     0.067 A 
HETATM   27  C   UNK N   1      34.061  17.101   9.112  0.00  0.00     0.036 A 
HETATM   28  C   UNK N   1      33.460  15.870   8.827  0.00  0.00     0.005 A 
HETATM   29  C   UNK N   1      33.155  15.521   7.503  0.00  0.00     0.030 A 
BRANCH  26  30
HETATM   30  O   UNK N   1      34.934  19.170   8.338  0.00  0.00    -0.361 OA
HETATM   31  H   UNK N   1      35.361  19.646   7.653  0.00  0.00     0.217 HD
ENDBRANCH  26  30
ENDBRANCH   9  24
TORSDOF 5
ENDMDL
MODEL 3
REMARK VINA RESULT:      -7.4     17.110     18.842
REMARK  5 active torsions:
REMARK  status: ('A' for Active; 'I' for Inactive)
REMARK       I    between atoms: C_1  and  N_16 
REMARK    1  A    between atoms: C_4  and  N_9 
REMARK    2  A    between atoms: N_9  and  C_10 
REMARK    3  A    between atoms: C_11  and  C_24 
REMARK    4  A    between atoms: N_16  and  C_17 
REMARK    5  A    between atoms: C_21  and  O_23 
REMARK       I    between atoms: C_24  and  N_25 
ROOT
HETATM    1  C   UNK N   1      26.042  25.024  -6.685  0.00  0.00     0.684 A 
HETATM    2  N   UNK N   1      27.278  24.793  -6.192  0.00  0.00    -0.176 N 
ATOM      3  HN  UNK N   1      27.793  25.573  -5.786  1.00  0.00     0.186 HD
HETATM    4  C   UNK N   1      27.860  23.581  -6.212  0.00  0.00     0.122 A 
HETATM    5  C   UNK N   1      27.163  22.502  -6.766  0.00  0.00     0.066 A 
HETATM    6  C   UNK N   1      25.880  22.740  -7.278  0.00  0.00     0.110 A 
HETATM    7  N   UNK N   1      25.340  23.993  -7.230  0.00  0.00    -0.202 N 
ATOM      8  HN  UNK N   1      24.406  24.157  -7.606  1.00  0.00     0.183 HD
HETATM    9  N   UNK N   1      25.487  26.335  -6.631  0.00  0.00    -0.192 N 
HETATM   10  H   UNK N   1      24.584  26.470  -6.999  0.00  0.00     0.184 HD
ENDROOT
BRANCH   4  11
HETATM   11  N   UNK N   1      29.160  23.484  -5.659  0.00  0.00    -0.341 N 
HETATM   12  H   UNK N   1      29.612  24.349  -5.527  0.00  0.00     0.167 HD
BRANCH  11  13
HETATM   13  C   UNK N   1      29.920  22.358  -5.265  0.00  0.00     0.049 A 
HETATM   14  C   UNK N   1      30.278  22.215  -3.898  0.00  0.00     0.058 A 
HETATM   15  C   UNK N   1      31.032  21.098  -3.508  0.00  0.00     0.019 A 
HETATM   16  C   UNK N   1      31.427  20.140  -4.442  0.00  0.00     0.001 A 
HETATM   17  C   UNK N   1      31.074  20.286  -5.783  0.00  0.00     0.002 A 
HETATM   18  C   UNK N   1      30.324  21.390  -6.195  0.00  0.00     0.030 A 
BRANCH  14  19
HETATM   19  C   UNK N   1      29.883  23.208  -2.848  0.00  0.00     0.251 C 
HETATM   20  N   UNK N   1      28.904  22.944  -1.959  0.00  0.00    -0.366 N 
HETATM   21  H   UNK N   1      28.429  22.081  -1.991  0.00  0.00     0.159 HD
HETATM   22  H   UNK N   1      28.662  23.613  -1.278  0.00  0.00     0.159 HD
HETATM   23  O   UNK N   1      30.457  24.285  -2.788  0.00  0.00    -0.268 OA
ENDBRANCH  14  19
ENDBRANCH  11  13
ENDBRANCH   4  11
BRANCH   9  24
HETATM   24  C   UNK N   1      26.165  27.467  -6.073  0.00  0.00     0.051 A 
HETATM   25  C   UNK N   1      25.786  28.024  -4.837  0.00  0.00     0.066 A 
HETATM   26  C   UNK N   1      26.453  29.124  -4.306  0.00  0.00     0.067 A 
HETATM   27  C   UNK N   1      27.518  29.691  -5.006  0.00  0.00     0.036 A 
HETATM   28  C   UNK N   1      27.909  29.151  -6.236  0.00  0.00     0.005 A 
HETATM   29  C   UNK N   1      27.235  28.042  -6.769  0.00  0.00     0.030 A 
BRANCH  26  30
HETATM   30  O   UNK N   1      26.069  29.634  -3.124  0.00  0.00    -0.361 OA
HETATM   31  H   UNK N   1      26.712  29.924  -2.508  0.00  0.00     0.217 HD
ENDBRANCH  26  30
ENDBRANCH   9  24
TORSDOF 5
ENDMDL
MODEL 4
REMARK VINA RESULT:      -7.3     17.873     19.131
REMARK  5 active torsions:
REMARK  status: ('A' for Active; 'I' for Inactive)
REMARK       I    between atoms: C_1  and  N_16 
REMARK    1  A    between atoms: C_4  and  N_9 
REMARK    2  A    between atoms: N_9  and  C_10 
REMARK    3  A    between atoms: C_11  and  C_24 
REMARK    4  A    between atoms: N_16  and  C_17 
REMARK    5  A    between atoms: C_21  and  O_23 
REMARK       I    between atoms: C_24  and  N_25 
ROOT
HETATM    1  C   UNK N   1      25.947  24.279  -7.172  0.00  0.00     0.684 A 
HETATM    2  N   UNK N   1      27.234  24.155  -6.781  0.00  0.00    -0.176 N 
ATOM      3  HN  UNK N   1      27.685  24.952  -6.333  1.00  0.00     0.186 HD
HETATM    4  C   UNK N   1      27.949  23.030  -6.956  0.00  0.00     0.122 A 
HETATM    5  C   UNK N   1      27.342  21.929  -7.569  0.00  0.00     0.066 A 
HETATM    6  C   UNK N   1      26.006  22.055  -7.976  0.00  0.00     0.110 A 
HETATM    7  N   UNK N   1      25.331  23.224  -7.772  0.00  0.00    -0.202 N 
ATOM      8  HN  UNK N   1      24.359  23.307  -8.071  1.00  0.00     0.183 HD
HETATM    9  N   UNK N   1      25.252  25.502  -6.954  0.00  0.00    -0.192 N 
HETATM   10  H   UNK N   1      24.315  25.560  -7.251  0.00  0.00     0.184 HD
ENDROOT
BRANCH   4  11
HETATM   11  N   UNK N   1      29.288  23.042  -6.497  0.00  0.00    -0.341 N 
HETATM   12  H   UNK N   1      29.957  23.221  -7.197  0.00  0.00     0.167 HD
BRANCH  11  13
HETATM   13  C   UNK N   1      29.830  22.840  -5.206  0.00  0.00     0.049 A 
HETATM   14  C   UNK N   1      30.011  23.962  -4.353  0.00  0.00     0.058 A 
HETATM   15  C   UNK N   1      30.547  23.761  -3.073  0.00  0.00     0.019 A 
HETATM   16  C   UNK N   1      30.900  22.483  -2.638  0.00  0.00     0.001 A 
HETATM   17  C   UNK N   1      30.721  21.385  -3.479  0.00  0.00     0.002 A 
HETATM   18  C   UNK N   1      30.188  21.561  -4.757  0.00  0.00     0.030 A 
BRANCH  14  19
HETATM   19  C   UNK N   1      29.651  25.357  -4.763  0.00  0.00     0.251 C 
HETATM   20  N   UNK N   1      28.995  26.190  -3.929  0.00  0.00    -0.366 N 
HETATM   21  H   UNK N   1      28.741  25.886  -3.027  0.00  0.00     0.159 HD
HETATM   22  H   UNK N   1      28.770  27.104  -4.221  0.00  0.00     0.159 HD
HETATM   23  O   UNK N   1      29.955  25.759  -5.875  0.00  0.00    -0.268 OA
ENDBRANCH  14  19
ENDBRANCH  11  13
ENDBRANCH   4  11
BRANCH   9  24
HETATM   24  C   UNK N   1      25.834  26.653  -6.330  0.00  0.00     0.051 A 
HETATM   25  C   UNK N   1      25.389  27.125  -5.081  0.00  0.00     0.066 A 
HETATM   26  C   UNK N   1      25.963  28.244  -4.485  0.00  0.00     0.067 A 
HETATM   27  C   UNK N   1      27.000  28.916  -5.133  0.00  0.00     0.036 A 
HETATM   28  C   UNK N   1      27.455  28.462  -6.376  0.00  0.00     0.005 A 
HETATM   29  C   UNK N   1      26.875  27.334  -6.973  0.00  0.00     0.030 A 
BRANCH  26  30
HETATM   30  O   UNK N   1      25.518  28.671  -3.292  0.00  0.00    -0.361 OA
HETATM   31  H   UNK N   1      26.117  28.784  -2.581  0.00  0.00     0.217 HD
ENDBRANCH  26  30
ENDBRANCH   9  24
TORSDOF 5
ENDMDL
MODEL 5
REMARK VINA RESULT:      -7.3      8.457     11.590
REMARK  5 active torsions:
REMARK  status: ('A' for Active; 'I' for Inactive)
REMARK       I    between atoms: C_1  and  N_16 
REMARK    1  A    between atoms: C_4  and  N_9 
REMARK    2  A    between atoms: N_9  and  C_10 
REMARK    3  A    between atoms: C_11  and  C_24 
REMARK    4  A    between atoms: N_16  and  C_17 
REMARK    5  A    between atoms: C_21  and  O_23 
REMARK       I    between atoms: C_24  and  N_25 
ROOT
HETATM    1  C   UNK N   1      30.956  17.476   7.949  0.00  0.00     0.684 A 
HETATM    2  N   UNK N   1      29.824  17.529   7.214  0.00  0.00    -0.176 N 
ATOM      3  HN  UNK N   1      29.866  17.241   6.236  1.00  0.00     0.186 HD
HETATM    4  C   UNK N   1      28.646  17.942   7.710  0.00  0.00     0.122 A 
HETATM    5  C   UNK N   1      28.575  18.340   9.050  0.00  0.00     0.066 A 
HETATM    6  C   UNK N   1      29.749  18.286   9.815  0.00  0.00     0.110 A 
HETATM    7  N   UNK N   1      30.918  17.857   9.255  0.00  0.00    -0.202 N 
ATOM      8  HN  UNK N   1      31.767  17.822   9.820  1.00  0.00     0.183 HD
HETATM    9  N   UNK N   1      32.171  17.027   7.357  0.00  0.00    -0.192 N 
HETATM   10  H   UNK N   1      32.978  17.001   7.919  0.00  0.00     0.184 HD
ENDROOT
BRANCH   4  11
HETATM   11  N   UNK N   1      27.541  17.945   6.824  0.00  0.00    -0.341 N 
HETATM   12  H   UNK N   1      26.927  17.184   6.936  0.00  0.00     0.167 HD
BRANCH  11  13
HETATM   13  C   UNK N   1      27.169  18.855   5.806  0.00  0.00     0.049 A 
HETATM   14  C   UNK N   1      27.351  18.479   4.449  0.00  0.00     0.058 A 
HETATM   15  C   UNK N   1      26.983  19.382   3.440  0.00  0.00     0.019 A 
HETATM   16  C   UNK N   1      26.445  20.629   3.758  0.00  0.00     0.001 A 
HETATM   17  C   UNK N   1      26.268  20.993   5.093  0.00  0.00     0.002 A 
HETATM   18  C   UNK N   1      26.628  20.111   6.113  0.00  0.00     0.030 A 
BRANCH  14  19
HETATM   19  C   UNK N   1      27.923  17.155   4.044  0.00  0.00     0.251 C 
HETATM   20  N   UNK N   1      27.204  16.265   3.330  0.00  0.00    -0.366 N 
HETATM   21  H   UNK N   1      26.280  16.478   3.063  0.00  0.00     0.159 HD
HETATM   22  H   UNK N   1      27.601  15.400   3.075  0.00  0.00     0.159 HD
HETATM   23  O   UNK N   1      29.066  16.867   4.362  0.00  0.00    -0.268 OA
ENDBRANCH  14  19
ENDBRANCH  11  13
ENDBRANCH   4  11
BRANCH   9  24
HETATM   24  C   UNK N   1      32.288  16.612   5.990  0.00  0.00     0.051 A 
HETATM   25  C   UNK N   1      32.024  15.287   5.593  0.00  0.00     0.066 A 
HETATM   26  C   UNK N   1      32.141  14.896   4.262  0.00  0.00     0.067 A 
HETATM   27  C   UNK N   1      32.526  15.829   3.299  0.00  0.00     0.036 A 
HETATM   28  C   UNK N   1      32.793  17.149   3.675  0.00  0.00     0.005 A 
HETATM   29  C   UNK N   1      32.674  17.540   5.017  0.00  0.00     0.030 A 
BRANCH  26  30
HETATM   30  O   UNK N   1      31.883  13.625   3.911  0.00  0.00    -0.361 OA
HETATM   31  H   UNK N   1      32.058  13.335   3.039  0.00  0.00     0.217 HD
ENDBRANCH  26  30
ENDBRANCH   9  24
TORSDOF 5
ENDMDL
MODEL 6
REMARK VINA RESULT:      -7.3      7.988      9.962
REMARK  5 active torsions:
REMARK  status: ('A' for Active; 'I' for Inactive)
REMARK       I    between atoms: C_1  and  N_16 
REMARK    1  A    between atoms: C_4  and  N_9 
REMARK    2  A    between atoms: N_9  and  C_10 
REMARK    3  A    between atoms: C_11  and  C_24 
REMARK    4  A    between atoms: N_16  and  C_17 
REMARK    5  A    between atoms: C_21  and  O_23 
REMARK       I    between atoms: C_24  and  N_25 
ROOT
HETATM    1  C   UNK N   1      28.005  19.008   7.650  0.00  0.00     0.684 A 
HETATM    2  N   UNK N   1      28.606  18.108   6.841  0.00  0.00    -0.176 N 
ATOM      3  HN  UNK N   1      28.331  18.077   5.860  1.00  0.00     0.186 HD
HETATM    4  C   UNK N   1      29.548  17.251   7.270  0.00  0.00     0.122 A 
HETATM    5  C   UNK N   1      29.935  17.283   8.614  0.00  0.00     0.066 A 
HETATM    6  C   UNK N   1      29.313  18.217   9.455  0.00  0.00     0.110 A 
HETATM    7  N   UNK N   1      28.361  19.062   8.962  0.00  0.00    -0.202 N 
ATOM      8  HN  UNK N   1      27.914  19.739   9.582  1.00  0.00     0.183 HD
HETATM    9  N   UNK N   1      27.014  19.885   7.126  0.00  0.00    -0.192 N 
HETATM   10  H   UNK N   1      26.595  20.530   7.742  0.00  0.00     0.184 HD
ENDROOT
BRANCH   4  11
HETATM   11  N   UNK N   1      30.092  16.361   6.311  0.00  0.00    -0.341 N 
HETATM   12  H   UNK N   1      29.702  15.457   6.327  0.00  0.00     0.167 HD
BRANCH  11  13
HETATM   13  C   UNK N   1      31.098  16.550   5.335  0.00  0.00     0.049 A 
HETATM   14  C   UNK N   1      30.723  16.626   3.967  0.00  0.00     0.058 A 
HETATM   15  C   UNK N   1      31.722  16.812   3.000  0.00  0.00     0.019 A 
HETATM   16  C   UNK N   1      33.063  16.922   3.368  0.00  0.00     0.001 A 
HETATM   17  C   UNK N   1      33.426  16.847   4.712  0.00  0.00     0.002 A 
HETATM   18  C   UNK N   1      32.449  16.661   5.692  0.00  0.00     0.030 A 
BRANCH  14  19
HETATM   19  C   UNK N   1      29.301  16.515   3.509  0.00  0.00     0.251 C 
HETATM   20  N   UNK N   1      28.900  15.524   2.687  0.00  0.00    -0.366 N 
HETATM   21  H   UNK N   1      29.548  14.851   2.373  0.00  0.00     0.159 HD
HETATM   22  H   UNK N   1      27.959  15.472   2.399  0.00  0.00     0.159 HD
HETATM   23  O   UNK N   1      28.479  17.337   3.883  0.00  0.00    -0.268 OA
ENDBRANCH  14  19
ENDBRANCH  11  13
ENDBRANCH   4  11
BRANCH   9  24
HETATM   24  C   UNK N   1      26.589  19.886   5.758  0.00  0.00     0.051 A 
HETATM   25  C   UNK N   1      25.412  19.231   5.346  0.00  0.00     0.066 A 
HETATM   26  C   UNK N   1      25.010  19.239   4.014  0.00  0.00     0.067 A 
HETATM   27  C   UNK N   1      25.783  19.907   3.063  0.00  0.00     0.036 A 
HETATM   28  C   UNK N   1      26.955  20.563   3.453  0.00  0.00     0.005 A 
HETATM   29  C   UNK N   1      27.357  20.553   4.797  0.00  0.00     0.030 A 
BRANCH  26  30
HETATM   30  O   UNK N   1      23.883  18.606   3.649  0.00  0.00    -0.361 OA
HETATM   31  H   UNK N   1      23.829  17.673   3.709  0.00  0.00     0.217 HD
ENDBRANCH  26  30
ENDBRANCH   9  24
TORSDOF 5
ENDMDL
MODEL 7
REMARK VINA RESULT:      -7.3     17.249     19.339
REMARK  5 active torsions:
REMARK  status: ('A' for Active; 'I' for Inactive)
REMARK       I    between atoms: C_1  and  N_16 
REMARK    1  A    between atoms: C_4  and  N_9 
REMARK    2  A    between atoms: N_9  and  C_10 
REMARK    3  A    between atoms: C_11  and  C_24 
REMARK    4  A    between atoms: N_16  and  C_17 
REMARK    5  A    between atoms: C_21  and  O_23 
REMARK       I    between atoms: C_24  and  N_25 
ROOT
HETATM    1  C   UNK N   1      28.023  22.415  -7.812  0.00  0.00     0.684 A 
HETATM    2  N   UNK N   1      27.391  22.993  -6.767  0.00  0.00    -0.176 N 
ATOM      3  HN  UNK N   1      27.919  23.156  -5.910  1.00  0.00     0.186 HD
HETATM    4  C   UNK N   1      26.099  23.363  -6.805  0.00  0.00     0.122 A 
HETATM    5  C   UNK N   1      25.364  23.144  -7.975  0.00  0.00     0.066 A 
HETATM    6  C   UNK N   1      26.018  22.544  -9.060  0.00  0.00     0.110 A 
HETATM    7  N   UNK N   1      27.333  22.190  -8.963  0.00  0.00    -0.202 N 
ATOM      8  HN  UNK N   1      27.800  21.754  -9.759  1.00  0.00     0.183 HD
HETATM    9  N   UNK N   1      29.394  22.049  -7.701  0.00  0.00    -0.192 N 
HETATM   10  H   UNK N   1      29.826  21.630  -8.480  0.00  0.00     0.184 HD
ENDROOT
BRANCH   4  11
HETATM   11  N   UNK N   1      25.567  23.958  -5.635  0.00  0.00    -0.341 N 
HETATM   12  H   UNK N   1      25.038  23.347  -5.071  0.00  0.00     0.167 HD
BRANCH  11  13
HETATM   13  C   UNK N   1      25.665  25.279  -5.137  0.00  0.00     0.049 A 
HETATM   14  C   UNK N   1      26.508  25.532  -4.023  0.00  0.00     0.058 A 
HETATM   15  C   UNK N   1      26.605  26.842  -3.530  0.00  0.00     0.019 A 
HETATM   16  C   UNK N   1      25.888  27.883  -4.121  0.00  0.00     0.001 A 
HETATM   17  C   UNK N   1      25.062  27.629  -5.215  0.00  0.00     0.002 A 
HETATM   18  C   UNK N   1      24.950  26.332  -5.723  0.00  0.00     0.030 A 
BRANCH  14  19
HETATM   19  C   UNK N   1      27.303  24.458  -3.346  0.00  0.00     0.251 C 
HETATM   20  N   UNK N   1      28.634  24.342  -3.531  0.00  0.00    -0.366 N 
HETATM   21  H   UNK N   1      29.106  24.972  -4.123  0.00  0.00     0.159 HD
HETATM   22  H   UNK N   1      29.135  23.626  -3.075  0.00  0.00     0.159 HD
HETATM   23  O   UNK N   1      26.741  23.664  -2.607  0.00  0.00    -0.268 OA
ENDBRANCH  14  19
ENDBRANCH  11  13
ENDBRANCH   4  11
BRANCH   9  24
HETATM   24  C   UNK N   1      30.184  22.254  -6.523  0.00  0.00     0.051 A 
HETATM   25  C   UNK N   1      30.216  21.312  -5.478  0.00  0.00     0.066 A 
HETATM   26  C   UNK N   1      30.987  21.523  -4.339  0.00  0.00     0.067 A 
HETATM   27  C   UNK N   1      31.745  22.689  -4.223  0.00  0.00     0.036 A 
HETATM   28  C   UNK N   1      31.725  23.637  -5.251  0.00  0.00     0.005 A 
HETATM   29  C   UNK N   1      30.947  23.421  -6.398  0.00  0.00     0.030 A 
BRANCH  26  30
HETATM   30  O   UNK N   1      30.999  20.606  -3.357  0.00  0.00    -0.361 OA
HETATM   31  H   UNK N   1      30.621  19.761  -3.500  0.00  0.00     0.217 HD
ENDBRANCH  26  30
ENDBRANCH   9  24
TORSDOF 5
ENDMDL
MODEL 8
REMARK VINA RESULT:      -7.2     17.641     18.960
REMARK  5 active torsions:
REMARK  status: ('A' for Active; 'I' for Inactive)
REMARK       I    between atoms: C_1  and  N_16 
REMARK    1  A    between atoms: C_4  and  N_9 
REMARK    2  A    between atoms: N_9  and  C_10 
REMARK    3  A    between atoms: C_11  and  C_24 
REMARK    4  A    between atoms: N_16  and  C_17 
REMARK    5  A    between atoms: C_21  and  O_23 
REMARK       I    between atoms: C_24  and  N_25 
ROOT
HETATM    1  C   UNK N   1      25.867  24.419  -7.242  0.00  0.00     0.684 A 
HETATM    2  N   UNK N   1      27.126  24.222  -6.793  0.00  0.00    -0.176 N 
ATOM      3  HN  UNK N   1      27.594  24.988  -6.309  1.00  0.00     0.186 HD
HETATM    4  C   UNK N   1      27.789  23.064  -6.953  0.00  0.00     0.122 A 
HETATM    5  C   UNK N   1      27.158  22.005  -7.614  0.00  0.00     0.066 A 
HETATM    6  C   UNK N   1      25.851  22.208  -8.081  0.00  0.00     0.110 A 
HETATM    7  N   UNK N   1      25.228  23.406  -7.889  0.00  0.00    -0.202 N 
ATOM      8  HN  UNK N   1      24.277  23.544  -8.233  1.00  0.00     0.183 HD
HETATM    9  N   UNK N   1      25.225  25.673  -7.036  0.00  0.00    -0.192 N 
HETATM   10  H   UNK N   1      24.308  25.784  -7.376  0.00  0.00     0.184 HD
ENDROOT
BRANCH   4  11
HETATM   11  N   UNK N   1      29.104  22.999  -6.430  0.00  0.00    -0.341 N 
HETATM   12  H   UNK N   1      29.815  23.113  -7.101  0.00  0.00     0.167 HD
BRANCH  11  13
HETATM   13  C   UNK N   1      29.570  22.798  -5.110  0.00  0.00     0.049 A 
HETATM   14  C   UNK N   1      30.366  21.656  -4.828  0.00  0.00     0.058 A 
HETATM   15  C   UNK N   1      30.827  21.458  -3.518  0.00  0.00     0.019 A 
HETATM   16  C   UNK N   1      30.513  22.363  -2.505  0.00  0.00     0.001 A 
HETATM   17  C   UNK N   1      29.732  23.483  -2.786  0.00  0.00     0.002 A 
HETATM   18  C   UNK N   1      29.261  23.701  -4.083  0.00  0.00     0.030 A 
BRANCH  14  19
HETATM   19  C   UNK N   1      30.737  20.648  -5.873  0.00  0.00     0.251 C 
HETATM   20  N   UNK N   1      32.022  20.304  -6.097  0.00  0.00    -0.366 N 
HETATM   21  H   UNK N   1      32.742  20.718  -5.568  0.00  0.00     0.159 HD
HETATM   22  H   UNK N   1      32.241  19.639  -6.790  0.00  0.00     0.159 HD
HETATM   23  O   UNK N   1      29.862  20.121  -6.542  0.00  0.00    -0.268 OA
ENDBRANCH  14  19
ENDBRANCH  11  13
ENDBRANCH   4  11
BRANCH   9  24
HETATM   24  C   UNK N   1      25.835  26.782  -6.365  0.00  0.00     0.051 A 
HETATM   25  C   UNK N   1      25.374  27.237  -5.115  0.00  0.00     0.066 A 
HETATM   26  C   UNK N   1      25.975  28.316  -4.473  0.00  0.00     0.067 A 
HETATM   27  C   UNK N   1      27.055  28.964  -5.074  0.00  0.00     0.036 A 
HETATM   28  C   UNK N   1      27.527  28.525  -6.316  0.00  0.00     0.005 A 
HETATM   29  C   UNK N   1      26.919  27.438  -6.960  0.00  0.00     0.030 A 
BRANCH  26  30
HETATM   30  O   UNK N   1      25.514  28.729  -3.281  0.00  0.00    -0.361 OA
HETATM   31  H   UNK N   1      25.573  29.633  -3.043  0.00  0.00     0.217 HD
ENDBRANCH  26  30
ENDBRANCH   9  24
TORSDOF 5
ENDMDL
MODEL 9
REMARK VINA RESULT:      -7.1      5.733      7.515
REMARK  5 active torsions:
REMARK  status: ('A' for Active; 'I' for Inactive)
REMARK       I    between atoms: C_1  and  N_16 
REMARK    1  A    between atoms: C_4  and  N_9 
REMARK    2  A    between atoms: N_9  and  C_10 
REMARK    3  A    between atoms: C_11  and  C_24 
REMARK    4  A    between atoms: N_16  and  C_17 
REMARK    5  A    between atoms: C_21  and  O_23 
REMARK       I    between atoms: C_24  and  N_25 
ROOT
HETATM    1  C   UNK N   1      24.860  19.116   4.366  0.00  0.00     0.684 A 
HETATM    2  N   UNK N   1      25.641  18.618   5.349  0.00  0.00    -0.176 N 
ATOM      3  HN  UNK N   1      25.259  17.887   5.949  1.00  0.00     0.186 HD
HETATM    4  C   UNK N   1      26.897  19.040   5.574  0.00  0.00     0.122 A 
HETATM    5  C   UNK N   1      27.432  20.042   4.758  0.00  0.00     0.066 A 
HETATM    6  C   UNK N   1      26.624  20.561   3.737  0.00  0.00     0.110 A 
HETATM    7  N   UNK N   1      25.355  20.092   3.556  0.00  0.00    -0.202 N 
ATOM      8  HN  UNK N   1      24.774  20.475   2.810  1.00  0.00     0.183 HD
HETATM    9  N   UNK N   1      23.538  18.620   4.186  0.00  0.00    -0.192 N 
HETATM   10  H   UNK N   1      22.995  19.004   3.460  0.00  0.00     0.184 HD
ENDROOT
BRANCH   4  11
HETATM   11  N   UNK N   1      27.599  18.428   6.641  0.00  0.00    -0.341 N 
HETATM   12  H   UNK N   1      27.136  18.467   7.509  0.00  0.00     0.167 HD
BRANCH  11  13
HETATM   13  C   UNK N   1      28.852  17.772   6.673  0.00  0.00     0.049 A 
HETATM   14  C   UNK N   1      29.506  17.599   7.921  0.00  0.00     0.058 A 
HETATM   15  C   UNK N   1      30.748  16.947   7.952  0.00  0.00     0.019 A 
HETATM   16  C   UNK N   1      31.336  16.475   6.779  0.00  0.00     0.001 A 
HETATM   17  C   UNK N   1      30.690  16.647   5.555  0.00  0.00     0.002 A 
HETATM   18  C   UNK N   1      29.453  17.293   5.501  0.00  0.00     0.030 A 
BRANCH  14  19
HETATM   19  C   UNK N   1      28.925  18.083   9.215  0.00  0.00     0.251 C 
HETATM   20  N   UNK N   1      29.689  18.688  10.148  0.00  0.00    -0.366 N 
HETATM   21  H   UNK N   1      30.652  18.819   9.988  0.00  0.00     0.159 HD
HETATM   22  H   UNK N   1      29.284  18.998  10.991  0.00  0.00     0.159 HD
HETATM   23  O   UNK N   1      27.734  17.932   9.437  0.00  0.00    -0.268 OA
ENDBRANCH  14  19
ENDBRANCH  11  13
ENDBRANCH   4  11
BRANCH   9  24
HETATM   24  C   UNK N   1      22.950  17.596   4.998  0.00  0.00     0.051 A 
HETATM   25  C   UNK N   1      22.080  17.901   6.062  0.00  0.00     0.066 A 
HETATM   26  C   UNK N   1      21.516  16.896   6.843  0.00  0.00     0.067 A 
HETATM   27  C   UNK N   1      21.814  15.560   6.573  0.00  0.00     0.036 A 
HETATM   28  C   UNK N   1      22.677  15.239   5.519  0.00  0.00     0.005 A 
HETATM   29  C   UNK N   1      23.244  16.253   4.734  0.00  0.00     0.030 A 
BRANCH  26  30
HETATM   30  O   UNK N   1      20.690  17.216   7.852  0.00  0.00    -0.361 OA
HETATM   31  H   UNK N   1      20.453  16.570   8.487  0.00  0.00     0.217 HD
ENDBRANCH  26  30
ENDBRANCH   9  24
TORSDOF 5
ENDMDL
