REMARK  14 active torsions:
REMARK  status: ('A' for Active; 'I' for Inactive)
REMARK    1  A    between atoms: C_1  and  C_3 
REMARK    2  A    between atoms: C_1  and  C_13 
REMARK    3  A    between atoms: C_1  and  C_2 
REMARK    4  A    between atoms: C_2  and  O_11 
REMARK    5  A    between atoms: C_7  and  C_9 
REMARK    6  A    between atoms: C_9  and  N_10 
REMARK    7  A    between atoms: P_14  and  C_13 
REMARK    8  A    between atoms: P_14  and  C_15 
REMARK    9  A    between atoms: P_14  and  O_25 
REMARK   10  A    between atoms: C_15  and  C_16 
REMARK   11  A    between atoms: C_15  and  N_19 
REMARK       I    between atoms: N_19  and  C_20 
REMARK   12  A    between atoms: C_20  and  O_22 
REMARK   13  A    between atoms: O_22  and  C_23 
REMARK   14  A    between atoms: C_23  and  C_26 
ROOT
HETATM    1  P   UNK N   1       0.002   0.085   0.596  0.00  0.00     0.123 P 
HETATM    2  O   UNK N   1       0.112  -1.133  -0.359  0.00  0.00    -0.672 OA
ENDROOT
BRANCH   1   3
HETATM    3  C   UNK N   1       1.359  -0.059   1.887  0.00  0.00     0.116 C 
BRANCH   3   4
HETATM    4  C   UNK N   1       2.808   0.230   1.455  0.00  0.00     0.125 C 
BRANCH   4   5
HETATM    5  C   UNK N   1       3.489  -0.891   0.692  0.00  0.00    -0.043 A 
HETATM    6  C   UNK N   1       4.862  -0.777   0.419  0.00  0.00     0.017 A 
HETATM    7  C   UNK N   1       5.549  -1.802  -0.238  0.00  0.00    -0.041 A 
HETATM    8  C   UNK N   1       4.867  -2.959  -0.620  0.00  0.00     0.009 A 
HETATM    9  C   UNK N   1       3.502  -3.089  -0.349  0.00  0.00     0.001 A 
HETATM   10  C   UNK N   1       2.816  -2.062   0.311  0.00  0.00     0.008 A 
BRANCH   7  11
HETATM   11  C   UNK N   1       7.010  -1.674  -0.504  0.00  0.00     0.150 C 
BRANCH  11  12
HETATM   12  N   UNK N   1       7.266  -0.533  -1.367  0.00  0.00    -0.426 N 
HETATM   13  H   UNK N   1       8.050  -0.288  -1.972  0.00  0.00     0.150 HD
HETATM   14  H   UNK N   1       6.516   0.158  -1.367  0.00  0.00     0.150 HD
ENDBRANCH  11  12
ENDBRANCH   7  11
ENDBRANCH   4   5
BRANCH   4  15
HETATM   15  C   UNK N   1       2.905   1.565   0.755  0.00  0.00     0.148 C 
HETATM   16  O   UNK N   1       2.529   2.576   1.327  0.00  0.00    -0.649 OA
BRANCH  15  17
HETATM   17  O   UNK N   1       3.408   1.659  -0.493  0.00  0.00    -0.776 OA
HETATM   18  H   UNK N   1       3.639   1.389  -1.360  0.00  0.00     0.167 HD
ENDBRANCH  15  17
ENDBRANCH   4  15
ENDBRANCH   3   4
ENDBRANCH   1   3
BRANCH   1  19
HETATM   19  C   UNK N   1      -0.192   1.652  -0.447  0.00  0.00     0.173 C 
BRANCH  19  20
HETATM   20  C   UNK N   1      -0.393   2.901   0.424  0.00  0.00     0.009 C 
HETATM   21  C   UNK N   1      -0.313   4.172  -0.405  0.00  0.00     0.012 C 
HETATM   22  C   UNK N   1      -1.676   2.896   1.233  0.00  0.00     0.012 C 
ENDBRANCH  19  20
BRANCH  19  23
HETATM   23  N   UNK N   1      -1.164   1.557  -1.533  0.00  0.00    -0.323 N 
HETATM   24  C   UNK N   1      -2.474   1.215  -1.457  0.00  0.00     0.361 C 
HETATM   25  O   UNK N   1      -3.134   1.174  -2.488  0.00  0.00    -0.238 OA
HETATM   26  H   UNK N   1      -0.825   1.768  -2.433  0.00  0.00     0.165 HD
BRANCH  24  27
HETATM   27  O   UNK N   1      -3.030   0.817  -0.296  0.00  0.00    -0.299 OA
BRANCH  27  28
HETATM   28  C   UNK N   1      -3.647  -0.414  -0.240  0.00  0.00     0.219 C 
BRANCH  28  29
HETATM   29  C   UNK N   1      -5.078  -0.389   0.162  0.00  0.00    -0.034 A 
HETATM   30  C   UNK N   1      -5.613  -1.547   0.733  0.00  0.00     0.009 A 
HETATM   31  C   UNK N   1      -6.969  -1.615   1.052  0.00  0.00     0.001 A 
HETATM   32  C   UNK N   1      -7.801  -0.524   0.789  0.00  0.00     0.000 A 
HETATM   33  C   UNK N   1      -7.272   0.636   0.212  0.00  0.00     0.001 A 
HETATM   34  C   UNK N   1      -5.911   0.705  -0.108  0.00  0.00     0.009 A 
ENDBRANCH  28  29
ENDBRANCH  27  28
ENDBRANCH  24  27
ENDBRANCH  19  23
ENDBRANCH   1  19
BRANCH   1  35
HETATM   35  O   UNK N   1      -1.443  -0.282   1.478  0.00  0.00    -0.348 OA
HETATM   36  H   UNK N   1      -2.025   0.315   1.973  0.00  0.00     0.218 HD
ENDBRANCH   1  35
TORSDOF 14
