MODEL 1
REMARK VINA RESULT:      -8.8      0.000      0.000
REMARK  6 active torsions:
REMARK  status: ('A' for Active; 'I' for Inactive)
REMARK    1  A    between atoms: C_5  and  S_7 
REMARK    2  A    between atoms: S_7  and  N_10 
REMARK    3  A    between atoms: N_10  and  C_11 
REMARK    4  A    between atoms: C_16  and  O_23 
REMARK    5  A    between atoms: C_18  and  C_29 
REMARK    6  A    between atoms: C_27  and  N_31 
ROOT
HETATM    1  C   UNK N   1      22.379  16.587   5.353  0.00  0.00     0.239 A 
HETATM    2  N   UNK N   1      21.321  17.118   4.678  0.00  0.00    -0.319 N 
ATOM      3  HN  UNK N   1      20.360  16.778   4.629  1.00  0.00     0.169 HD
HETATM    4  C   UNK N   1      21.864  18.211   4.090  0.00  0.00     0.073 A 
HETATM    5  C   UNK N   1      21.264  19.165   3.266  0.00  0.00     0.069 A 
HETATM    6  C   UNK N   1      22.075  20.217   2.772  0.00  0.00     0.071 A 
HETATM    7  C   UNK N   1      23.460  20.269   3.113  0.00  0.00     0.052 A 
HETATM    8  C   UNK N   1      24.034  19.290   3.952  0.00  0.00     0.013 A 
HETATM    9  C   UNK N   1      23.182  18.288   4.415  0.00  0.00     0.117 A 
HETATM   10  O   UNK N   1      23.473  17.289   5.191  0.00  0.00    -0.276 OA
ENDROOT
BRANCH   1  11
HETATM   11  N   UNK N   1      22.376  15.432   6.168  0.00  0.00    -0.245 N 
HETATM   12  H   UNK N   1      22.972  14.709   5.865  0.00  0.00     0.182 HD
BRANCH  11  13
HETATM   13  S   UNK N   1      21.478  15.087   7.632  0.00  0.00     0.267 S 
HETATM   14  O   UNK N   1      20.121  14.690   7.032  0.00  0.00    -0.200 OA
HETATM   15  O   UNK N   1      21.113  16.466   8.201  0.00  0.00    -0.200 OA
BRANCH  13  16
HETATM   16  C   UNK N   1      21.933  13.916   8.925  0.00  0.00     0.103 A 
HETATM   17  C   UNK N   1      20.951  13.477   9.819  0.00  0.00     0.050 A 
HETATM   18  C   UNK N   1      21.262  12.533  10.803  0.00  0.00     0.035 A 
HETATM   19  C   UNK N   1      22.556  12.021  10.900  0.00  0.00     0.025 A 
HETATM   20 Cl   UNK N   1      20.025  11.976  11.907  0.00  0.00    -0.084 Cl
HETATM   21  C   UNK N   1      23.542  12.447  10.012  0.00  0.00     0.027 A 
HETATM   22  C   UNK N   1      23.244  13.385   9.022  0.00  0.00     0.057 A 
HETATM   23 Cl   UNK N   1      24.539  13.831   7.917  0.00  0.00    -0.083 Cl
ENDBRANCH  13  16
ENDBRANCH  11  13
ENDBRANCH   1  11
BRANCH   8  24
HETATM   24  C   UNK N   1      25.478  19.301   4.320  0.00  0.00    -0.021 A 
HETATM   25  C   UNK N   1      26.360  18.371   3.743  0.00  0.00     0.041 A 
HETATM   26  C   UNK N   1      27.715  18.371   4.059  0.00  0.00     0.026 A 
HETATM   27  C   UNK N   1      28.217  19.312   4.959  0.00  0.00     0.029 A 
HETATM   28  C   UNK N   1      27.355  20.246   5.543  0.00  0.00     0.003 A 
HETATM   29  C   UNK N   1      25.989  20.242   5.229  0.00  0.00     0.012 A 
BRANCH  26  30
HETATM   30  N   UNK N   1      28.572  17.422   3.469  0.00  0.00    -0.399 N 
HETATM   31  H   UNK N   1      28.197  16.625   3.029  0.00  0.00     0.156 HD
HETATM   32  H   UNK N   1      29.548  17.556   3.495  0.00  0.00     0.156 HD
ENDBRANCH  26  30
ENDBRANCH   8  24
BRANCH   6  33
HETATM   33  O   UNK N   1      21.515  21.161   1.976  0.00  0.00    -0.356 OA
HETATM   34  C   UNK N   1      20.691  20.858   0.914  0.00  0.00     0.210 C 
ENDBRANCH   6  33
TORSDOF 6
ENDMDL
MODEL 2
REMARK VINA RESULT:      -8.5     12.382     16.109
REMARK  6 active torsions:
REMARK  status: ('A' for Active; 'I' for Inactive)
REMARK    1  A    between atoms: C_5  and  S_7 
REMARK    2  A    between atoms: S_7  and  N_10 
REMARK    3  A    between atoms: N_10  and  C_11 
REMARK    4  A    between atoms: C_16  and  O_23 
REMARK    5  A    between atoms: C_18  and  C_29 
REMARK    6  A    between atoms: C_27  and  N_31 
ROOT
HETATM    1  C   UNK N   1      34.595  14.144  11.658  0.00  0.00     0.239 A 
HETATM    2  N   UNK N   1      34.504  12.859  11.216  0.00  0.00    -0.319 N 
ATOM      3  HN  UNK N   1      34.180  12.516  10.311  1.00  0.00     0.169 HD
HETATM    4  C   UNK N   1      34.954  12.149  12.279  0.00  0.00     0.073 A 
HETATM    5  C   UNK N   1      35.099  10.769  12.426  0.00  0.00     0.069 A 
HETATM    6  C   UNK N   1      35.591  10.282  13.663  0.00  0.00     0.071 A 
HETATM    7  C   UNK N   1      35.909  11.197  14.711  0.00  0.00     0.052 A 
HETATM    8  C   UNK N   1      35.755  12.587  14.528  0.00  0.00     0.013 A 
HETATM    9  C   UNK N   1      35.278  13.004  13.285  0.00  0.00     0.117 A 
HETATM   10  O   UNK N   1      35.056  14.218  12.882  0.00  0.00    -0.276 OA
ENDROOT
BRANCH   1  11
HETATM   11  N   UNK N   1      34.270  15.317  10.938  0.00  0.00    -0.245 N 
HETATM   12  H   UNK N   1      33.427  15.748  11.206  0.00  0.00     0.182 HD
BRANCH  11  13
HETATM   13  S   UNK N   1      35.134  16.121   9.643  0.00  0.00     0.267 S 
HETATM   14  O   UNK N   1      36.520  15.477   9.798  0.00  0.00    -0.200 OA
HETATM   15  O   UNK N   1      35.440  17.524  10.189  0.00  0.00    -0.200 OA
BRANCH  13  16
HETATM   16  C   UNK N   1      34.676  16.155   7.900  0.00  0.00     0.103 A 
HETATM   17  C   UNK N   1      35.265  15.237   7.025  0.00  0.00     0.050 A 
HETATM   18  C   UNK N   1      34.896  15.206   5.677  0.00  0.00     0.035 A 
HETATM   19  C   UNK N   1      33.935  16.095   5.193  0.00  0.00     0.025 A 
HETATM   20 Cl   UNK N   1      35.625  14.044   4.593  0.00  0.00    -0.084 Cl
HETATM   21  C   UNK N   1      33.336  17.011   6.055  0.00  0.00     0.027 A 
HETATM   22  C   UNK N   1      33.692  17.049   7.405  0.00  0.00     0.057 A 
HETATM   23 Cl   UNK N   1      32.854  18.208   8.428  0.00  0.00    -0.083 Cl
ENDBRANCH  13  16
ENDBRANCH  11  13
ENDBRANCH   1  11
BRANCH   8  24
HETATM   24  C   UNK N   1      36.064  13.574  15.601  0.00  0.00    -0.021 A 
HETATM   25  C   UNK N   1      35.421  13.483  16.848  0.00  0.00     0.041 A 
HETATM   26  C   UNK N   1      35.703  14.382  17.872  0.00  0.00     0.026 A 
HETATM   27  C   UNK N   1      36.645  15.392  17.667  0.00  0.00     0.029 A 
HETATM   28  C   UNK N   1      37.296  15.497  16.433  0.00  0.00     0.003 A 
HETATM   29  C   UNK N   1      37.006  14.595  15.401  0.00  0.00     0.012 A 
BRANCH  26  30
HETATM   30  N   UNK N   1      35.038  14.269  19.108  0.00  0.00    -0.399 N 
HETATM   31  H   UNK N   1      35.504  13.884  19.885  0.00  0.00     0.156 HD
HETATM   32  H   UNK N   1      34.106  14.576  19.196  0.00  0.00     0.156 HD
ENDBRANCH  26  30
ENDBRANCH   8  24
BRANCH   6  33
HETATM   33  O   UNK N   1      35.748   8.946  13.828  0.00  0.00    -0.356 OA
HETATM   34  C   UNK N   1      35.854   8.347  15.065  0.00  0.00     0.210 C 
ENDBRANCH   6  33
TORSDOF 6
ENDMDL
MODEL 3
REMARK VINA RESULT:      -8.5      0.907      1.692
REMARK  6 active torsions:
REMARK  status: ('A' for Active; 'I' for Inactive)
REMARK    1  A    between atoms: C_5  and  S_7 
REMARK    2  A    between atoms: S_7  and  N_10 
REMARK    3  A    between atoms: N_10  and  C_11 
REMARK    4  A    between atoms: C_16  and  O_23 
REMARK    5  A    between atoms: C_18  and  C_29 
REMARK    6  A    between atoms: C_27  and  N_31 
ROOT
HETATM    1  C   UNK N   1      22.468  16.896   5.488  0.00  0.00     0.239 A 
HETATM    2  N   UNK N   1      21.406  17.376   4.783  0.00  0.00    -0.319 N 
ATOM      3  HN  UNK N   1      20.446  17.031   4.761  1.00  0.00     0.169 HD
HETATM    4  C   UNK N   1      21.943  18.429   4.120  0.00  0.00     0.073 A 
HETATM    5  C   UNK N   1      21.337  19.322   3.235  0.00  0.00     0.069 A 
HETATM    6  C   UNK N   1      22.143  20.341   2.667  0.00  0.00     0.071 A 
HETATM    7  C   UNK N   1      23.529  20.420   2.998  0.00  0.00     0.052 A 
HETATM    8  C   UNK N   1      24.109  19.503   3.899  0.00  0.00     0.013 A 
HETATM    9  C   UNK N   1      23.262  18.531   4.434  0.00  0.00     0.117 A 
HETATM   10  O   UNK N   1      23.560  17.588   5.274  0.00  0.00    -0.276 OA
ENDROOT
BRANCH   1  11
HETATM   11  N   UNK N   1      22.472  15.799   6.380  0.00  0.00    -0.245 N 
HETATM   12  H   UNK N   1      23.219  15.169   6.259  0.00  0.00     0.182 HD
BRANCH  11  13
HETATM   13  S   UNK N   1      21.356  15.387   7.666  0.00  0.00     0.267 S 
HETATM   14  O   UNK N   1      20.103  15.051   6.842  0.00  0.00    -0.200 OA
HETATM   15  O   UNK N   1      20.922  16.738   8.254  0.00  0.00    -0.200 OA
BRANCH  13  16
HETATM   16  C   UNK N   1      21.594  14.135   8.940  0.00  0.00     0.103 A 
HETATM   17  C   UNK N   1      22.835  13.497   9.041  0.00  0.00     0.050 A 
HETATM   18  C   UNK N   1      23.066  12.555  10.049  0.00  0.00     0.035 A 
HETATM   19  C   UNK N   1      22.059  12.244  10.963  0.00  0.00     0.025 A 
HETATM   20 Cl   UNK N   1      24.625  11.773  10.177  0.00  0.00    -0.084 Cl
HETATM   21  C   UNK N   1      20.821  12.878  10.877  0.00  0.00     0.027 A 
HETATM   22  C   UNK N   1      20.578  13.824   9.879  0.00  0.00     0.057 A 
HETATM   23 Cl   UNK N   1      19.001  14.604   9.873  0.00  0.00    -0.083 Cl
ENDBRANCH  13  16
ENDBRANCH  11  13
ENDBRANCH   1  11
BRANCH   8  24
HETATM   24  C   UNK N   1      25.554  19.543   4.261  0.00  0.00    -0.021 A 
HETATM   25  C   UNK N   1      26.431  18.559   3.772  0.00  0.00     0.041 A 
HETATM   26  C   UNK N   1      27.787  18.583   4.083  0.00  0.00     0.026 A 
HETATM   27  C   UNK N   1      28.296  19.604   4.887  0.00  0.00     0.029 A 
HETATM   28  C   UNK N   1      27.439  20.593   5.382  0.00  0.00     0.003 A 
HETATM   29  C   UNK N   1      26.072  20.564   5.074  0.00  0.00     0.012 A 
BRANCH  26  30
HETATM   30  N   UNK N   1      28.639  17.579   3.584  0.00  0.00    -0.399 N 
HETATM   31  H   UNK N   1      28.417  17.117   2.742  0.00  0.00     0.156 HD
HETATM   32  H   UNK N   1      29.458  17.338   4.076  0.00  0.00     0.156 HD
ENDBRANCH  26  30
ENDBRANCH   8  24
BRANCH   6  33
HETATM   33  O   UNK N   1      21.577  21.226   1.811  0.00  0.00    -0.356 OA
HETATM   34  C   UNK N   1      20.599  20.878   0.905  0.00  0.00     0.210 C 
ENDBRANCH   6  33
TORSDOF 6
ENDMDL
MODEL 4
REMARK VINA RESULT:      -8.5     12.292     15.807
REMARK  6 active torsions:
REMARK  status: ('A' for Active; 'I' for Inactive)
REMARK    1  A    between atoms: C_5  and  S_7 
REMARK    2  A    between atoms: S_7  and  N_10 
REMARK    3  A    between atoms: N_10  and  C_11 
REMARK    4  A    between atoms: C_16  and  O_23 
REMARK    5  A    between atoms: C_18  and  C_29 
REMARK    6  A    between atoms: C_27  and  N_31 
ROOT
HETATM    1  C   UNK N   1      34.874  14.408  11.628  0.00  0.00     0.239 A 
HETATM    2  N   UNK N   1      35.174  13.218  11.037  0.00  0.00    -0.319 N 
ATOM      3  HN  UNK N   1      34.957  12.901  10.092  1.00  0.00     0.169 HD
HETATM    4  C   UNK N   1      35.834  12.559  12.020  0.00  0.00     0.073 A 
HETATM    5  C   UNK N   1      36.395  11.281  12.009  0.00  0.00     0.069 A 
HETATM    6  C   UNK N   1      37.030  10.826  13.192  0.00  0.00     0.071 A 
HETATM    7  C   UNK N   1      37.069  11.664  14.347  0.00  0.00     0.052 A 
HETATM    8  C   UNK N   1      36.494  12.952  14.323  0.00  0.00     0.013 A 
HETATM    9  C   UNK N   1      35.896  13.347  13.127  0.00  0.00     0.117 A 
HETATM   10  O   UNK N   1      35.307  14.474  12.863  0.00  0.00    -0.276 OA
ENDROOT
BRANCH   1  11
HETATM   11  N   UNK N   1      34.196  15.502  11.042  0.00  0.00    -0.245 N 
HETATM   12  H   UNK N   1      33.481  15.892  11.596  0.00  0.00     0.182 HD
BRANCH  11  13
HETATM   13  S   UNK N   1      34.429  16.271   9.486  0.00  0.00     0.267 S 
HETATM   14  O   UNK N   1      35.534  15.377   8.903  0.00  0.00    -0.200 OA
HETATM   15  O   UNK N   1      35.252  17.531   9.792  0.00  0.00    -0.200 OA
BRANCH  13  16
HETATM   16  C   UNK N   1      33.170  16.569   8.231  0.00  0.00     0.103 A 
HETATM   17  C   UNK N   1      33.560  17.059   6.981  0.00  0.00     0.050 A 
HETATM   18  C   UNK N   1      32.612  17.256   5.971  0.00  0.00     0.035 A 
HETATM   19  C   UNK N   1      31.268  16.964   6.204  0.00  0.00     0.025 A 
HETATM   20 Cl   UNK N   1      33.110  17.855   4.405  0.00  0.00    -0.084 Cl
HETATM   21  C   UNK N   1      30.868  16.468   7.443  0.00  0.00     0.027 A 
HETATM   22  C   UNK N   1      31.804  16.263   8.458  0.00  0.00     0.057 A 
HETATM   23 Cl   UNK N   1      31.215  15.594   9.975  0.00  0.00    -0.083 Cl
ENDBRANCH  13  16
ENDBRANCH  11  13
ENDBRANCH   1  11
BRANCH   8  24
HETATM   24  C   UNK N   1      36.502  13.852  15.510  0.00  0.00    -0.021 A 
HETATM   25  C   UNK N   1      35.768  13.509  16.659  0.00  0.00     0.041 A 
HETATM   26  C   UNK N   1      35.771  14.325  17.787  0.00  0.00     0.026 A 
HETATM   27  C   UNK N   1      36.519  15.503  17.788  0.00  0.00     0.029 A 
HETATM   28  C   UNK N   1      37.258  15.860  16.654  0.00  0.00     0.003 A 
HETATM   29  C   UNK N   1      37.249  15.041  15.518  0.00  0.00     0.012 A 
BRANCH  26  30
HETATM   30  N   UNK N   1      35.020  13.958  18.920  0.00  0.00    -0.399 N 
HETATM   31  H   UNK N   1      34.250  14.506  19.199  0.00  0.00     0.156 HD
HETATM   32  H   UNK N   1      35.263  13.154  19.434  0.00  0.00     0.156 HD
ENDBRANCH  26  30
ENDBRANCH   8  24
BRANCH   6  33
HETATM   33  O   UNK N   1      37.591   9.592  13.204  0.00  0.00    -0.356 OA
HETATM   34  C   UNK N   1      36.857   8.430  13.098  0.00  0.00     0.210 C 
ENDBRANCH   6  33
TORSDOF 6
ENDMDL
MODEL 5
REMARK VINA RESULT:      -8.3      9.849     12.189
REMARK  6 active torsions:
REMARK  status: ('A' for Active; 'I' for Inactive)
REMARK    1  A    between atoms: C_5  and  S_7 
REMARK    2  A    between atoms: S_7  and  N_10 
REMARK    3  A    between atoms: N_10  and  C_11 
REMARK    4  A    between atoms: C_16  and  O_23 
REMARK    5  A    between atoms: C_18  and  C_29 
REMARK    6  A    between atoms: C_27  and  N_31 
ROOT
HETATM    1  C   UNK N   1      33.796  14.736   9.471  0.00  0.00     0.239 A 
HETATM    2  N   UNK N   1      34.584  14.452   8.396  0.00  0.00    -0.319 N 
ATOM      3  HN  UNK N   1      35.441  13.899   8.361  1.00  0.00     0.169 HD
HETATM    4  C   UNK N   1      33.944  15.088   7.385  0.00  0.00     0.073 A 
HETATM    5  C   UNK N   1      34.277  15.159   6.031  0.00  0.00     0.069 A 
HETATM    6  C   UNK N   1      33.428  15.910   5.179  0.00  0.00     0.071 A 
HETATM    7  C   UNK N   1      32.284  16.572   5.718  0.00  0.00     0.052 A 
HETATM    8  C   UNK N   1      31.975  16.477   7.091  0.00  0.00     0.013 A 
HETATM    9  C   UNK N   1      32.841  15.714   7.875  0.00  0.00     0.117 A 
HETATM   10  O   UNK N   1      32.768  15.481   9.150  0.00  0.00    -0.276 OA
ENDROOT
BRANCH   1  11
HETATM   11  N   UNK N   1      33.984  14.301  10.803  0.00  0.00    -0.245 N 
HETATM   12  H   UNK N   1      33.198  14.400  11.387  0.00  0.00     0.182 HD
BRANCH  11  13
HETATM   13  S   UNK N   1      35.398  13.613  11.575  0.00  0.00     0.267 S 
HETATM   14  O   UNK N   1      36.497  14.503  10.975  0.00  0.00    -0.200 OA
HETATM   15  O   UNK N   1      35.671  12.313  10.806  0.00  0.00    -0.200 OA
BRANCH  13  16
HETATM   16  C   UNK N   1      35.674  13.426  13.347  0.00  0.00     0.103 A 
HETATM   17  C   UNK N   1      36.416  14.399  14.025  0.00  0.00     0.050 A 
HETATM   18  C   UNK N   1      36.607  14.307  15.407  0.00  0.00     0.035 A 
HETATM   19  C   UNK N   1      36.059  13.242  16.122  0.00  0.00     0.025 A 
HETATM   20 Cl   UNK N   1      37.522  15.536  16.250  0.00  0.00    -0.084 Cl
HETATM   21  C   UNK N   1      35.313  12.269  15.459  0.00  0.00     0.027 A 
HETATM   22  C   UNK N   1      35.110  12.351  14.080  0.00  0.00     0.057 A 
HETATM   23 Cl   UNK N   1      34.120  11.103  13.334  0.00  0.00    -0.083 Cl
ENDBRANCH  13  16
ENDBRANCH  11  13
ENDBRANCH   1  11
BRANCH   8  24
HETATM   24  C   UNK N   1      30.799  17.164   7.694  0.00  0.00    -0.021 A 
HETATM   25  C   UNK N   1      29.502  16.881   7.229  0.00  0.00     0.041 A 
HETATM   26  C   UNK N   1      28.386  17.498   7.786  0.00  0.00     0.026 A 
HETATM   27  C   UNK N   1      28.547  18.409   8.830  0.00  0.00     0.029 A 
HETATM   28  C   UNK N   1      29.829  18.702   9.308  0.00  0.00     0.003 A 
HETATM   29  C   UNK N   1      30.953  18.085   8.742  0.00  0.00     0.012 A 
BRANCH  26  30
HETATM   30  N   UNK N   1      27.101  17.199   7.293  0.00  0.00    -0.399 N 
HETATM   31  H   UNK N   1      26.397  16.891   7.908  0.00  0.00     0.156 HD
HETATM   32  H   UNK N   1      26.906  17.300   6.333  0.00  0.00     0.156 HD
ENDBRANCH  26  30
ENDBRANCH   8  24
BRANCH   6  33
HETATM   33  O   UNK N   1      33.724  15.986   3.859  0.00  0.00    -0.356 OA
HETATM   34  C   UNK N   1      33.812  14.881   3.041  0.00  0.00     0.210 C 
ENDBRANCH   6  33
TORSDOF 6
ENDMDL
MODEL 6
REMARK VINA RESULT:      -8.2      3.843      8.129
REMARK  6 active torsions:
REMARK  status: ('A' for Active; 'I' for Inactive)
REMARK    1  A    between atoms: C_5  and  S_7 
REMARK    2  A    between atoms: S_7  and  N_10 
REMARK    3  A    between atoms: N_10  and  C_11 
REMARK    4  A    between atoms: C_16  and  O_23 
REMARK    5  A    between atoms: C_18  and  C_29 
REMARK    6  A    between atoms: C_27  and  N_31 
ROOT
HETATM    1  C   UNK N   1      23.397  15.392   6.192  0.00  0.00     0.239 A 
HETATM    2  N   UNK N   1      22.407  16.255   5.829  0.00  0.00    -0.319 N 
ATOM      3  HN  UNK N   1      22.378  16.896   5.036  1.00  0.00     0.169 HD
HETATM    4  C   UNK N   1      21.470  16.046   6.785  0.00  0.00     0.073 A 
HETATM    5  C   UNK N   1      20.218  16.644   6.945  0.00  0.00     0.069 A 
HETATM    6  C   UNK N   1      19.429  16.243   8.053  0.00  0.00     0.071 A 
HETATM    7  C   UNK N   1      19.930  15.267   8.967  0.00  0.00     0.052 A 
HETATM    8  C   UNK N   1      21.198  14.681   8.774  0.00  0.00     0.013 A 
HETATM    9  C   UNK N   1      21.920  15.107   7.659  0.00  0.00     0.117 A 
HETATM   10  O   UNK N   1      23.097  14.718   7.275  0.00  0.00    -0.276 OA
ENDROOT
BRANCH   1  11
HETATM   11  N   UNK N   1      24.625  15.176   5.524  0.00  0.00    -0.245 N 
HETATM   12  H   UNK N   1      24.649  14.379   4.948  0.00  0.00     0.182 HD
BRANCH  11  13
HETATM   13  S   UNK N   1      26.108  16.107   5.562  0.00  0.00     0.267 S 
HETATM   14  O   UNK N   1      27.076  15.105   4.915  0.00  0.00    -0.200 OA
HETATM   15  O   UNK N   1      26.586  16.022   7.020  0.00  0.00    -0.200 OA
BRANCH  13  16
HETATM   16  C   UNK N   1      26.372  17.744   4.855  0.00  0.00     0.103 A 
HETATM   17  C   UNK N   1      25.305  18.391   4.225  0.00  0.00     0.050 A 
HETATM   18  C   UNK N   1      25.464  19.681   3.707  0.00  0.00     0.035 A 
HETATM   19  C   UNK N   1      26.693  20.332   3.816  0.00  0.00     0.025 A 
HETATM   20 Cl   UNK N   1      24.120  20.490   2.935  0.00  0.00    -0.084 Cl
HETATM   21  C   UNK N   1      27.763  19.701   4.447  0.00  0.00     0.027 A 
HETATM   22  C   UNK N   1      27.616  18.416   4.972  0.00  0.00     0.057 A 
HETATM   23 Cl   UNK N   1      29.007  17.713   5.789  0.00  0.00    -0.083 Cl
ENDBRANCH  13  16
ENDBRANCH  11  13
ENDBRANCH   1  11
BRANCH   8  24
HETATM   24  C   UNK N   1      21.761  13.669   9.712  0.00  0.00    -0.021 A 
HETATM   25  C   UNK N   1      23.153  13.513   9.828  0.00  0.00     0.041 A 
HETATM   26  C   UNK N   1      23.704  12.586  10.707  0.00  0.00     0.026 A 
HETATM   27  C   UNK N   1      22.866  11.797  11.497  0.00  0.00     0.029 A 
HETATM   28  C   UNK N   1      21.478  11.939  11.396  0.00  0.00     0.003 A 
HETATM   29  C   UNK N   1      20.924  12.868  10.506  0.00  0.00     0.012 A 
BRANCH  26  30
HETATM   30  N   UNK N   1      25.103  12.449  10.796  0.00  0.00    -0.399 N 
HETATM   31  H   UNK N   1      25.686  13.223  10.622  0.00  0.00     0.156 HD
HETATM   32  H   UNK N   1      25.498  11.578  11.033  0.00  0.00     0.156 HD
ENDBRANCH  26  30
ENDBRANCH   8  24
BRANCH   6  33
HETATM   33  O   UNK N   1      18.207  16.802   8.226  0.00  0.00    -0.356 OA
HETATM   34  C   UNK N   1      17.793  17.355   9.418  0.00  0.00     0.210 C 
ENDBRANCH   6  33
TORSDOF 6
ENDMDL
MODEL 7
REMARK VINA RESULT:      -8.1      7.211     11.002
REMARK  6 active torsions:
REMARK  status: ('A' for Active; 'I' for Inactive)
REMARK    1  A    between atoms: C_5  and  S_7 
REMARK    2  A    between atoms: S_7  and  N_10 
REMARK    3  A    between atoms: N_10  and  C_11 
REMARK    4  A    between atoms: C_16  and  O_23 
REMARK    5  A    between atoms: C_18  and  C_29 
REMARK    6  A    between atoms: C_27  and  N_31 
ROOT
HETATM    1  C   UNK N   1      31.604  15.962   9.370  0.00  0.00     0.239 A 
HETATM    2  N   UNK N   1      32.482  15.346  10.210  0.00  0.00    -0.319 N 
ATOM      3  HN  UNK N   1      32.389  15.167  11.211  1.00  0.00     0.169 HD
HETATM    4  C   UNK N   1      33.508  15.029   9.384  0.00  0.00     0.073 A 
HETATM    5  C   UNK N   1      34.707  14.375   9.671  0.00  0.00     0.069 A 
HETATM    6  C   UNK N   1      35.624  14.176   8.607  0.00  0.00     0.071 A 
HETATM    7  C   UNK N   1      35.309  14.650   7.298  0.00  0.00     0.052 A 
HETATM    8  C   UNK N   1      34.086  15.303   7.042  0.00  0.00     0.013 A 
HETATM    9  C   UNK N   1      33.221  15.458   8.126  0.00  0.00     0.117 A 
HETATM   10  O   UNK N   1      32.052  16.021   8.140  0.00  0.00    -0.276 OA
ENDROOT
BRANCH   1  11
HETATM   11  N   UNK N   1      30.333  16.485   9.701  0.00  0.00    -0.245 N 
HETATM   12  H   UNK N   1      29.991  16.216  10.583  0.00  0.00     0.182 HD
BRANCH  11  13
HETATM   13  S   UNK N   1      29.274  17.538   8.785  0.00  0.00     0.267 S 
HETATM   14  O   UNK N   1      29.800  18.910   9.233  0.00  0.00    -0.200 OA
HETATM   15  O   UNK N   1      27.941  17.512   9.548  0.00  0.00    -0.200 OA
BRANCH  13  16
HETATM   16  C   UNK N   1      29.035  17.538   6.998  0.00  0.00     0.103 A 
HETATM   17  C   UNK N   1      29.545  16.475   6.246  0.00  0.00     0.050 A 
HETATM   18  C   UNK N   1      29.335  16.421   4.864  0.00  0.00     0.035 A 
HETATM   19  C   UNK N   1      28.614  17.430   4.225  0.00  0.00     0.025 A 
HETATM   20 Cl   UNK N   1      29.963  15.081   3.932  0.00  0.00    -0.084 Cl
HETATM   21  C   UNK N   1      28.095  18.491   4.964  0.00  0.00     0.027 A 
HETATM   22  C   UNK N   1      28.293  18.554   6.345  0.00  0.00     0.057 A 
HETATM   23 Cl   UNK N   1      27.566  19.907   7.203  0.00  0.00    -0.083 Cl
ENDBRANCH  13  16
ENDBRANCH  11  13
ENDBRANCH   1  11
BRANCH   8  24
HETATM   24  C   UNK N   1      33.726  15.824   5.693  0.00  0.00    -0.021 A 
HETATM   25  C   UNK N   1      33.878  15.007   4.559  0.00  0.00     0.041 A 
HETATM   26  C   UNK N   1      33.534  15.464   3.291  0.00  0.00     0.026 A 
HETATM   27  C   UNK N   1      33.022  16.753   3.133  0.00  0.00     0.029 A 
HETATM   28  C   UNK N   1      32.862  17.580   4.251  0.00  0.00     0.003 A 
HETATM   29  C   UNK N   1      33.214  17.121   5.527  0.00  0.00     0.012 A 
BRANCH  26  30
HETATM   30  N   UNK N   1      33.704  14.625   2.173  0.00  0.00    -0.399 N 
HETATM   31  H   UNK N   1      34.584  14.558   1.736  0.00  0.00     0.156 HD
HETATM   32  H   UNK N   1      32.943  14.104   1.827  0.00  0.00     0.156 HD
ENDBRANCH  26  30
ENDBRANCH   8  24
BRANCH   6  33
HETATM   33  O   UNK N   1      36.792  13.536   8.858  0.00  0.00    -0.356 OA
HETATM   34  C   UNK N   1      37.840  14.119   9.537  0.00  0.00     0.210 C 
ENDBRANCH   6  33
TORSDOF 6
ENDMDL
MODEL 8
REMARK VINA RESULT:      -7.8     10.363     13.969
REMARK  6 active torsions:
REMARK  status: ('A' for Active; 'I' for Inactive)
REMARK    1  A    between atoms: C_5  and  S_7 
REMARK    2  A    between atoms: S_7  and  N_10 
REMARK    3  A    between atoms: N_10  and  C_11 
REMARK    4  A    between atoms: C_16  and  O_23 
REMARK    5  A    between atoms: C_18  and  C_29 
REMARK    6  A    between atoms: C_27  and  N_31 
ROOT
HETATM    1  C   UNK N   1      34.045  15.142   9.837  0.00  0.00     0.239 A 
HETATM    2  N   UNK N   1      35.179  15.260   9.092  0.00  0.00    -0.319 N 
ATOM      3  HN  UNK N   1      35.342  15.832   8.263  1.00  0.00     0.169 HD
HETATM    4  C   UNK N   1      36.038  14.426   9.728  0.00  0.00     0.073 A 
HETATM    5  C   UNK N   1      37.368  14.127   9.429  0.00  0.00     0.069 A 
HETATM    6  C   UNK N   1      38.043  13.200  10.264  0.00  0.00     0.071 A 
HETATM    7  C   UNK N   1      37.355  12.600  11.361  0.00  0.00     0.052 A 
HETATM    8  C   UNK N   1      36.011  12.928  11.637  0.00  0.00     0.013 A 
HETATM    9  C   UNK N   1      35.406  13.854  10.787  0.00  0.00     0.117 A 
HETATM   10  O   UNK N   1      34.192  14.310  10.838  0.00  0.00    -0.276 OA
ENDROOT
BRANCH   1  11
HETATM   11  N   UNK N   1      32.820  15.817   9.634  0.00  0.00    -0.245 N 
HETATM   12  H   UNK N   1      32.177  15.742  10.375  0.00  0.00     0.182 HD
BRANCH  11  13
HETATM   13  S   UNK N   1      32.268  16.766   8.268  0.00  0.00     0.267 S 
HETATM   14  O   UNK N   1      33.164  16.196   7.159  0.00  0.00    -0.200 OA
HETATM   15  O   UNK N   1      32.930  18.140   8.454  0.00  0.00    -0.200 OA
BRANCH  13  16
HETATM   16  C   UNK N   1      30.575  16.904   7.665  0.00  0.00     0.103 A 
HETATM   17  C   UNK N   1      30.191  16.163   6.543  0.00  0.00     0.050 A 
HETATM   18  C   UNK N   1      28.873  16.211   6.079  0.00  0.00     0.035 A 
HETATM   19  C   UNK N   1      27.928  17.001   6.734  0.00  0.00     0.025 A 
HETATM   20 Cl   UNK N   1      28.398  15.269   4.685  0.00  0.00    -0.084 Cl
HETATM   21  C   UNK N   1      28.295  17.739   7.857  0.00  0.00     0.027 A 
HETATM   22  C   UNK N   1      29.607  17.696   8.334  0.00  0.00     0.057 A 
HETATM   23 Cl   UNK N   1      29.970  18.627   9.782  0.00  0.00    -0.083 Cl
ENDBRANCH  13  16
ENDBRANCH  11  13
ENDBRANCH   1  11
BRANCH   8  24
HETATM   24  C   UNK N   1      35.254  12.314  12.765  0.00  0.00    -0.021 A 
HETATM   25  C   UNK N   1      35.245  12.932  14.027  0.00  0.00     0.041 A 
HETATM   26  C   UNK N   1      34.534  12.387  15.092  0.00  0.00     0.026 A 
HETATM   27  C   UNK N   1      33.808  11.208  14.909  0.00  0.00     0.029 A 
HETATM   28  C   UNK N   1      33.805  10.579  13.659  0.00  0.00     0.003 A 
HETATM   29  C   UNK N   1      34.526  11.126  12.590  0.00  0.00     0.012 A 
BRANCH  26  30
HETATM   30  N   UNK N   1      34.550  13.026  16.346  0.00  0.00    -0.399 N 
HETATM   31  H   UNK N   1      35.022  13.883  16.457  0.00  0.00     0.156 HD
HETATM   32  H   UNK N   1      34.088  12.616  17.114  0.00  0.00     0.156 HD
ENDBRANCH  26  30
ENDBRANCH   8  24
BRANCH   6  33
HETATM   33  O   UNK N   1      39.337  12.899  10.000  0.00  0.00    -0.356 OA
HETATM   34  C   UNK N   1      39.760  12.384   8.794  0.00  0.00     0.210 C 
ENDBRANCH   6  33
TORSDOF 6
ENDMDL
MODEL 9
REMARK VINA RESULT:      -7.8      3.495      7.995
REMARK  6 active torsions:
REMARK  status: ('A' for Active; 'I' for Inactive)
REMARK    1  A    between atoms: C_5  and  S_7 
REMARK    2  A    between atoms: S_7  and  N_10 
REMARK    3  A    between atoms: N_10  and  C_11 
REMARK    4  A    between atoms: C_16  and  O_23 
REMARK    5  A    between atoms: C_18  and  C_29 
REMARK    6  A    between atoms: C_27  and  N_31 
ROOT
HETATM    1  C   UNK N   1      22.964  15.939   5.816  0.00  0.00     0.239 A 
HETATM    2  N   UNK N   1      21.958  16.854   5.891  0.00  0.00    -0.319 N 
ATOM      3  HN  UNK N   1      21.795  17.673   5.305  1.00  0.00     0.169 HD
HETATM    4  C   UNK N   1      21.228  16.405   6.941  0.00  0.00     0.073 A 
HETATM    5  C   UNK N   1      20.063  16.931   7.500  0.00  0.00     0.069 A 
HETATM    6  C   UNK N   1      19.501  16.258   8.615  0.00  0.00     0.071 A 
HETATM    7  C   UNK N   1      20.135  15.090   9.135  0.00  0.00     0.052 A 
HETATM    8  C   UNK N   1      21.311  14.583   8.543  0.00  0.00     0.013 A 
HETATM    9  C   UNK N   1      21.808  15.281   7.442  0.00  0.00     0.117 A 
HETATM   10  O   UNK N   1      22.863  15.012   6.737  0.00  0.00    -0.276 OA
ENDROOT
BRANCH   1  11
HETATM   11  N   UNK N   1      24.018  15.908   4.874  0.00  0.00    -0.245 N 
HETATM   12  H   UNK N   1      24.182  15.030   4.462  0.00  0.00     0.182 HD
BRANCH  11  13
HETATM   13  S   UNK N   1      25.079  17.191   4.327  0.00  0.00     0.267 S 
HETATM   14  O   UNK N   1      24.041  18.211   3.834  0.00  0.00    -0.200 OA
HETATM   15  O   UNK N   1      25.620  16.701   2.976  0.00  0.00    -0.200 OA
BRANCH  13  16
HETATM   16  C   UNK N   1      26.340  18.036   5.299  0.00  0.00     0.103 A 
HETATM   17  C   UNK N   1      26.318  19.432   5.374  0.00  0.00     0.050 A 
HETATM   18  C   UNK N   1      27.254  20.114   6.158  0.00  0.00     0.035 A 
HETATM   19  C   UNK N   1      28.218  19.405   6.874  0.00  0.00     0.025 A 
HETATM   20 Cl   UNK N   1      27.210  21.859   6.258  0.00  0.00    -0.084 Cl
HETATM   21  C   UNK N   1      28.247  18.013   6.813  0.00  0.00     0.027 A 
HETATM   22  C   UNK N   1      27.316  17.319   6.038  0.00  0.00     0.057 A 
HETATM   23 Cl   UNK N   1      27.400  15.562   6.055  0.00  0.00    -0.083 Cl
ENDBRANCH  13  16
ENDBRANCH  11  13
ENDBRANCH   1  11
BRANCH   8  24
HETATM   24  C   UNK N   1      22.010  13.374   9.063  0.00  0.00    -0.021 A 
HETATM   25  C   UNK N   1      22.003  13.095  10.441  0.00  0.00     0.041 A 
HETATM   26  C   UNK N   1      22.635  11.965  10.951  0.00  0.00     0.026 A 
HETATM   27  C   UNK N   1      23.284  11.084  10.084  0.00  0.00     0.029 A 
HETATM   28  C   UNK N   1      23.300  11.344   8.709  0.00  0.00     0.003 A 
HETATM   29  C   UNK N   1      22.669  12.486   8.198  0.00  0.00     0.012 A 
BRANCH  26  30
HETATM   30  N   UNK N   1      22.617  11.716  12.336  0.00  0.00    -0.399 N 
HETATM   31  H   UNK N   1      22.865  10.827  12.681  0.00  0.00     0.156 HD
HETATM   32  H   UNK N   1      22.357  12.431  12.962  0.00  0.00     0.156 HD
ENDBRANCH  26  30
ENDBRANCH   8  24
BRANCH   6  33
HETATM   33  O   UNK N   1      18.364  16.744   9.171  0.00  0.00    -0.356 OA
HETATM   34  C   UNK N   1      18.278  17.998   9.735  0.00  0.00     0.210 C 
ENDBRANCH   6  33
TORSDOF 6
ENDMDL
