MODEL 1
REMARK VINA RESULT:      -6.5      0.000      0.000
REMARK  8 active torsions:
REMARK  status: ('A' for Active; 'I' for Inactive)
REMARK    1  A    between atoms: C_2  and  O_20 
REMARK    2  A    between atoms: C_3  and  C_7 
REMARK    3  A    between atoms: C_5  and  O_18 
REMARK    4  A    between atoms: C_7  and  C_8 
REMARK       I    between atoms: C_8  and  N_9 
REMARK    5  A    between atoms: N_9  and  C_10 
REMARK    6  A    between atoms: C_14  and  O_24 
REMARK    7  A    between atoms: C_16  and  N_22 
REMARK    8  A    between atoms: O_24  and  C_25 
ROOT
HETATM    1  C   UNK N   1      28.136  19.027   7.024  0.00  0.00     0.111 C 
HETATM    2  N   UNK N   1      28.746  18.288   6.077  0.00  0.00    -0.322 N 
ATOM      3  HN  UNK N   1      28.400  18.331   5.119  1.00  0.00     0.169 HD
HETATM    4  C   UNK N   1      29.800  17.491   6.357  0.00  0.00     0.167 C 
HETATM    5  C   UNK N   1      30.243  17.377   7.698  0.00  0.00     0.121 C 
HETATM    6  C   UNK N   1      29.684  18.217   8.675  0.00  0.00     0.054 C 
HETATM    7  C   UNK N   1      28.628  19.035   8.335  0.00  0.00     0.079 C 
HETATM    8  C   UNK N   1      31.186  16.369   8.100  0.00  0.00     0.106 C 
HETATM    9  N   UNK N   1      31.941  15.574   8.464  0.00  0.00    -0.191 NA
ENDROOT
BRANCH   4  10
HETATM   10  O   UNK N   1      30.357  16.822   5.328  0.00  0.00    -0.335 OA
BRANCH  10  11
HETATM   11  C   UNK N   1      31.077  17.431   4.334  0.00  0.00     0.173 C 
HETATM   12  C   UNK N   1      32.535  17.393   4.723  0.00  0.00     0.034 C 
ENDBRANCH  10  11
ENDBRANCH   4  10
BRANCH   6  13
HETATM   13  N   UNK N   1      30.130  18.197  10.016  0.00  0.00    -0.398 N 
HETATM   14  H   UNK N   1      31.078  18.095  10.258  0.00  0.00     0.156 HD
HETATM   15  H   UNK N   1      29.465  18.288  10.736  0.00  0.00     0.156 HD
ENDBRANCH   6  13
BRANCH   1  16
HETATM   16  N   UNK N   1      26.863  19.545   6.743  0.00  0.00    -0.313 N 
HETATM   17  C   UNK N   1      26.706  20.406   5.733  0.00  0.00     0.227 C 
HETATM   18  O   UNK N   1      26.614  21.602   5.990  0.00  0.00    -0.273 OA
HETATM   19  H   UNK N   1      26.088  19.277   7.288  0.00  0.00     0.170 HD
BRANCH  17  20
HETATM   20  C   UNK N   1      26.880  19.904   4.319  0.00  0.00     0.144 C 
BRANCH  20  21
HETATM   21  C   UNK N   1      25.728  19.064   3.966  0.00  0.00    -0.013 A 
HETATM   22  C   UNK N   1      25.767  17.646   3.977  0.00  0.00     0.076 A 
HETATM   23  C   UNK N   1      24.569  16.956   3.819  0.00  0.00     0.059 A 
HETATM   24  C   UNK N   1      23.355  17.639   3.711  0.00  0.00     0.047 A 
HETATM   25  C   UNK N   1      23.333  19.058   3.737  0.00  0.00     0.086 A 
HETATM   26 Br   UNK N   1      21.808  16.578   3.452  0.00  0.00    -0.048 Br
HETATM   27  C   UNK N   1      24.528  19.737   3.829  0.00  0.00     0.048 A 
BRANCH  22  28
HETATM   28  O   UNK N   1      26.897  16.912   4.170  0.00  0.00    -0.355 OA
HETATM   29  C   UNK N   1      27.608  16.244   3.198  0.00  0.00     0.210 C 
ENDBRANCH  22  28
BRANCH  25  30
HETATM   30  O   UNK N   1      22.208  19.811   3.712  0.00  0.00    -0.355 OA
HETATM   31  C   UNK N   1      21.725  20.413   2.575  0.00  0.00     0.210 C 
ENDBRANCH  25  30
ENDBRANCH  20  21
ENDBRANCH  17  20
ENDBRANCH   1  16
TORSDOF 8
ENDMDL
MODEL 2
REMARK VINA RESULT:      -6.5      6.439      9.780
REMARK  8 active torsions:
REMARK  status: ('A' for Active; 'I' for Inactive)
REMARK    1  A    between atoms: C_2  and  O_20 
REMARK    2  A    between atoms: C_3  and  C_7 
REMARK    3  A    between atoms: C_5  and  O_18 
REMARK    4  A    between atoms: C_7  and  C_8 
REMARK       I    between atoms: C_8  and  N_9 
REMARK    5  A    between atoms: N_9  and  C_10 
REMARK    6  A    between atoms: C_14  and  O_24 
REMARK    7  A    between atoms: C_16  and  N_22 
REMARK    8  A    between atoms: O_24  and  C_25 
ROOT
HETATM    1  C   UNK N   1      35.049  14.749  11.824  0.00  0.00     0.111 C 
HETATM    2  N   UNK N   1      34.615  13.476  11.756  0.00  0.00    -0.322 N 
ATOM      3  HN  UNK N   1      33.980  13.210  11.004  1.00  0.00     0.169 HD
HETATM    4  C   UNK N   1      34.994  12.540  12.653  0.00  0.00     0.167 C 
HETATM    5  C   UNK N   1      35.824  12.918  13.738  0.00  0.00     0.121 C 
HETATM    6  C   UNK N   1      36.365  14.214  13.763  0.00  0.00     0.054 C 
HETATM    7  C   UNK N   1      35.970  15.127  12.809  0.00  0.00     0.079 C 
HETATM    8  C   UNK N   1      36.058  12.041  14.852  0.00  0.00     0.106 C 
HETATM    9  N   UNK N   1      36.272  11.367  15.766  0.00  0.00    -0.191 NA
ENDROOT
BRANCH   4  10
HETATM   10  O   UNK N   1      34.529  11.288  12.471  0.00  0.00    -0.335 OA
BRANCH  10  11
HETATM   11  C   UNK N   1      34.580  10.632  11.269  0.00  0.00     0.173 C 
HETATM   12  C   UNK N   1      33.343   9.775  11.153  0.00  0.00     0.034 C 
ENDBRANCH  10  11
ENDBRANCH   4  10
BRANCH   6  13
HETATM   13  N   UNK N   1      37.250  14.630  14.783  0.00  0.00    -0.398 N 
HETATM   14  H   UNK N   1      38.010  15.232  14.613  0.00  0.00     0.156 HD
HETATM   15  H   UNK N   1      37.100  14.305  15.700  0.00  0.00     0.156 HD
ENDBRANCH   6  13
BRANCH   1  16
HETATM   16  N   UNK N   1      34.359  15.725  11.090  0.00  0.00    -0.313 N 
HETATM   17  C   UNK N   1      34.927  16.268  10.010  0.00  0.00     0.227 C 
HETATM   18  O   UNK N   1      35.432  17.382  10.110  0.00  0.00    -0.273 OA
HETATM   19  H   UNK N   1      33.458  16.010  11.369  0.00  0.00     0.170 HD
BRANCH  17  20
HETATM   20  C   UNK N   1      35.132  15.406   8.787  0.00  0.00     0.144 C 
BRANCH  20  21
HETATM   21  C   UNK N   1      34.431  16.017   7.650  0.00  0.00    -0.013 A 
HETATM   22  C   UNK N   1      34.840  15.851   6.302  0.00  0.00     0.076 A 
HETATM   23  C   UNK N   1      33.993  16.307   5.298  0.00  0.00     0.059 A 
HETATM   24  C   UNK N   1      32.747  16.861   5.606  0.00  0.00     0.047 A 
HETATM   25  C   UNK N   1      32.340  16.988   6.960  0.00  0.00     0.086 A 
HETATM   26 Br   UNK N   1      31.716  17.486   4.146  0.00  0.00    -0.048 Br
HETATM   27  C   UNK N   1      33.210  16.594   7.952  0.00  0.00     0.048 A 
BRANCH  22  28
HETATM   28  O   UNK N   1      35.995  15.238   5.924  0.00  0.00    -0.355 OA
HETATM   29  C   UNK N   1      36.096  14.069   5.202  0.00  0.00     0.210 C 
ENDBRANCH  22  28
BRANCH  25  30
HETATM   30  O   UNK N   1      31.130  17.442   7.360  0.00  0.00    -0.355 OA
HETATM   31  C   UNK N   1      30.851  17.815   8.653  0.00  0.00     0.210 C 
ENDBRANCH  25  30
ENDBRANCH  20  21
ENDBRANCH  17  20
ENDBRANCH   1  16
TORSDOF 8
ENDMDL
MODEL 3
REMARK VINA RESULT:      -6.4      6.478      9.713
REMARK  8 active torsions:
REMARK  status: ('A' for Active; 'I' for Inactive)
REMARK    1  A    between atoms: C_2  and  O_20 
REMARK    2  A    between atoms: C_3  and  C_7 
REMARK    3  A    between atoms: C_5  and  O_18 
REMARK    4  A    between atoms: C_7  and  C_8 
REMARK       I    between atoms: C_8  and  N_9 
REMARK    5  A    between atoms: N_9  and  C_10 
REMARK    6  A    between atoms: C_14  and  O_24 
REMARK    7  A    between atoms: C_16  and  N_22 
REMARK    8  A    between atoms: O_24  and  C_25 
ROOT
HETATM    1  C   UNK N   1      20.160  16.907   4.258  0.00  0.00     0.111 C 
HETATM    2  N   UNK N   1      21.046  17.894   4.489  0.00  0.00    -0.322 N 
ATOM      3  HN  UNK N   1      21.464  17.976   5.415  1.00  0.00     0.169 HD
HETATM    4  C   UNK N   1      21.398  18.781   3.533  0.00  0.00     0.167 C 
HETATM    5  C   UNK N   1      20.771  18.713   2.263  0.00  0.00     0.121 C 
HETATM    6  C   UNK N   1      19.924  17.629   1.978  0.00  0.00     0.054 C 
HETATM    7  C   UNK N   1      19.616  16.733   2.979  0.00  0.00     0.079 C 
HETATM    8  C   UNK N   1      20.913  19.764   1.293  0.00  0.00     0.106 C 
HETATM    9  N   UNK N   1      21.000  20.586   0.486  0.00  0.00    -0.191 NA
ENDROOT
BRANCH   4  10
HETATM   10  O   UNK N   1      22.320  19.707   3.860  0.00  0.00    -0.335 OA
BRANCH  10  11
HETATM   11  C   UNK N   1      23.669  19.507   3.728  0.00  0.00     0.173 C 
HETATM   12  C   UNK N   1      24.223  20.614   2.864  0.00  0.00     0.034 C 
ENDBRANCH  10  11
ENDBRANCH   4  10
BRANCH   6  13
HETATM   13  N   UNK N   1      19.322  17.471   0.709  0.00  0.00    -0.398 N 
HETATM   14  H   UNK N   1      19.780  17.709  -0.129  0.00  0.00     0.156 HD
HETATM   15  H   UNK N   1      18.408  17.107   0.662  0.00  0.00     0.156 HD
ENDBRANCH   6  13
BRANCH   1  16
HETATM   16  N   UNK N   1      19.588  16.256   5.362  0.00  0.00    -0.313 N 
HETATM   17  C   UNK N   1      20.125  15.119   5.812  0.00  0.00     0.227 C 
HETATM   18  O   UNK N   1      19.589  14.057   5.512  0.00  0.00    -0.273 OA
HETATM   19  H   UNK N   1      18.795  16.636   5.805  0.00  0.00     0.170 HD
BRANCH  17  20
HETATM   20  C   UNK N   1      21.486  15.168   6.467  0.00  0.00     0.144 C 
BRANCH  20  21
HETATM   21  C   UNK N   1      21.398  14.548   7.796  0.00  0.00    -0.013 A 
HETATM   22  C   UNK N   1      20.365  14.840   8.724  0.00  0.00     0.076 A 
HETATM   23  C   UNK N   1      20.269  14.052   9.866  0.00  0.00     0.059 A 
HETATM   24  C   UNK N   1      21.129  12.968  10.067  0.00  0.00     0.047 A 
HETATM   25  C   UNK N   1      22.133  12.671   9.110  0.00  0.00     0.086 A 
HETATM   26 Br   UNK N   1      20.919  12.012  11.688  0.00  0.00    -0.048 Br
HETATM   27  C   UNK N   1      22.266  13.493   8.012  0.00  0.00     0.048 A 
BRANCH  22  28
HETATM   28  O   UNK N   1      19.436  15.819   8.551  0.00  0.00    -0.355 OA
HETATM   29  C   UNK N   1      19.598  17.154   8.847  0.00  0.00     0.210 C 
ENDBRANCH  22  28
BRANCH  25  30
HETATM   30  O   UNK N   1      22.966  11.606   9.173  0.00  0.00    -0.355 OA
HETATM   31  C   UNK N   1      23.444  10.951   8.064  0.00  0.00     0.210 C 
ENDBRANCH  25  30
ENDBRANCH  20  21
ENDBRANCH  17  20
ENDBRANCH   1  16
TORSDOF 8
ENDMDL
MODEL 4
REMARK VINA RESULT:      -6.3      7.013     10.167
REMARK  8 active torsions:
REMARK  status: ('A' for Active; 'I' for Inactive)
REMARK    1  A    between atoms: C_2  and  O_20 
REMARK    2  A    between atoms: C_3  and  C_7 
REMARK    3  A    between atoms: C_5  and  O_18 
REMARK    4  A    between atoms: C_7  and  C_8 
REMARK       I    between atoms: C_8  and  N_9 
REMARK    5  A    between atoms: N_9  and  C_10 
REMARK    6  A    between atoms: C_14  and  O_24 
REMARK    7  A    between atoms: C_16  and  N_22 
REMARK    8  A    between atoms: O_24  and  C_25 
ROOT
HETATM    1  C   UNK N   1      35.140  14.565  12.058  0.00  0.00     0.111 C 
HETATM    2  N   UNK N   1      34.628  13.320  12.038  0.00  0.00    -0.322 N 
ATOM      3  HN  UNK N   1      33.994  13.059  11.283  1.00  0.00     0.169 HD
HETATM    4  C   UNK N   1      34.925  12.405  12.986  0.00  0.00     0.167 C 
HETATM    5  C   UNK N   1      35.753  12.782  14.074  0.00  0.00     0.121 C 
HETATM    6  C   UNK N   1      36.374  14.041  14.053  0.00  0.00     0.054 C 
HETATM    7  C   UNK N   1      36.061  14.931  13.049  0.00  0.00     0.079 C 
HETATM    8  C   UNK N   1      35.905  11.945  15.233  0.00  0.00     0.106 C 
HETATM    9  N   UNK N   1      36.054  11.304  16.182  0.00  0.00    -0.191 NA
ENDROOT
BRANCH   4  10
HETATM   10  O   UNK N   1      34.386  11.178  12.850  0.00  0.00    -0.335 OA
BRANCH  10  11
HETATM   11  C   UNK N   1      34.969  10.174  12.121  0.00  0.00     0.173 C 
HETATM   12  C   UNK N   1      35.209   9.005  13.046  0.00  0.00     0.034 C 
ENDBRANCH  10  11
ENDBRANCH   4  10
BRANCH   6  13
HETATM   13  N   UNK N   1      37.261  14.448  15.076  0.00  0.00    -0.398 N 
HETATM   14  H   UNK N   1      37.552  15.382  15.185  0.00  0.00     0.156 HD
HETATM   15  H   UNK N   1      37.601  13.770  15.703  0.00  0.00     0.156 HD
ENDBRANCH   6  13
BRANCH   1  16
HETATM   16  N   UNK N   1      34.531  15.547  11.263  0.00  0.00    -0.313 N 
HETATM   17  C   UNK N   1      35.223  16.125  10.277  0.00  0.00     0.227 C 
HETATM   18  O   UNK N   1      35.689  17.244  10.465  0.00  0.00    -0.273 OA
HETATM   19  H   UNK N   1      33.597  15.809  11.430  0.00  0.00     0.170 HD
BRANCH  17  20
HETATM   20  C   UNK N   1      35.599  15.296   9.073  0.00  0.00     0.144 C 
BRANCH  20  21
HETATM   21  C   UNK N   1      34.428  15.170   8.195  0.00  0.00    -0.013 A 
HETATM   22  C   UNK N   1      33.453  14.150   8.339  0.00  0.00     0.076 A 
HETATM   23  C   UNK N   1      32.289  14.244   7.583  0.00  0.00     0.059 A 
HETATM   24  C   UNK N   1      32.061  15.342   6.748  0.00  0.00     0.047 A 
HETATM   25  C   UNK N   1      33.033  16.370   6.644  0.00  0.00     0.086 A 
HETATM   26 Br   UNK N   1      30.458  15.317   5.740  0.00  0.00    -0.048 Br
HETATM   27  C   UNK N   1      34.212  16.240   7.345  0.00  0.00     0.048 A 
BRANCH  22  28
HETATM   28  O   UNK N   1      33.565  13.101   9.199  0.00  0.00    -0.355 OA
HETATM   29  C   UNK N   1      33.990  11.831   8.880  0.00  0.00     0.210 C 
ENDBRANCH  22  28
BRANCH  25  30
HETATM   30  O   UNK N   1      32.879  17.505   5.923  0.00  0.00    -0.355 OA
HETATM   31  C   UNK N   1      33.102  17.578   4.569  0.00  0.00     0.210 C 
ENDBRANCH  25  30
ENDBRANCH  20  21
ENDBRANCH  17  20
ENDBRANCH   1  16
TORSDOF 8
ENDMDL
MODEL 5
REMARK VINA RESULT:      -6.3      5.451      7.751
REMARK  8 active torsions:
REMARK  status: ('A' for Active; 'I' for Inactive)
REMARK    1  A    between atoms: C_2  and  O_20 
REMARK    2  A    between atoms: C_3  and  C_7 
REMARK    3  A    between atoms: C_5  and  O_18 
REMARK    4  A    between atoms: C_7  and  C_8 
REMARK       I    between atoms: C_8  and  N_9 
REMARK    5  A    between atoms: N_9  and  C_10 
REMARK    6  A    between atoms: C_14  and  O_24 
REMARK    7  A    between atoms: C_16  and  N_22 
REMARK    8  A    between atoms: O_24  and  C_25 
ROOT
HETATM    1  C   UNK N   1      35.106  16.367   9.938  0.00  0.00     0.111 C 
HETATM    2  N   UNK N   1      35.128  15.309   9.105  0.00  0.00    -0.322 N 
ATOM      3  HN  UNK N   1      34.805  15.429   8.146  1.00  0.00     0.169 HD
HETATM    4  C   UNK N   1      35.563  14.093   9.500  0.00  0.00     0.167 C 
HETATM    5  C   UNK N   1      35.952  13.903  10.850  0.00  0.00     0.121 C 
HETATM    6  C   UNK N   1      36.031  15.019  11.700  0.00  0.00     0.054 C 
HETATM    7  C   UNK N   1      35.602  16.246  11.243  0.00  0.00     0.079 C 
HETATM    8  C   UNK N   1      36.185  12.593  11.393  0.00  0.00     0.106 C 
HETATM    9  N   UNK N   1      36.381  11.558  11.868  0.00  0.00    -0.191 NA
ENDROOT
BRANCH   4  10
HETATM   10  O   UNK N   1      35.576  13.112   8.576  0.00  0.00    -0.335 OA
BRANCH  10  11
HETATM   11  C   UNK N   1      34.439  12.566   8.040  0.00  0.00     0.173 C 
HETATM   12  C   UNK N   1      34.464  12.806   6.550  0.00  0.00     0.034 C 
ENDBRANCH  10  11
ENDBRANCH   4  10
BRANCH   6  13
HETATM   13  N   UNK N   1      36.474  14.904  13.037  0.00  0.00    -0.398 N 
HETATM   14  H   UNK N   1      37.114  15.534  13.440  0.00  0.00     0.156 HD
HETATM   15  H   UNK N   1      36.128  14.164  13.587  0.00  0.00     0.156 HD
ENDBRANCH   6  13
BRANCH   1  16
HETATM   16  N   UNK N   1      34.333  17.480   9.576  0.00  0.00    -0.313 N 
HETATM   17  C   UNK N   1      34.576  18.109   8.423  0.00  0.00     0.227 C 
HETATM   18  O   UNK N   1      35.214  19.157   8.448  0.00  0.00    -0.273 OA
HETATM   19  H   UNK N   1      33.615  17.798  10.169  0.00  0.00     0.170 HD
BRANCH  17  20
HETATM   20  C   UNK N   1      34.265  17.396   7.128  0.00  0.00     0.144 C 
BRANCH  20  21
HETATM   21  C   UNK N   1      32.815  17.435   6.899  0.00  0.00    -0.013 A 
HETATM   22  C   UNK N   1      32.216  17.128   5.650  0.00  0.00     0.076 A 
HETATM   23  C   UNK N   1      30.831  17.004   5.600  0.00  0.00     0.059 A 
HETATM   24  C   UNK N   1      30.057  17.121   6.758  0.00  0.00     0.047 A 
HETATM   25  C   UNK N   1      30.678  17.394   8.004  0.00  0.00     0.086 A 
HETATM   26 Br   UNK N   1      28.181  16.979   6.537  0.00  0.00    -0.048 Br
HETATM   27  C   UNK N   1      32.042  17.580   8.037  0.00  0.00     0.048 A 
BRANCH  22  28
HETATM   28  O   UNK N   1      32.912  16.909   4.501  0.00  0.00    -0.355 OA
HETATM   29  C   UNK N   1      32.449  17.112   3.220  0.00  0.00     0.210 C 
ENDBRANCH  22  28
BRANCH  25  30
HETATM   30  O   UNK N   1      30.029  17.455   9.190  0.00  0.00    -0.355 OA
HETATM   31  C   UNK N   1      29.644  18.633   9.783  0.00  0.00     0.210 C 
ENDBRANCH  25  30
ENDBRANCH  20  21
ENDBRANCH  17  20
ENDBRANCH   1  16
TORSDOF 8
ENDMDL
MODEL 6
REMARK VINA RESULT:      -6.3      3.004      5.024
REMARK  8 active torsions:
REMARK  status: ('A' for Active; 'I' for Inactive)
REMARK    1  A    between atoms: C_2  and  O_20 
REMARK    2  A    between atoms: C_3  and  C_7 
REMARK    3  A    between atoms: C_5  and  O_18 
REMARK    4  A    between atoms: C_7  and  C_8 
REMARK       I    between atoms: C_8  and  N_9 
REMARK    5  A    between atoms: N_9  and  C_10 
REMARK    6  A    between atoms: C_14  and  O_24 
REMARK    7  A    between atoms: C_16  and  N_22 
REMARK    8  A    between atoms: O_24  and  C_25 
ROOT
HETATM    1  C   UNK N   1      31.602  16.676   4.649  0.00  0.00     0.111 C 
HETATM    2  N   UNK N   1      32.419  17.434   5.405  0.00  0.00    -0.322 N 
ATOM      3  HN  UNK N   1      32.131  18.382   5.644  1.00  0.00     0.169 HD
HETATM    4  C   UNK N   1      33.607  16.978   5.856  0.00  0.00     0.167 C 
HETATM    5  C   UNK N   1      34.042  15.684   5.473  0.00  0.00     0.121 C 
HETATM    6  C   UNK N   1      33.158  14.848   4.772  0.00  0.00     0.054 C 
HETATM    7  C   UNK N   1      31.943  15.349   4.357  0.00  0.00     0.079 C 
HETATM    8  C   UNK N   1      35.388  15.239   5.708  0.00  0.00     0.106 C 
HETATM    9  N   UNK N   1      36.460  14.842   5.877  0.00  0.00    -0.191 NA
ENDROOT
BRANCH   4  10
HETATM   10  O   UNK N   1      34.330  17.807   6.635  0.00  0.00    -0.335 OA
BRANCH  10  11
HETATM   11  C   UNK N   1      33.901  18.261   7.855  0.00  0.00     0.173 C 
HETATM   12  C   UNK N   1      34.016  17.126   8.843  0.00  0.00     0.034 C 
ENDBRANCH  10  11
ENDBRANCH   4  10
BRANCH   6  13
HETATM   13  N   UNK N   1      33.509  13.526   4.419  0.00  0.00    -0.398 N 
HETATM   14  H   UNK N   1      33.697  13.256   3.490  0.00  0.00     0.156 HD
HETATM   15  H   UNK N   1      33.570  12.847   5.129  0.00  0.00     0.156 HD
ENDBRANCH   6  13
BRANCH   1  16
HETATM   16  N   UNK N   1      30.573  17.313   3.939  0.00  0.00    -0.313 N 
HETATM   17  C   UNK N   1      29.464  16.637   3.629  0.00  0.00     0.227 C 
HETATM   18  O   UNK N   1      29.339  16.207   2.487  0.00  0.00    -0.273 OA
HETATM   19  H   UNK N   1      30.667  18.256   3.671  0.00  0.00     0.170 HD
BRANCH  17  20
HETATM   20  C   UNK N   1      28.527  16.229   4.742  0.00  0.00     0.144 C 
BRANCH  20  21
HETATM   21  C   UNK N   1      27.969  17.438   5.362  0.00  0.00    -0.013 A 
HETATM   22  C   UNK N   1      28.586  18.113   6.447  0.00  0.00     0.076 A 
HETATM   23  C   UNK N   1      28.078  19.352   6.823  0.00  0.00     0.059 A 
HETATM   24  C   UNK N   1      27.027  19.942   6.115  0.00  0.00     0.047 A 
HETATM   25  C   UNK N   1      26.446  19.267   5.011  0.00  0.00     0.086 A 
HETATM   26 Br   UNK N   1      26.402  21.608   6.766  0.00  0.00    -0.048 Br
HETATM   27  C   UNK N   1      26.909  18.012   4.683  0.00  0.00     0.048 A 
BRANCH  22  28
HETATM   28  O   UNK N   1      29.671  17.643   7.122  0.00  0.00    -0.355 OA
HETATM   29  C   UNK N   1      30.037  17.982   8.406  0.00  0.00     0.210 C 
ENDBRANCH  22  28
BRANCH  25  30
HETATM   30  O   UNK N   1      25.475  19.781   4.219  0.00  0.00    -0.355 OA
HETATM   31  C   UNK N   1      25.724  20.373   3.005  0.00  0.00     0.210 C 
ENDBRANCH  25  30
ENDBRANCH  20  21
ENDBRANCH  17  20
ENDBRANCH   1  16
TORSDOF 8
ENDMDL
MODEL 7
REMARK VINA RESULT:      -6.2      6.407     11.106
REMARK  8 active torsions:
REMARK  status: ('A' for Active; 'I' for Inactive)
REMARK    1  A    between atoms: C_2  and  O_20 
REMARK    2  A    between atoms: C_3  and  C_7 
REMARK    3  A    between atoms: C_5  and  O_18 
REMARK    4  A    between atoms: C_7  and  C_8 
REMARK       I    between atoms: C_8  and  N_9 
REMARK    5  A    between atoms: N_9  and  C_10 
REMARK    6  A    between atoms: C_14  and  O_24 
REMARK    7  A    between atoms: C_16  and  N_22 
REMARK    8  A    between atoms: O_24  and  C_25 
ROOT
HETATM    1  C   UNK N   1      33.717  17.524   8.235  0.00  0.00     0.111 C 
HETATM    2  N   UNK N   1      32.591  17.413   8.965  0.00  0.00    -0.322 N 
ATOM      3  HN  UNK N   1      32.656  17.457   9.982  1.00  0.00     0.169 HD
HETATM    4  C   UNK N   1      31.379  17.243   8.394  0.00  0.00     0.167 C 
HETATM    5  C   UNK N   1      31.290  17.114   6.985  0.00  0.00     0.121 C 
HETATM    6  C   UNK N   1      32.440  17.330   6.208  0.00  0.00     0.054 C 
HETATM    7  C   UNK N   1      33.651  17.528   6.836  0.00  0.00     0.079 C 
HETATM    8  C   UNK N   1      30.080  16.687   6.340  0.00  0.00     0.106 C 
HETATM    9  N   UNK N   1      29.127  16.347   5.782  0.00  0.00    -0.191 NA
ENDROOT
BRANCH   4  10
HETATM   10  O   UNK N   1      30.314  17.179   9.217  0.00  0.00    -0.335 OA
BRANCH  10  11
HETATM   11  C   UNK N   1      29.597  18.279   9.610  0.00  0.00     0.173 C 
HETATM   12  C   UNK N   1      28.161  18.074   9.193  0.00  0.00     0.034 C 
ENDBRANCH  10  11
ENDBRANCH   4  10
BRANCH   6  13
HETATM   13  N   UNK N   1      32.402  17.280   4.796  0.00  0.00    -0.398 N 
HETATM   14  H   UNK N   1      31.799  16.678   4.302  0.00  0.00     0.156 HD
HETATM   15  H   UNK N   1      33.001  17.872   4.286  0.00  0.00     0.156 HD
ENDBRANCH   6  13
BRANCH   1  16
HETATM   16  N   UNK N   1      34.949  17.349   8.883  0.00  0.00    -0.313 N 
HETATM   17  C   UNK N   1      35.035  16.526   9.932  0.00  0.00     0.227 C 
HETATM   18  O   UNK N   1      35.051  17.010  11.059  0.00  0.00    -0.273 OA
HETATM   19  H   UNK N   1      35.747  17.830   8.567  0.00  0.00     0.170 HD
BRANCH  17  20
HETATM   20  C   UNK N   1      34.874  15.041   9.705  0.00  0.00     0.144 C 
BRANCH  20  21
HETATM   21  C   UNK N   1      36.203  14.437   9.543  0.00  0.00    -0.013 A 
HETATM   22  C   UNK N   1      36.974  13.951  10.630  0.00  0.00     0.076 A 
HETATM   23  C   UNK N   1      38.125  13.223  10.344  0.00  0.00     0.059 A 
HETATM   24  C   UNK N   1      38.479  12.928   9.024  0.00  0.00     0.047 A 
HETATM   25  C   UNK N   1      37.675  13.394   7.951  0.00  0.00     0.086 A 
HETATM   26 Br   UNK N   1      40.095  11.972   8.777  0.00  0.00    -0.048 Br
HETATM   27  C   UNK N   1      36.573  14.169   8.237  0.00  0.00     0.048 A 
BRANCH  22  28
HETATM   28  O   UNK N   1      36.643  14.119  11.939  0.00  0.00    -0.355 OA
HETATM   29  C   UNK N   1      36.468  13.117  12.867  0.00  0.00     0.210 C 
ENDBRANCH  22  28
BRANCH  25  30
HETATM   30  O   UNK N   1      37.890  13.104   6.647  0.00  0.00    -0.355 OA
HETATM   31  C   UNK N   1      38.269  14.041   5.715  0.00  0.00     0.210 C 
ENDBRANCH  25  30
ENDBRANCH  20  21
ENDBRANCH  17  20
ENDBRANCH   1  16
TORSDOF 8
ENDMDL
MODEL 8
REMARK VINA RESULT:      -6.2      7.889     10.582
REMARK  8 active torsions:
REMARK  status: ('A' for Active; 'I' for Inactive)
REMARK    1  A    between atoms: C_2  and  O_20 
REMARK    2  A    between atoms: C_3  and  C_7 
REMARK    3  A    between atoms: C_5  and  O_18 
REMARK    4  A    between atoms: C_7  and  C_8 
REMARK       I    between atoms: C_8  and  N_9 
REMARK    5  A    between atoms: N_9  and  C_10 
REMARK    6  A    between atoms: C_14  and  O_24 
REMARK    7  A    between atoms: C_16  and  N_22 
REMARK    8  A    between atoms: O_24  and  C_25 
ROOT
HETATM    1  C   UNK N   1      35.161  14.458  12.143  0.00  0.00     0.111 C 
HETATM    2  N   UNK N   1      34.633  13.220  12.176  0.00  0.00    -0.322 N 
ATOM      3  HN  UNK N   1      33.997  12.935  11.432  1.00  0.00     0.169 HD
HETATM    4  C   UNK N   1      34.919  12.343  13.163  0.00  0.00     0.167 C 
HETATM    5  C   UNK N   1      35.751  12.756  14.234  0.00  0.00     0.121 C 
HETATM    6  C   UNK N   1      36.387  14.006  14.160  0.00  0.00     0.054 C 
HETATM    7  C   UNK N   1      36.085  14.856  13.118  0.00  0.00     0.079 C 
HETATM    8  C   UNK N   1      35.892  11.969  15.428  0.00  0.00     0.106 C 
HETATM    9  N   UNK N   1      36.033  11.367  16.404  0.00  0.00    -0.191 NA
ENDROOT
BRANCH   4  10
HETATM   10  O   UNK N   1      34.365  11.118  13.079  0.00  0.00    -0.335 OA
BRANCH  10  11
HETATM   11  C   UNK N   1      34.724  10.191  12.136  0.00  0.00     0.173 C 
HETATM   12  C   UNK N   1      33.474   9.752  11.413  0.00  0.00     0.034 C 
ENDBRANCH  10  11
ENDBRANCH   4  10
BRANCH   6  13
HETATM   13  N   UNK N   1      37.278  14.446  15.165  0.00  0.00    -0.398 N 
HETATM   14  H   UNK N   1      38.257  14.413  15.058  0.00  0.00     0.156 HD
HETATM   15  H   UNK N   1      36.906  14.800  16.005  0.00  0.00     0.156 HD
ENDBRANCH   6  13
BRANCH   1  16
HETATM   16  N   UNK N   1      34.563  15.413  11.306  0.00  0.00    -0.313 N 
HETATM   17  C   UNK N   1      35.284  15.994  10.343  0.00  0.00     0.227 C 
HETATM   18  O   UNK N   1      35.713  17.128  10.534  0.00  0.00    -0.273 OA
HETATM   19  H   UNK N   1      33.616  15.653  11.426  0.00  0.00     0.170 HD
BRANCH  17  20
HETATM   20  C   UNK N   1      35.736  15.158   9.170  0.00  0.00     0.144 C 
BRANCH  20  21
HETATM   21  C   UNK N   1      34.596  14.945   8.269  0.00  0.00    -0.013 A 
HETATM   22  C   UNK N   1      34.147  15.917   7.338  0.00  0.00     0.076 A 
HETATM   23  C   UNK N   1      33.191  15.537   6.403  0.00  0.00     0.059 A 
HETATM   24  C   UNK N   1      32.727  14.219   6.344  0.00  0.00     0.047 A 
HETATM   25  C   UNK N   1      33.214  13.252   7.261  0.00  0.00     0.086 A 
HETATM   26 Br   UNK N   1      31.390  13.851   5.054  0.00  0.00    -0.048 Br
HETATM   27  C   UNK N   1      34.113  13.649   8.226  0.00  0.00     0.048 A 
BRANCH  22  28
HETATM   28  O   UNK N   1      34.620  17.192   7.276  0.00  0.00    -0.355 OA
HETATM   29  C   UNK N   1      34.000  18.313   7.779  0.00  0.00     0.210 C 
ENDBRANCH  22  28
BRANCH  25  30
HETATM   30  O   UNK N   1      32.885  11.939   7.242  0.00  0.00    -0.355 OA
HETATM   31  C   UNK N   1      33.569  10.977   7.945  0.00  0.00     0.210 C 
ENDBRANCH  25  30
ENDBRANCH  20  21
ENDBRANCH  17  20
ENDBRANCH   1  16
TORSDOF 8
ENDMDL
MODEL 9
REMARK VINA RESULT:      -6.2      5.765      8.475
REMARK  8 active torsions:
REMARK  status: ('A' for Active; 'I' for Inactive)
REMARK    1  A    between atoms: C_2  and  O_20 
REMARK    2  A    between atoms: C_3  and  C_7 
REMARK    3  A    between atoms: C_5  and  O_18 
REMARK    4  A    between atoms: C_7  and  C_8 
REMARK       I    between atoms: C_8  and  N_9 
REMARK    5  A    between atoms: N_9  and  C_10 
REMARK    6  A    between atoms: C_14  and  O_24 
REMARK    7  A    between atoms: C_16  and  N_22 
REMARK    8  A    between atoms: O_24  and  C_25 
ROOT
HETATM    1  C   UNK N   1      21.342  18.348   4.967  0.00  0.00     0.111 C 
HETATM    2  N   UNK N   1      22.358  19.107   4.514  0.00  0.00    -0.322 N 
ATOM      3  HN  UNK N   1      23.149  19.292   5.130  1.00  0.00     0.169 HD
HETATM    4  C   UNK N   1      22.362  19.631   3.269  0.00  0.00     0.167 C 
HETATM    5  C   UNK N   1      21.236  19.432   2.431  0.00  0.00     0.121 C 
HETATM    6  C   UNK N   1      20.219  18.560   2.853  0.00  0.00     0.054 C 
HETATM    7  C   UNK N   1      20.273  18.025   4.122  0.00  0.00     0.079 C 
HETATM    8  C   UNK N   1      21.069  20.161   1.204  0.00  0.00     0.106 C 
HETATM    9  N   UNK N   1      20.896  20.726   0.211  0.00  0.00    -0.191 NA
ENDROOT
BRANCH   4  10
HETATM   10  O   UNK N   1      23.445  20.346   2.905  0.00  0.00    -0.335 OA
BRANCH  10  11
HETATM   11  C   UNK N   1      24.597  20.400   3.645  0.00  0.00     0.173 C 
HETATM   12  C   UNK N   1      25.759  20.532   2.691  0.00  0.00     0.034 C 
ENDBRANCH  10  11
ENDBRANCH   4  10
BRANCH   6  13
HETATM   13  N   UNK N   1      19.104  18.269   2.035  0.00  0.00    -0.398 N 
HETATM   14  H   UNK N   1      18.875  18.804   1.240  0.00  0.00     0.156 HD
HETATM   15  H   UNK N   1      18.533  17.502   2.269  0.00  0.00     0.156 HD
ENDBRANCH   6  13
BRANCH   1  16
HETATM   16  N   UNK N   1      21.239  18.134   6.350  0.00  0.00    -0.313 N 
HETATM   17  C   UNK N   1      21.132  16.889   6.822  0.00  0.00     0.227 C 
HETATM   18  O   UNK N   1      20.025  16.481   7.158  0.00  0.00    -0.273 OA
HETATM   19  H   UNK N   1      21.246  18.898   6.971  0.00  0.00     0.170 HD
BRANCH  17  20
HETATM   20  C   UNK N   1      22.321  15.964   6.705  0.00  0.00     0.144 C 
BRANCH  20  21
HETATM   21  C   UNK N   1      21.849  14.627   6.323  0.00  0.00    -0.013 A 
HETATM   22  C   UNK N   1      21.614  13.587   7.259  0.00  0.00     0.076 A 
HETATM   23  C   UNK N   1      20.983  12.431   6.811  0.00  0.00     0.059 A 
HETATM   24  C   UNK N   1      20.539  12.321   5.489  0.00  0.00     0.047 A 
HETATM   25  C   UNK N   1      20.753  13.386   4.577  0.00  0.00     0.086 A 
HETATM   26 Br   UNK N   1      19.740  10.675   5.001  0.00  0.00    -0.048 Br
HETATM   27  C   UNK N   1      21.436  14.502   5.008  0.00  0.00     0.048 A 
BRANCH  22  28
HETATM   28  O   UNK N   1      21.934  13.660   8.580  0.00  0.00    -0.355 OA
HETATM   29  C   UNK N   1      21.074  13.981   9.607  0.00  0.00     0.210 C 
ENDBRANCH  22  28
BRANCH  25  30
HETATM   30  O   UNK N   1      20.301  13.408   3.301  0.00  0.00    -0.355 OA
HETATM   31  C   UNK N   1      19.537  14.427   2.785  0.00  0.00     0.210 C 
ENDBRANCH  25  30
ENDBRANCH  20  21
ENDBRANCH  17  20
ENDBRANCH   1  16
TORSDOF 8
ENDMDL
