MODEL 1
REMARK VINA RESULT:      -6.3      0.000      0.000
REMARK  5 active torsions:
REMARK  status: ('A' for Active; 'I' for Inactive)
REMARK    1  A    between atoms: C_4  and  S_10 
REMARK    2  A    between atoms: C_5  and  N_9 
REMARK    3  A    between atoms: S_10  and  N_13 
REMARK    4  A    between atoms: C_17  and  C_18 
REMARK    5  A    between atoms: C_18  and  O_19 
ROOT
HETATM    1  S   UNK N   1      33.935  17.320   8.453  0.00  0.00     0.246 S 
HETATM    2  O   UNK N   1      34.480  16.466   7.293  0.00  0.00    -0.206 OA
HETATM    3  O   UNK N   1      34.879  18.447   7.993  0.00  0.00    -0.206 OA
ENDROOT
BRANCH   1   4
HETATM    4  C   UNK N   1      32.551  17.283   7.253  0.00  0.00     0.101 A 
HETATM    5  C   UNK N   1      32.855  17.335   5.877  0.00  0.00     0.035 A 
HETATM    6  C   UNK N   1      31.849  17.331   4.912  0.00  0.00    -0.039 A 
HETATM    7  C   UNK N   1      32.230  17.359   3.471  0.00  0.00     0.050 C 
HETATM    8  C   UNK N   1      30.506  17.302   5.308  0.00  0.00     0.042 A 
HETATM    9  C   UNK N   1      30.188  17.265   6.669  0.00  0.00     0.054 A 
HETATM   10 Cl   UNK N   1      29.205  17.308   4.127  0.00  0.00    -0.084 Cl
HETATM   11  C   UNK N   1      31.195  17.255   7.641  0.00  0.00     0.050 A 
BRANCH  11  12
HETATM   12  N   UNK N   1      30.825  17.216   8.998  0.00  0.00    -0.398 N 
HETATM   13  H   UNK N   1      31.517  17.251   9.698  0.00  0.00     0.156 HD
HETATM   14  H   UNK N   1      29.876  17.154   9.247  0.00  0.00     0.156 HD
ENDBRANCH  11  12
ENDBRANCH   1   4
BRANCH   1  15
HETATM   15  N   UNK N   1      35.003  16.166   9.327  0.00  0.00    -0.192 NA
HETATM   16  C   UNK N   1      35.603  16.809  10.506  0.00  0.00     0.109 C 
HETATM   17  C   UNK N   1      35.638  15.805  11.636  0.00  0.00     0.018 C 
HETATM   18  C   UNK N   1      34.539  14.847  11.287  0.00  0.00     0.033 C 
HETATM   19  C   UNK N   1      34.551  14.827   9.776  0.00  0.00     0.172 C 
BRANCH  19  20
HETATM   20  C   UNK N   1      33.234  14.267   9.288  0.00  0.00     0.159 C 
HETATM   21  O   UNK N   1      33.156  13.528   8.338  0.00  0.00    -0.649 OA
BRANCH  20  22
HETATM   22  O   UNK N   1      32.101  14.646   9.924  0.00  0.00    -0.775 OA
HETATM   23  H   UNK N   1      31.806  15.534   9.869  0.00  0.00     0.167 HD
ENDBRANCH  20  22
ENDBRANCH  19  20
ENDBRANCH   1  15
TORSDOF 5
ENDMDL
MODEL 2
REMARK VINA RESULT:      -6.1      2.294      3.300
REMARK  5 active torsions:
REMARK  status: ('A' for Active; 'I' for Inactive)
REMARK    1  A    between atoms: C_4  and  S_10 
REMARK    2  A    between atoms: C_5  and  N_9 
REMARK    3  A    between atoms: S_10  and  N_13 
REMARK    4  A    between atoms: C_17  and  C_18 
REMARK    5  A    between atoms: C_18  and  O_19 
ROOT
HETATM    1  S   UNK N   1      34.577  14.232   8.757  0.00  0.00     0.246 S 
HETATM    2  O   UNK N   1      33.059  14.031   8.918  0.00  0.00    -0.206 OA
HETATM    3  O   UNK N   1      34.650  12.804   8.185  0.00  0.00    -0.206 OA
ENDROOT
BRANCH   1   4
HETATM    4  C   UNK N   1      33.857  15.281   7.438  0.00  0.00     0.101 A 
HETATM    5  C   UNK N   1      34.043  14.891   6.095  0.00  0.00     0.035 A 
HETATM    6  C   UNK N   1      33.539  15.654   5.043  0.00  0.00    -0.039 A 
HETATM    7  C   UNK N   1      33.740  15.178   3.645  0.00  0.00     0.050 C 
HETATM    8  C   UNK N   1      32.856  16.847   5.314  0.00  0.00     0.042 A 
HETATM    9  C   UNK N   1      32.678  17.255   6.639  0.00  0.00     0.054 A 
HETATM   10 Cl   UNK N   1      32.215  17.846   4.019  0.00  0.00    -0.084 Cl
HETATM   11  C   UNK N   1      33.170  16.485   7.700  0.00  0.00     0.050 A 
BRANCH  11  12
HETATM   12  N   UNK N   1      32.964  16.936   9.015  0.00  0.00    -0.398 N 
HETATM   13  H   UNK N   1      32.091  16.802   9.451  0.00  0.00     0.156 HD
HETATM   14  H   UNK N   1      33.693  17.385   9.500  0.00  0.00     0.156 HD
ENDBRANCH  11  12
ENDBRANCH   1   4
BRANCH   1  15
HETATM   15  N   UNK N   1      34.432  14.000  10.535  0.00  0.00    -0.192 NA
HETATM   16  C   UNK N   1      34.740  12.610  10.901  0.00  0.00     0.109 C 
HETATM   17  C   UNK N   1      35.524  12.615  12.194  0.00  0.00     0.018 C 
HETATM   18  C   UNK N   1      36.158  13.974  12.213  0.00  0.00     0.033 C 
HETATM   19  C   UNK N   1      35.139  14.851  11.522  0.00  0.00     0.172 C 
BRANCH  19  20
HETATM   20  C   UNK N   1      35.820  16.125  11.076  0.00  0.00     0.159 C 
HETATM   21  O   UNK N   1      35.216  17.153  10.894  0.00  0.00    -0.649 OA
BRANCH  20  22
HETATM   22  O   UNK N   1      37.152  16.091  10.839  0.00  0.00    -0.775 OA
HETATM   23  H   UNK N   1      37.596  15.269  10.773  0.00  0.00     0.167 HD
ENDBRANCH  20  22
ENDBRANCH  19  20
ENDBRANCH   1  15
TORSDOF 5
ENDMDL
MODEL 3
REMARK VINA RESULT:      -6.1     13.720     16.433
REMARK  5 active torsions:
REMARK  status: ('A' for Active; 'I' for Inactive)
REMARK    1  A    between atoms: C_4  and  S_10 
REMARK    2  A    between atoms: C_5  and  N_9 
REMARK    3  A    between atoms: S_10  and  N_13 
REMARK    4  A    between atoms: C_17  and  C_18 
REMARK    5  A    between atoms: C_18  and  O_19 
ROOT
HETATM    1  S   UNK N   1      27.844  24.880  -4.106  0.00  0.00     0.246 S 
HETATM    2  O   UNK N   1      27.293  24.074  -5.297  0.00  0.00    -0.206 OA
HETATM    3  O   UNK N   1      26.617  24.418  -3.298  0.00  0.00    -0.206 OA
ENDROOT
BRANCH   1   4
HETATM    4  C   UNK N   1      28.967  23.436  -4.211  0.00  0.00     0.101 A 
HETATM    5  C   UNK N   1      29.316  22.950  -5.488  0.00  0.00     0.035 A 
HETATM    6  C   UNK N   1      30.150  21.842  -5.639  0.00  0.00    -0.039 A 
HETATM    7  C   UNK N   1      30.509  21.390  -7.012  0.00  0.00     0.050 C 
HETATM    8  C   UNK N   1      30.633  21.177  -4.504  0.00  0.00     0.042 A 
HETATM    9  C   UNK N   1      30.283  21.638  -3.232  0.00  0.00     0.054 A 
HETATM   10 Cl   UNK N   1      31.676  19.770  -4.647  0.00  0.00    -0.084 Cl
HETATM   11  C   UNK N   1      29.458  22.758  -3.076  0.00  0.00     0.050 A 
BRANCH  11  12
HETATM   12  N   UNK N   1      29.135  23.184  -1.775  0.00  0.00    -0.398 N 
HETATM   13  H   UNK N   1      28.359  22.796  -1.308  0.00  0.00     0.156 HD
HETATM   14  H   UNK N   1      29.684  23.869  -1.332  0.00  0.00     0.156 HD
ENDBRANCH  11  12
ENDBRANCH   1   4
BRANCH   1  15
HETATM   15  N   UNK N   1      27.218  26.191  -5.168  0.00  0.00    -0.192 NA
HETATM   16  C   UNK N   1      26.246  25.654  -6.133  0.00  0.00     0.109 C 
HETATM   17  C   UNK N   1      25.125  26.655  -6.293  0.00  0.00     0.018 C 
HETATM   18  C   UNK N   1      25.160  27.427  -5.008  0.00  0.00     0.033 C 
HETATM   19  C   UNK N   1      26.626  27.444  -4.642  0.00  0.00     0.172 C 
BRANCH  19  20
HETATM   20  C   UNK N   1      26.755  27.788  -3.176  0.00  0.00     0.159 C 
HETATM   21  O   UNK N   1      27.593  28.550  -2.761  0.00  0.00    -0.649 OA
BRANCH  20  22
HETATM   22  O   UNK N   1      25.919  27.185  -2.299  0.00  0.00    -0.775 OA
HETATM   23  H   UNK N   1      25.827  27.523  -1.430  0.00  0.00     0.167 HD
ENDBRANCH  20  22
ENDBRANCH  19  20
ENDBRANCH   1  15
TORSDOF 5
ENDMDL
MODEL 4
REMARK VINA RESULT:      -6.1      3.514      6.638
REMARK  5 active torsions:
REMARK  status: ('A' for Active; 'I' for Inactive)
REMARK    1  A    between atoms: C_4  and  S_10 
REMARK    2  A    between atoms: C_5  and  N_9 
REMARK    3  A    between atoms: S_10  and  N_13 
REMARK    4  A    between atoms: C_17  and  C_18 
REMARK    5  A    between atoms: C_18  and  O_19 
ROOT
HETATM    1  S   UNK N   1      33.948  15.073   8.489  0.00  0.00     0.246 S 
HETATM    2  O   UNK N   1      35.269  14.361   8.147  0.00  0.00    -0.206 OA
HETATM    3  O   UNK N   1      33.211  13.786   8.072  0.00  0.00    -0.206 OA
ENDROOT
BRANCH   1   4
HETATM    4  C   UNK N   1      34.695  14.734  10.127  0.00  0.00     0.101 A 
HETATM    5  C   UNK N   1      34.784  13.394  10.558  0.00  0.00     0.035 A 
HETATM    6  C   UNK N   1      35.322  13.067  11.802  0.00  0.00    -0.039 A 
HETATM    7  C   UNK N   1      35.418  11.633  12.194  0.00  0.00     0.050 C 
HETATM    8  C   UNK N   1      35.763  14.086  12.658  0.00  0.00     0.042 A 
HETATM    9  C   UNK N   1      35.667  15.419  12.251  0.00  0.00     0.054 A 
HETATM   10 Cl   UNK N   1      36.437  13.721  14.239  0.00  0.00    -0.084 Cl
HETATM   11  C   UNK N   1      35.140  15.751  10.997  0.00  0.00     0.050 A 
BRANCH  11  12
HETATM   12  N   UNK N   1      35.065  17.107  10.632  0.00  0.00    -0.398 N 
HETATM   13  H   UNK N   1      35.755  17.498  10.048  0.00  0.00     0.156 HD
HETATM   14  H   UNK N   1      34.324  17.664  10.959  0.00  0.00     0.156 HD
ENDBRANCH  11  12
ENDBRANCH   1   4
BRANCH   1  15
HETATM   15  N   UNK N   1      34.390  15.864   6.935  0.00  0.00    -0.192 NA
HETATM   16  C   UNK N   1      33.712  15.204   5.808  0.00  0.00     0.109 C 
HETATM   17  C   UNK N   1      33.281  16.263   4.819  0.00  0.00     0.018 C 
HETATM   18  C   UNK N   1      33.172  17.501   5.658  0.00  0.00     0.033 C 
HETATM   19  C   UNK N   1      34.252  17.321   6.700  0.00  0.00     0.172 C 
BRANCH  19  20
HETATM   20  C   UNK N   1      33.969  18.253   7.857  0.00  0.00     0.159 C 
HETATM   21  O   UNK N   1      32.879  18.340   8.367  0.00  0.00    -0.649 OA
BRANCH  20  22
HETATM   22  O   UNK N   1      34.973  19.041   8.306  0.00  0.00    -0.775 OA
HETATM   23  H   UNK N   1      35.269  18.965   9.191  0.00  0.00     0.167 HD
ENDBRANCH  20  22
ENDBRANCH  19  20
ENDBRANCH   1  15
TORSDOF 5
ENDMDL
MODEL 5
REMARK VINA RESULT:      -6.0      4.912      7.947
REMARK  5 active torsions:
REMARK  status: ('A' for Active; 'I' for Inactive)
REMARK    1  A    between atoms: C_4  and  S_10 
REMARK    2  A    between atoms: C_5  and  N_9 
REMARK    3  A    between atoms: S_10  and  N_13 
REMARK    4  A    between atoms: C_17  and  C_18 
REMARK    5  A    between atoms: C_18  and  O_19 
ROOT
HETATM    1  S   UNK N   1      34.973  13.252  10.771  0.00  0.00     0.246 S 
HETATM    2  O   UNK N   1      36.409  12.718  10.927  0.00  0.00    -0.206 OA
HETATM    3  O   UNK N   1      34.581  11.873  10.208  0.00  0.00    -0.206 OA
ENDROOT
BRANCH   1   4
HETATM    4  C   UNK N   1      35.163  13.036  12.581  0.00  0.00     0.101 A 
HETATM    5  C   UNK N   1      34.557  11.917  13.190  0.00  0.00     0.035 A 
HETATM    6  C   UNK N   1      34.645  11.704  14.564  0.00  0.00    -0.039 A 
HETATM    7  C   UNK N   1      34.009  10.490  15.149  0.00  0.00     0.050 C 
HETATM    8  C   UNK N   1      35.325  12.628  15.369  0.00  0.00     0.042 A 
HETATM    9  C   UNK N   1      35.917  13.750  14.782  0.00  0.00     0.054 A 
HETATM   10 Cl   UNK N   1      35.450  12.406  17.107  0.00  0.00    -0.084 Cl
HETATM   11  C   UNK N   1      35.844  13.961  13.400  0.00  0.00     0.050 A 
BRANCH  11  12
HETATM   12  N   UNK N   1      36.457  15.103  12.857  0.00  0.00    -0.398 N 
HETATM   13  H   UNK N   1      35.916  15.897  12.640  0.00  0.00     0.156 HD
HETATM   14  H   UNK N   1      37.427  15.109  12.693  0.00  0.00     0.156 HD
ENDBRANCH  11  12
ENDBRANCH   1   4
BRANCH   1  15
HETATM   15  N   UNK N   1      35.812  14.074   9.409  0.00  0.00    -0.192 NA
HETATM   16  C   UNK N   1      35.689  13.284   8.174  0.00  0.00     0.109 C 
HETATM   17  C   UNK N   1      35.481  14.233   7.015  0.00  0.00     0.018 C 
HETATM   18  C   UNK N   1      34.892  15.450   7.662  0.00  0.00     0.033 C 
HETATM   19  C   UNK N   1      35.544  15.481   9.024  0.00  0.00     0.172 C 
BRANCH  19  20
HETATM   20  C   UNK N   1      34.728  16.374   9.932  0.00  0.00     0.159 C 
HETATM   21  O   UNK N   1      35.222  17.003  10.836  0.00  0.00    -0.649 OA
BRANCH  20  22
HETATM   22  O   UNK N   1      33.390  16.433   9.740  0.00  0.00    -0.775 OA
HETATM   23  H   UNK N   1      32.894  15.643   9.649  0.00  0.00     0.167 HD
ENDBRANCH  20  22
ENDBRANCH  19  20
ENDBRANCH   1  15
TORSDOF 5
ENDMDL
MODEL 6
REMARK VINA RESULT:      -6.0      4.265      7.279
REMARK  5 active torsions:
REMARK  status: ('A' for Active; 'I' for Inactive)
REMARK    1  A    between atoms: C_4  and  S_10 
REMARK    2  A    between atoms: C_5  and  N_9 
REMARK    3  A    between atoms: S_10  and  N_13 
REMARK    4  A    between atoms: C_17  and  C_18 
REMARK    5  A    between atoms: C_18  and  O_19 
ROOT
HETATM    1  S   UNK N   1      35.442  15.246  10.629  0.00  0.00     0.246 S 
HETATM    2  O   UNK N   1      34.966  16.222  11.720  0.00  0.00    -0.206 OA
HETATM    3  O   UNK N   1      36.732  16.081  10.522  0.00  0.00    -0.206 OA
ENDROOT
BRANCH   1   4
HETATM    4  C   UNK N   1      35.583  14.273  12.176  0.00  0.00     0.101 A 
HETATM    5  C   UNK N   1      36.279  14.841  13.263  0.00  0.00     0.035 A 
HETATM    6  C   UNK N   1      36.441  14.148  14.462  0.00  0.00    -0.039 A 
HETATM    7  C   UNK N   1      37.160  14.808  15.588  0.00  0.00     0.050 C 
HETATM    8  C   UNK N   1      35.929  12.850  14.588  0.00  0.00     0.042 A 
HETATM    9  C   UNK N   1      35.250  12.267  13.514  0.00  0.00     0.054 A 
HETATM   10 Cl   UNK N   1      36.120  11.934  16.076  0.00  0.00    -0.084 Cl
HETATM   11  C   UNK N   1      35.073  12.965  12.313  0.00  0.00     0.050 A 
BRANCH  11  12
HETATM   12  N   UNK N   1      34.382  12.338  11.261  0.00  0.00    -0.398 N 
HETATM   13  H   UNK N   1      33.398  12.356  11.238  0.00  0.00     0.156 HD
HETATM   14  H   UNK N   1      34.883  11.881  10.548  0.00  0.00     0.156 HD
ENDBRANCH  11  12
ENDBRANCH   1   4
BRANCH   1  15
HETATM   15  N   UNK N   1      34.208  16.204   9.738  0.00  0.00    -0.192 NA
HETATM   16  C   UNK N   1      34.814  17.408   9.150  0.00  0.00     0.109 C 
HETATM   17  C   UNK N   1      34.207  17.635   7.784  0.00  0.00     0.018 C 
HETATM   18  C   UNK N   1      33.743  16.269   7.377  0.00  0.00     0.033 C 
HETATM   19  C   UNK N   1      33.340  15.625   8.684  0.00  0.00     0.172 C 
BRANCH  19  20
HETATM   20  C   UNK N   1      33.280  14.127   8.488  0.00  0.00     0.159 C 
HETATM   21  O   UNK N   1      33.989  13.547   7.703  0.00  0.00    -0.649 OA
BRANCH  20  22
HETATM   22  O   UNK N   1      32.367  13.424   9.198  0.00  0.00    -0.775 OA
HETATM   23  H   UNK N   1      32.612  13.021  10.008  0.00  0.00     0.167 HD
ENDBRANCH  20  22
ENDBRANCH  19  20
ENDBRANCH   1  15
TORSDOF 5
ENDMDL
MODEL 7
REMARK VINA RESULT:      -5.9      5.851      8.429
REMARK  5 active torsions:
REMARK  status: ('A' for Active; 'I' for Inactive)
REMARK    1  A    between atoms: C_4  and  S_10 
REMARK    2  A    between atoms: C_5  and  N_9 
REMARK    3  A    between atoms: S_10  and  N_13 
REMARK    4  A    between atoms: C_17  and  C_18 
REMARK    5  A    between atoms: C_18  and  O_19 
ROOT
HETATM    1  S   UNK N   1      35.967  12.155  11.385  0.00  0.00     0.246 S 
HETATM    2  O   UNK N   1      37.385  12.206  11.983  0.00  0.00    -0.206 OA
HETATM    3  O   UNK N   1      36.115  10.624  11.310  0.00  0.00    -0.206 OA
ENDROOT
BRANCH   1   4
HETATM    4  C   UNK N   1      35.680  12.561  13.148  0.00  0.00     0.101 A 
HETATM    5  C   UNK N   1      36.497  13.540  13.752  0.00  0.00     0.035 A 
HETATM    6  C   UNK N   1      36.346  13.882  15.095  0.00  0.00    -0.039 A 
HETATM    7  C   UNK N   1      37.217  14.944  15.673  0.00  0.00     0.050 C 
HETATM    8  C   UNK N   1      35.384  13.226  15.875  0.00  0.00     0.042 A 
HETATM    9  C   UNK N   1      34.578  12.243  15.295  0.00  0.00     0.054 A 
HETATM   10 Cl   UNK N   1      35.167  13.617  17.574  0.00  0.00    -0.084 Cl
HETATM   11  C   UNK N   1      34.716  11.906  13.943  0.00  0.00     0.050 A 
BRANCH  11  12
HETATM   12  N   UNK N   1      33.881  10.912  13.405  0.00  0.00    -0.398 N 
HETATM   13  H   UNK N   1      33.182  11.155  12.755  0.00  0.00     0.156 HD
HETATM   14  H   UNK N   1      33.995   9.973  13.677  0.00  0.00     0.156 HD
ENDBRANCH  11  12
ENDBRANCH   1   4
BRANCH   1  15
HETATM   15  N   UNK N   1      36.923  12.769   9.990  0.00  0.00    -0.192 NA
HETATM   16  C   UNK N   1      36.696  11.934   8.801  0.00  0.00     0.109 C 
HETATM   17  C   UNK N   1      36.632  12.833   7.587  0.00  0.00     0.018 C 
HETATM   18  C   UNK N   1      36.219  14.158   8.155  0.00  0.00     0.033 C 
HETATM   19  C   UNK N   1      36.861  14.175   9.523  0.00  0.00     0.172 C 
BRANCH  19  20
HETATM   20  C   UNK N   1      36.175  15.225  10.367  0.00  0.00     0.159 C 
HETATM   21  O   UNK N   1      34.975  15.319  10.435  0.00  0.00    -0.649 OA
BRANCH  20  22
HETATM   22  O   UNK N   1      36.946  16.113  11.037  0.00  0.00    -0.775 OA
HETATM   23  H   UNK N   1      37.670  16.524  10.607  0.00  0.00     0.167 HD
ENDBRANCH  20  22
ENDBRANCH  19  20
ENDBRANCH   1  15
TORSDOF 5
ENDMDL
MODEL 8
REMARK VINA RESULT:      -5.9     11.314     13.394
REMARK  5 active torsions:
REMARK  status: ('A' for Active; 'I' for Inactive)
REMARK    1  A    between atoms: C_4  and  S_10 
REMARK    2  A    between atoms: C_5  and  N_9 
REMARK    3  A    between atoms: S_10  and  N_13 
REMARK    4  A    between atoms: C_17  and  C_18 
REMARK    5  A    between atoms: C_18  and  O_19 
ROOT
HETATM    1  S   UNK N   1      21.690  14.994   6.031  0.00  0.00     0.246 S 
HETATM    2  O   UNK N   1      22.220  16.069   6.997  0.00  0.00    -0.206 OA
HETATM    3  O   UNK N   1      23.145  14.757   5.585  0.00  0.00    -0.206 OA
ENDROOT
BRANCH   1   4
HETATM    4  C   UNK N   1      21.523  14.216   7.682  0.00  0.00     0.101 A 
HETATM    5  C   UNK N   1      22.338  13.106   7.986  0.00  0.00     0.035 A 
HETATM    6  C   UNK N   1      22.248  12.456   9.216  0.00  0.00    -0.039 A 
HETATM    7  C   UNK N   1      23.154  11.306   9.493  0.00  0.00     0.050 C 
HETATM    8  C   UNK N   1      21.312  12.890  10.164  0.00  0.00     0.042 A 
HETATM    9  C   UNK N   1      20.486  13.979   9.872  0.00  0.00     0.054 A 
HETATM   10 Cl   UNK N   1      21.155  12.092  11.722  0.00  0.00    -0.084 Cl
HETATM   11  C   UNK N   1      20.584  14.644   8.644  0.00  0.00     0.050 A 
BRANCH  11  12
HETATM   12  N   UNK N   1      19.732  15.736   8.396  0.00  0.00    -0.398 N 
HETATM   13  H   UNK N   1      18.993  15.934   9.016  0.00  0.00     0.156 HD
HETATM   14  H   UNK N   1      19.875  16.301   7.604  0.00  0.00     0.156 HD
ENDBRANCH  11  12
ENDBRANCH   1   4
BRANCH   1  15
HETATM   15  N   UNK N   1      21.200  16.505   5.189  0.00  0.00    -0.192 NA
HETATM   16  C   UNK N   1      22.159  16.839   4.125  0.00  0.00     0.109 C 
HETATM   17  C   UNK N   1      21.394  17.372   2.936  0.00  0.00     0.018 C 
HETATM   18  C   UNK N   1      20.029  16.775   3.103  0.00  0.00     0.033 C 
HETATM   19  C   UNK N   1      19.852  16.704   4.602  0.00  0.00     0.172 C 
BRANCH  19  20
HETATM   20  C   UNK N   1      18.738  15.731   4.914  0.00  0.00     0.159 C 
HETATM   21  O   UNK N   1      17.979  15.889   5.838  0.00  0.00    -0.649 OA
BRANCH  20  22
HETATM   22  O   UNK N   1      18.619  14.624   4.143  0.00  0.00    -0.775 OA
HETATM   23  H   UNK N   1      18.319  14.699   3.259  0.00  0.00     0.167 HD
ENDBRANCH  20  22
ENDBRANCH  19  20
ENDBRANCH   1  15
TORSDOF 5
ENDMDL
MODEL 9
REMARK VINA RESULT:      -5.8      6.123      9.222
REMARK  5 active torsions:
REMARK  status: ('A' for Active; 'I' for Inactive)
REMARK    1  A    between atoms: C_4  and  S_10 
REMARK    2  A    between atoms: C_5  and  N_9 
REMARK    3  A    between atoms: S_10  and  N_13 
REMARK    4  A    between atoms: C_17  and  C_18 
REMARK    5  A    between atoms: C_18  and  O_19 
ROOT
HETATM    1  S   UNK N   1      35.286  12.802  12.982  0.00  0.00     0.246 S 
HETATM    2  O   UNK N   1      35.978  13.941  13.753  0.00  0.00    -0.206 OA
HETATM    3  O   UNK N   1      36.670  12.409  12.432  0.00  0.00    -0.206 OA
ENDROOT
BRANCH   1   4
HETATM    4  C   UNK N   1      35.244  12.237  14.725  0.00  0.00     0.101 A 
HETATM    5  C   UNK N   1      35.239  13.211  15.745  0.00  0.00     0.035 A 
HETATM    6  C   UNK N   1      35.228  12.850  17.092  0.00  0.00    -0.039 A 
HETATM    7  C   UNK N   1      35.193  13.921  18.127  0.00  0.00     0.050 C 
HETATM    8  C   UNK N   1      35.250  11.495  17.448  0.00  0.00     0.042 A 
HETATM    9  C   UNK N   1      35.272  10.518  16.449  0.00  0.00     0.054 A 
HETATM   10 Cl   UNK N   1      35.250  10.994  19.132  0.00  0.00    -0.084 Cl
HETATM   11  C   UNK N   1      35.269  10.876  15.095  0.00  0.00     0.050 A 
BRANCH  11  12
HETATM   12  N   UNK N   1      35.289   9.858  14.126  0.00  0.00    -0.398 N 
HETATM   13  H   UNK N   1      34.682   9.902  13.352  0.00  0.00     0.156 HD
HETATM   14  H   UNK N   1      35.911   9.101  14.221  0.00  0.00     0.156 HD
ENDBRANCH  11  12
ENDBRANCH   1   4
BRANCH   1  15
HETATM   15  N   UNK N   1      34.804  14.237  12.011  0.00  0.00    -0.192 NA
HETATM   16  C   UNK N   1      35.760  15.338  12.206  0.00  0.00     0.109 C 
HETATM   17  C   UNK N   1      35.971  16.033  10.880  0.00  0.00     0.018 C 
HETATM   18  C   UNK N   1      35.630  14.976   9.874  0.00  0.00     0.033 C 
HETATM   19  C   UNK N   1      34.542  14.176  10.552  0.00  0.00     0.172 C 
BRANCH  19  20
HETATM   20  C   UNK N   1      34.420  12.838   9.859  0.00  0.00     0.159 C 
HETATM   21  O   UNK N   1      35.356  12.299   9.322  0.00  0.00    -0.649 OA
BRANCH  20  22
HETATM   22  O   UNK N   1      33.202  12.249   9.811  0.00  0.00    -0.775 OA
HETATM   23  H   UNK N   1      33.019  11.506  10.352  0.00  0.00     0.167 HD
ENDBRANCH  20  22
ENDBRANCH  19  20
ENDBRANCH   1  15
TORSDOF 5
ENDMDL
