REMARK  5 active torsions:
REMARK  status: ('A' for Active; 'I' for Inactive)
REMARK    1  A    between atoms: C_4  and  S_10 
REMARK    2  A    between atoms: C_5  and  N_9 
REMARK    3  A    between atoms: S_10  and  N_13 
REMARK    4  A    between atoms: C_17  and  C_18 
REMARK    5  A    between atoms: C_18  and  O_19 
ROOT
HETATM    1  S   UNK N   1      -0.109  -0.669   0.386  0.00  0.00     0.246 S 
HETATM    2  O   UNK N   1       0.365  -1.223  -0.970  0.00  0.00    -0.206 OA
HETATM    3  O   UNK N   1       0.152  -2.064   0.984  0.00  0.00    -0.206 OA
ENDROOT
BRANCH   1   4
HETATM    4  C   UNK N   1       1.534   0.107   0.149  0.00  0.00     0.101 A 
HETATM    5  C   UNK N   1       2.679  -0.714   0.215  0.00  0.00     0.035 A 
HETATM    6  C   UNK N   1       3.960  -0.185   0.064  0.00  0.00    -0.039 A 
HETATM    7  C   UNK N   1       5.132  -1.104   0.114  0.00  0.00     0.050 C 
HETATM    8  C   UNK N   1       4.124   1.193  -0.131  0.00  0.00     0.042 A 
HETATM    9  C   UNK N   1       3.000   2.022  -0.183  0.00  0.00     0.054 A 
HETATM   10 Cl   UNK N   1       5.720   1.905  -0.314  0.00  0.00    -0.084 Cl
HETATM   11  C   UNK N   1       1.711   1.493  -0.046  0.00  0.00     0.050 A 
BRANCH  11  12
HETATM   12  N   UNK N   1       0.611   2.367  -0.107  0.00  0.00    -0.398 N 
HETATM   13  H   UNK N   1       0.757   3.340  -0.150  0.00  0.00     0.156 HD
HETATM   14  H   UNK N   1      -0.304   2.006  -0.107  0.00  0.00     0.156 HD
ENDBRANCH  11  12
ENDBRANCH   1   4
BRANCH   1  15
HETATM   15  N   UNK N   1      -1.667  -0.840  -0.496  0.00  0.00    -0.192 NA
HETATM   16  C   UNK N   1      -2.199  -2.203  -0.346  0.00  0.00     0.109 C 
HETATM   17  C   UNK N   1      -3.700  -2.119  -0.186  0.00  0.00     0.018 C 
HETATM   18  C   UNK N   1      -3.917  -0.737   0.353  0.00  0.00     0.033 C 
HETATM   19  C   UNK N   1      -2.817   0.074  -0.292  0.00  0.00     0.172 C 
BRANCH  19  20
HETATM   20  C   UNK N   1      -2.638   1.356   0.489  0.00  0.00     0.159 C 
HETATM   21  O   UNK N   1      -1.626   1.610   1.094  0.00  0.00    -0.649 OA
BRANCH  20  22
HETATM   22  O   UNK N   1      -3.672   2.228   0.536  0.00  0.00    -0.775 OA
HETATM   23  H   UNK N   1      -3.507   3.150   0.568  0.00  0.00     0.167 HD
ENDBRANCH  20  22
ENDBRANCH  19  20
ENDBRANCH   1  15
TORSDOF 5
