MODEL 1
REMARK VINA RESULT:      -8.2      0.000      0.000
REMARK  6 active torsions:
REMARK  status: ('A' for Active; 'I' for Inactive)
REMARK    1  A    between atoms: O_11  and  C_1 
REMARK    2  A    between atoms: C_10  and  C_27 
REMARK    3  A    between atoms: C_12  and  O_11 
REMARK    4  A    between atoms: O_23  and  C_20 
REMARK    5  A    between atoms: O_24  and  C_21 
REMARK       I    between atoms: C_27  and  N_28 
REMARK    6  A    between atoms: N_28  and  C_29 
ROOT
HETATM    1  C   UNK N   1      27.213  17.099   5.412  0.00  0.00     0.076 A 
HETATM    2  C   UNK N   1      27.425  18.289   4.689  0.00  0.00     0.049 A 
HETATM    3  C   UNK N   1      26.327  18.955   4.099  0.00  0.00    -0.022 A 
HETATM    4  C   UNK N   1      25.022  18.427   4.256  0.00  0.00    -0.010 A 
HETATM    5  C   UNK N   1      24.866  17.212   4.905  0.00  0.00     0.016 A 
HETATM    6  C   UNK N   1      25.932  16.558   5.457  0.00  0.00     0.038 A 
HETATM    7  C   UNK N   1      26.504  20.160   3.416  0.00  0.00     0.012 A 
HETATM    8  C   UNK N   1      25.396  20.838   2.895  0.00  0.00     0.002 A 
HETATM    9  C   UNK N   1      24.099  20.343   3.094  0.00  0.00     0.018 A 
HETATM   10  C   UNK N   1      23.891  19.140   3.782  0.00  0.00     0.043 A 
ENDROOT
BRANCH   1  11
HETATM   11  O   UNK N   1      28.232  16.500   6.091  0.00  0.00    -0.310 OA
BRANCH  11  12
HETATM   12  C   UNK N   1      28.843  17.002   7.218  0.00  0.00     0.090 A 
HETATM   13  C   UNK N   1      28.125  17.282   8.399  0.00  0.00     0.055 A 
HETATM   14  C   UNK N   1      28.771  17.773   9.529  0.00  0.00     0.091 A 
HETATM   15  N   UNK N   1      30.108  17.992   9.500  0.00  0.00    -0.365 N 
HETATM   16  C   UNK N   1      30.837  17.755   8.380  0.00  0.00     0.048 A 
ATOM     17  HN  UNK N   1      30.575  18.342  10.338  1.00  0.00     0.165 HD
HETATM   18  C   UNK N   1      30.217  17.262   7.210  0.00  0.00     0.027 A 
HETATM   19  C   UNK N   1      32.205  17.998   8.387  0.00  0.00     0.070 A 
HETATM   20  C   UNK N   1      30.981  17.036   6.066  0.00  0.00     0.056 A 
HETATM   21  C   UNK N   1      32.355  17.288   6.056  0.00  0.00     0.102 A 
HETATM   22  C   UNK N   1      32.982  17.770   7.240  0.00  0.00     0.103 A 
BRANCH  21  23
HETATM   23  O   UNK N   1      33.019  17.053   4.896  0.00  0.00    -0.353 OA
HETATM   24  C   UNK N   1      32.494  17.192   3.633  0.00  0.00     0.210 C 
ENDBRANCH  21  23
BRANCH  22  25
HETATM   25  O   UNK N   1      34.317  18.004   7.267  0.00  0.00    -0.353 OA
HETATM   26  C   UNK N   1      34.957  18.615   8.322  0.00  0.00     0.210 C 
ENDBRANCH  22  25
ENDBRANCH  11  12
ENDBRANCH   1  11
BRANCH  10  27
HETATM   27  C   UNK N   1      22.494  18.690   4.102  0.00  0.00     0.252 C 
HETATM   28  O   UNK N   1      22.140  18.562   5.269  0.00  0.00    -0.268 OA
HETATM   29  N   UNK N   1      21.664  18.322   3.096  0.00  0.00    -0.352 N 
HETATM   30  H   UNK N   1      21.976  18.486   2.177  0.00  0.00     0.163 HD
BRANCH  29  31
HETATM   31  C   UNK N   1      20.374  17.714   3.246  0.00  0.00     0.084 A 
HETATM   32  C   UNK N   1      19.904  17.269   1.870  0.00  0.00     0.027 A 
HETATM   33  C   UNK N   1      20.485  16.258   2.827  0.00  0.00     0.027 A 
ENDBRANCH  29  31
ENDBRANCH  10  27
TORSDOF 6
ENDMDL
MODEL 2
REMARK VINA RESULT:      -8.1      2.531      9.550
REMARK  6 active torsions:
REMARK  status: ('A' for Active; 'I' for Inactive)
REMARK    1  A    between atoms: O_11  and  C_1 
REMARK    2  A    between atoms: C_10  and  C_27 
REMARK    3  A    between atoms: C_12  and  O_11 
REMARK    4  A    between atoms: O_23  and  C_20 
REMARK    5  A    between atoms: O_24  and  C_21 
REMARK       I    between atoms: C_27  and  N_28 
REMARK    6  A    between atoms: N_28  and  C_29 
ROOT
HETATM    1  C   UNK N   1      29.540  17.235   7.389  0.00  0.00     0.076 A 
HETATM    2  C   UNK N   1      30.255  16.866   6.233  0.00  0.00     0.049 A 
HETATM    3  C   UNK N   1      31.667  16.919   6.236  0.00  0.00    -0.022 A 
HETATM    4  C   UNK N   1      32.349  17.326   7.408  0.00  0.00    -0.010 A 
HETATM    5  C   UNK N   1      31.607  17.759   8.497  0.00  0.00     0.016 A 
HETATM    6  C   UNK N   1      30.241  17.728   8.485  0.00  0.00     0.038 A 
HETATM    7  C   UNK N   1      32.400  16.514   5.119  0.00  0.00     0.012 A 
HETATM    8  C   UNK N   1      33.800  16.512   5.164  0.00  0.00     0.002 A 
HETATM    9  C   UNK N   1      34.475  16.867   6.340  0.00  0.00     0.018 A 
HETATM   10  C   UNK N   1      33.765  17.270   7.479  0.00  0.00     0.043 A 
ENDROOT
BRANCH   1  11
HETATM   11  O   UNK N   1      28.187  17.081   7.455  0.00  0.00    -0.310 OA
BRANCH  11  12
HETATM   12  C   UNK N   1      27.379  16.673   6.419  0.00  0.00     0.090 A 
HETATM   13  C   UNK N   1      27.100  15.312   6.175  0.00  0.00     0.055 A 
HETATM   14  C   UNK N   1      26.266  14.928   5.131  0.00  0.00     0.091 A 
HETATM   15  N   UNK N   1      25.714  15.870   4.327  0.00  0.00    -0.365 N 
HETATM   16  C   UNK N   1      25.969  17.191   4.512  0.00  0.00     0.048 A 
ATOM     17  HN  UNK N   1      25.094  15.580   3.571  1.00  0.00     0.165 HD
HETATM   18  C   UNK N   1      26.815  17.619   5.559  0.00  0.00     0.027 A 
HETATM   19  C   UNK N   1      25.389  18.126   3.664  0.00  0.00     0.070 A 
HETATM   20  C   UNK N   1      27.075  18.980   5.724  0.00  0.00     0.056 A 
HETATM   21  C   UNK N   1      26.508  19.930   4.870  0.00  0.00     0.102 A 
HETATM   22  C   UNK N   1      25.642  19.498   3.826  0.00  0.00     0.103 A 
BRANCH  21  23
HETATM   23  O   UNK N   1      26.824  21.231   5.095  0.00  0.00    -0.353 OA
HETATM   24  C   UNK N   1      27.219  21.760   6.300  0.00  0.00     0.210 C 
ENDBRANCH  21  23
BRANCH  22  25
HETATM   25  O   UNK N   1      25.062  20.398   2.994  0.00  0.00    -0.353 OA
HETATM   26  C   UNK N   1      23.698  20.547   2.873  0.00  0.00     0.210 C 
ENDBRANCH  22  25
ENDBRANCH  11  12
ENDBRANCH   1  11
BRANCH  10  27
HETATM   27  C   UNK N   1      34.493  17.518   8.769  0.00  0.00     0.252 C 
HETATM   28  O   UNK N   1      35.165  18.533   8.912  0.00  0.00    -0.268 OA
HETATM   29  N   UNK N   1      34.490  16.564   9.732  0.00  0.00    -0.352 N 
HETATM   30  H   UNK N   1      33.899  15.790   9.592  0.00  0.00     0.163 HD
BRANCH  29  31
HETATM   31  C   UNK N   1      35.270  16.577  10.935  0.00  0.00     0.084 A 
HETATM   32  C   UNK N   1      35.163  15.203  11.576  0.00  0.00     0.027 A 
HETATM   33  C   UNK N   1      36.394  15.567  10.783  0.00  0.00     0.027 A 
ENDBRANCH  29  31
ENDBRANCH  10  27
TORSDOF 6
ENDMDL
MODEL 3
REMARK VINA RESULT:      -7.8      4.817      8.590
REMARK  6 active torsions:
REMARK  status: ('A' for Active; 'I' for Inactive)
REMARK    1  A    between atoms: O_11  and  C_1 
REMARK    2  A    between atoms: C_10  and  C_27 
REMARK    3  A    between atoms: C_12  and  O_11 
REMARK    4  A    between atoms: O_23  and  C_20 
REMARK    5  A    between atoms: O_24  and  C_21 
REMARK       I    between atoms: C_27  and  N_28 
REMARK    6  A    between atoms: N_28  and  C_29 
ROOT
HETATM    1  C   UNK N   1      21.471  16.734   5.406  0.00  0.00     0.076 A 
HETATM    2  C   UNK N   1      20.874  17.665   4.534  0.00  0.00     0.049 A 
HETATM    3  C   UNK N   1      21.659  18.688   3.957  0.00  0.00    -0.022 A 
HETATM    4  C   UNK N   1      23.043  18.756   4.247  0.00  0.00    -0.010 A 
HETATM    5  C   UNK N   1      23.577  17.871   5.173  0.00  0.00     0.016 A 
HETATM    6  C   UNK N   1      22.811  16.896   5.747  0.00  0.00     0.038 A 
HETATM    7  C   UNK N   1      21.101  19.595   3.054  0.00  0.00     0.012 A 
HETATM    8  C   UNK N   1      21.909  20.561   2.442  0.00  0.00     0.002 A 
HETATM    9  C   UNK N   1      23.289  20.596   2.690  0.00  0.00     0.018 A 
HETATM   10  C   UNK N   1      23.878  19.694   3.586  0.00  0.00     0.043 A 
ENDROOT
BRANCH   1  11
HETATM   11  O   UNK N   1      20.768  15.668   5.883  0.00  0.00    -0.310 OA
BRANCH  11  12
HETATM   12  C   UNK N   1      20.288  15.540   7.166  0.00  0.00     0.090 A 
HETATM   13  C   UNK N   1      19.282  16.386   7.680  0.00  0.00     0.055 A 
HETATM   14  C   UNK N   1      18.804  16.223   8.975  0.00  0.00     0.091 A 
HETATM   15  N   UNK N   1      19.310  15.243   9.763  0.00  0.00    -0.365 N 
HETATM   16  C   UNK N   1      20.292  14.418   9.319  0.00  0.00     0.048 A 
ATOM     17  HN  UNK N   1      18.944  15.124  10.709  1.00  0.00     0.165 HD
HETATM   18  C   UNK N   1      20.808  14.555   8.011  0.00  0.00     0.027 A 
HETATM   19  C   UNK N   1      20.789  13.429  10.159  0.00  0.00     0.070 A 
HETATM   20  C   UNK N   1      21.825  13.705   7.577  0.00  0.00     0.056 A 
HETATM   21  C   UNK N   1      22.343  12.715   8.416  0.00  0.00     0.102 A 
HETATM   22  C   UNK N   1      21.811  12.567   9.728  0.00  0.00     0.103 A 
BRANCH  21  23
HETATM   23  O   UNK N   1      23.340  11.941   7.918  0.00  0.00    -0.353 OA
HETATM   24  C   UNK N   1      23.239  11.113   6.825  0.00  0.00     0.210 C 
ENDBRANCH  21  23
BRANCH  22  25
HETATM   25  O   UNK N   1      22.279  11.603  10.558  0.00  0.00    -0.353 OA
HETATM   26  C   UNK N   1      23.131  11.856  11.609  0.00  0.00     0.210 C 
ENDBRANCH  22  25
ENDBRANCH  11  12
ENDBRANCH   1  11
BRANCH  10  27
HETATM   27  C   UNK N   1      25.371  19.656   3.742  0.00  0.00     0.252 C 
HETATM   28  O   UNK N   1      26.029  18.794   3.172  0.00  0.00    -0.268 OA
HETATM   29  N   UNK N   1      25.974  20.513   4.602  0.00  0.00    -0.352 N 
HETATM   30  H   UNK N   1      25.412  21.216   5.000  0.00  0.00     0.163 HD
BRANCH  29  31
HETATM   31  C   UNK N   1      27.355  20.489   4.987  0.00  0.00     0.084 A 
HETATM   32  C   UNK N   1      27.504  21.330   6.245  0.00  0.00     0.027 A 
HETATM   33  C   UNK N   1      27.455  19.826   6.350  0.00  0.00     0.027 A 
ENDBRANCH  29  31
ENDBRANCH  10  27
TORSDOF 6
ENDMDL
MODEL 4
REMARK VINA RESULT:      -7.7      2.700      9.607
REMARK  6 active torsions:
REMARK  status: ('A' for Active; 'I' for Inactive)
REMARK    1  A    between atoms: O_11  and  C_1 
REMARK    2  A    between atoms: C_10  and  C_27 
REMARK    3  A    between atoms: C_12  and  O_11 
REMARK    4  A    between atoms: O_23  and  C_20 
REMARK    5  A    between atoms: O_24  and  C_21 
REMARK       I    between atoms: C_27  and  N_28 
REMARK    6  A    between atoms: N_28  and  C_29 
ROOT
HETATM    1  C   UNK N   1      29.597  17.796   7.321  0.00  0.00     0.076 A 
HETATM    2  C   UNK N   1      30.287  17.266   6.213  0.00  0.00     0.049 A 
HETATM    3  C   UNK N   1      31.689  17.103   6.273  0.00  0.00    -0.022 A 
HETATM    4  C   UNK N   1      32.385  17.458   7.455  0.00  0.00    -0.010 A 
HETATM    5  C   UNK N   1      31.681  18.051   8.493  0.00  0.00     0.016 A 
HETATM    6  C   UNK N   1      30.328  18.228   8.425  0.00  0.00     0.038 A 
HETATM    7  C   UNK N   1      32.390  16.537   5.206  0.00  0.00     0.012 A 
HETATM    8  C   UNK N   1      33.770  16.323   5.311  0.00  0.00     0.002 A 
HETATM    9  C   UNK N   1      34.450  16.627   6.498  0.00  0.00     0.018 A 
HETATM   10  C   UNK N   1      33.771  17.188   7.588  0.00  0.00     0.043 A 
ENDROOT
BRANCH   1  11
HETATM   11  O   UNK N   1      28.235  17.854   7.338  0.00  0.00    -0.310 OA
BRANCH  11  12
HETATM   12  C   UNK N   1      27.452  18.456   6.380  0.00  0.00     0.090 A 
HETATM   13  C   UNK N   1      27.387  19.857   6.234  0.00  0.00     0.055 A 
HETATM   14  C   UNK N   1      26.600  20.438   5.246  0.00  0.00     0.091 A 
HETATM   15  N   UNK N   1      25.876  19.653   4.412  0.00  0.00    -0.365 N 
HETATM   16  C   UNK N   1      25.891  18.301   4.526  0.00  0.00     0.048 A 
ATOM     17  HN  UNK N   1      25.310  20.088   3.682  1.00  0.00     0.165 HD
HETATM   18  C   UNK N   1      26.675  17.673   5.521  0.00  0.00     0.027 A 
HETATM   19  C   UNK N   1      25.132  17.530   3.655  0.00  0.00     0.070 A 
HETATM   20  C   UNK N   1      26.668  16.283   5.630  0.00  0.00     0.056 A 
HETATM   21  C   UNK N   1      25.899  15.497   4.769  0.00  0.00     0.102 A 
HETATM   22  C   UNK N   1      25.122  16.128   3.757  0.00  0.00     0.103 A 
BRANCH  21  23
HETATM   23  O   UNK N   1      25.940  14.152   4.954  0.00  0.00    -0.353 OA
HETATM   24  C   UNK N   1      27.055  13.361   4.814  0.00  0.00     0.210 C 
ENDBRANCH  21  23
BRANCH  22  25
HETATM   25  O   UNK N   1      24.381  15.391   2.894  0.00  0.00    -0.353 OA
HETATM   26  C   UNK N   1      24.894  14.825   1.748  0.00  0.00     0.210 C 
ENDBRANCH  22  25
ENDBRANCH  11  12
ENDBRANCH   1  11
BRANCH  10  27
HETATM   27  C   UNK N   1      34.483  17.385   8.896  0.00  0.00     0.252 C 
HETATM   28  O   UNK N   1      35.191  18.370   9.071  0.00  0.00    -0.268 OA
HETATM   29  N   UNK N   1      34.427  16.413   9.840  0.00  0.00    -0.352 N 
HETATM   30  H   UNK N   1      33.810  15.665   9.673  0.00  0.00     0.163 HD
BRANCH  29  31
HETATM   31  C   UNK N   1      35.183  16.374  11.057  0.00  0.00     0.084 A 
HETATM   32  C   UNK N   1      35.121  14.956  11.600  0.00  0.00     0.027 A 
HETATM   33  C   UNK N   1      36.350  15.422  10.859  0.00  0.00     0.027 A 
ENDBRANCH  29  31
ENDBRANCH  10  27
TORSDOF 6
ENDMDL
MODEL 5
REMARK VINA RESULT:      -7.6      4.355      8.471
REMARK  6 active torsions:
REMARK  status: ('A' for Active; 'I' for Inactive)
REMARK    1  A    between atoms: O_11  and  C_1 
REMARK    2  A    between atoms: C_10  and  C_27 
REMARK    3  A    between atoms: C_12  and  O_11 
REMARK    4  A    between atoms: O_23  and  C_20 
REMARK    5  A    between atoms: O_24  and  C_21 
REMARK       I    between atoms: C_27  and  N_28 
REMARK    6  A    between atoms: N_28  and  C_29 
ROOT
HETATM    1  C   UNK N   1      23.657  16.489   5.363  0.00  0.00     0.076 A 
HETATM    2  C   UNK N   1      23.554  17.780   4.809  0.00  0.00     0.049 A 
HETATM    3  C   UNK N   1      24.724  18.487   4.455  0.00  0.00    -0.022 A 
HETATM    4  C   UNK N   1      25.991  17.882   4.644  0.00  0.00    -0.010 A 
HETATM    5  C   UNK N   1      26.054  16.644   5.267  0.00  0.00     0.016 A 
HETATM    6  C   UNK N   1      24.921  15.971   5.629  0.00  0.00     0.038 A 
HETATM    7  C   UNK N   1      24.647  19.748   3.861  0.00  0.00     0.012 A 
HETATM    8  C   UNK N   1      25.816  20.405   3.457  0.00  0.00     0.002 A 
HETATM    9  C   UNK N   1      27.066  19.785   3.599  0.00  0.00     0.018 A 
HETATM   10  C   UNK N   1      27.173  18.516   4.183  0.00  0.00     0.043 A 
ENDROOT
BRANCH   1  11
HETATM   11  O   UNK N   1      22.546  15.737   5.603  0.00  0.00    -0.310 OA
BRANCH  11  12
HETATM   12  C   UNK N   1      21.761  15.813   6.731  0.00  0.00     0.090 A 
HETATM   13  C   UNK N   1      20.849  16.869   6.942  0.00  0.00     0.055 A 
HETATM   14  C   UNK N   1      20.055  16.911   8.082  0.00  0.00     0.091 A 
HETATM   15  N   UNK N   1      20.158  15.931   9.013  0.00  0.00    -0.365 N 
HETATM   16  C   UNK N   1      21.035  14.906   8.863  0.00  0.00     0.048 A 
ATOM     17  HN  UNK N   1      19.564  15.965   9.842  1.00  0.00     0.165 HD
HETATM   18  C   UNK N   1      21.862  14.830   7.720  0.00  0.00     0.027 A 
HETATM   19  C   UNK N   1      21.116  13.923   9.841  0.00  0.00     0.070 A 
HETATM   20  C   UNK N   1      22.766  13.776   7.589  0.00  0.00     0.056 A 
HETATM   21  C   UNK N   1      22.866  12.788   8.572  0.00  0.00     0.102 A 
HETATM   22  C   UNK N   1      22.021  12.856   9.716  0.00  0.00     0.103 A 
BRANCH  21  23
HETATM   23  O   UNK N   1      23.781  11.805   8.371  0.00  0.00    -0.353 OA
HETATM   24  C   UNK N   1      23.569  10.652   7.654  0.00  0.00     0.210 C 
ENDBRANCH  21  23
BRANCH  22  25
HETATM   25  O   UNK N   1      22.081  11.901  10.676  0.00  0.00    -0.353 OA
HETATM   26  C   UNK N   1      22.929  11.968  11.759  0.00  0.00     0.210 C 
ENDBRANCH  22  25
ENDBRANCH  11  12
ENDBRANCH   1  11
BRANCH  10  27
HETATM   27  C   UNK N   1      28.498  17.810   4.207  0.00  0.00     0.252 C 
HETATM   28  O   UNK N   1      28.807  17.047   3.300  0.00  0.00    -0.268 OA
HETATM   29  N   UNK N   1      29.303  17.936   5.292  0.00  0.00    -0.352 N 
HETATM   30  H   UNK N   1      29.035  18.595   5.972  0.00  0.00     0.163 HD
BRANCH  29  31
HETATM   31  C   UNK N   1      30.507  17.199   5.539  0.00  0.00     0.084 A 
HETATM   32  C   UNK N   1      30.723  17.148   7.043  0.00  0.00     0.027 A 
HETATM   33  C   UNK N   1      30.145  15.952   6.327  0.00  0.00     0.027 A 
ENDBRANCH  29  31
ENDBRANCH  10  27
TORSDOF 6
ENDMDL
MODEL 6
REMARK VINA RESULT:      -7.4      2.912      9.452
REMARK  6 active torsions:
REMARK  status: ('A' for Active; 'I' for Inactive)
REMARK    1  A    between atoms: O_11  and  C_1 
REMARK    2  A    between atoms: C_10  and  C_27 
REMARK    3  A    between atoms: C_12  and  O_11 
REMARK    4  A    between atoms: O_23  and  C_20 
REMARK    5  A    between atoms: O_24  and  C_21 
REMARK       I    between atoms: C_27  and  N_28 
REMARK    6  A    between atoms: N_28  and  C_29 
ROOT
HETATM    1  C   UNK N   1      24.346  16.179   4.592  0.00  0.00     0.076 A 
HETATM    2  C   UNK N   1      24.506  17.389   3.890  0.00  0.00     0.049 A 
HETATM    3  C   UNK N   1      25.626  18.209   4.153  0.00  0.00    -0.022 A 
HETATM    4  C   UNK N   1      26.585  17.797   5.109  0.00  0.00    -0.010 A 
HETATM    5  C   UNK N   1      26.350  16.640   5.838  0.00  0.00     0.016 A 
HETATM    6  C   UNK N   1      25.255  15.859   5.597  0.00  0.00     0.038 A 
HETATM    7  C   UNK N   1      25.832  19.390   3.437  0.00  0.00     0.012 A 
HETATM    8  C   UNK N   1      26.981  20.156   3.666  0.00  0.00     0.002 A 
HETATM    9  C   UNK N   1      27.956  19.723   4.576  0.00  0.00     0.018 A 
HETATM   10  C   UNK N   1      27.780  18.538   5.303  0.00  0.00     0.043 A 
ENDROOT
BRANCH   1  11
HETATM   11  O   UNK N   1      23.343  15.312   4.277  0.00  0.00    -0.310 OA
BRANCH  11  12
HETATM   12  C   UNK N   1      22.027  15.657   4.067  0.00  0.00     0.090 A 
HETATM   13  C   UNK N   1      21.511  15.899   2.778  0.00  0.00     0.055 A 
HETATM   14  C   UNK N   1      20.173  16.230   2.593  0.00  0.00     0.091 A 
HETATM   15  N   UNK N   1      19.348  16.328   3.664  0.00  0.00    -0.365 N 
HETATM   16  C   UNK N   1      19.805  16.122   4.926  0.00  0.00     0.048 A 
ATOM     17  HN  UNK N   1      18.365  16.560   3.519  1.00  0.00     0.165 HD
HETATM   18  C   UNK N   1      21.159  15.790   5.155  0.00  0.00     0.027 A 
HETATM   19  C   UNK N   1      18.930  16.237   6.000  0.00  0.00     0.070 A 
HETATM   20  C   UNK N   1      21.611  15.594   6.459  0.00  0.00     0.056 A 
HETATM   21  C   UNK N   1      20.745  15.720   7.548  0.00  0.00     0.102 A 
HETATM   22  C   UNK N   1      19.377  16.039   7.316  0.00  0.00     0.103 A 
BRANCH  21  23
HETATM   23  O   UNK N   1      21.272  15.526   8.784  0.00  0.00    -0.353 OA
HETATM   24  C   UNK N   1      21.267  14.338   9.477  0.00  0.00     0.210 C 
ENDBRANCH  21  23
BRANCH  22  25
HETATM   25  O   UNK N   1      18.509  16.148   8.351  0.00  0.00    -0.353 OA
HETATM   26  C   UNK N   1      18.234  17.337   8.988  0.00  0.00     0.210 C 
ENDBRANCH  22  25
ENDBRANCH  11  12
ENDBRANCH   1  11
BRANCH  10  27
HETATM   27  C   UNK N   1      28.889  18.018   6.173  0.00  0.00     0.252 C 
HETATM   28  O   UNK N   1      29.727  17.252   5.712  0.00  0.00    -0.268 OA
HETATM   29  N   UNK N   1      28.893  18.314   7.496  0.00  0.00    -0.352 N 
HETATM   30  H   UNK N   1      28.229  18.968   7.810  0.00  0.00     0.163 HD
BRANCH  29  31
HETATM   31  C   UNK N   1      29.776  17.760   8.481  0.00  0.00     0.084 A 
HETATM   32  C   UNK N   1      29.738  18.664   9.703  0.00  0.00     0.027 A 
HETATM   33  C   UNK N   1      28.949  17.378   9.697  0.00  0.00     0.027 A 
ENDBRANCH  29  31
ENDBRANCH  10  27
TORSDOF 6
ENDMDL
MODEL 7
REMARK VINA RESULT:      -7.4      4.467      6.762
REMARK  6 active torsions:
REMARK  status: ('A' for Active; 'I' for Inactive)
REMARK    1  A    between atoms: O_11  and  C_1 
REMARK    2  A    between atoms: C_10  and  C_27 
REMARK    3  A    between atoms: C_12  and  O_11 
REMARK    4  A    between atoms: O_23  and  C_20 
REMARK    5  A    between atoms: O_24  and  C_21 
REMARK       I    between atoms: C_27  and  N_28 
REMARK    6  A    between atoms: N_28  and  C_29 
ROOT
HETATM    1  C   UNK N   1      22.996  16.871   5.007  0.00  0.00     0.076 A 
HETATM    2  C   UNK N   1      22.050  17.536   5.811  0.00  0.00     0.049 A 
HETATM    3  C   UNK N   1      21.379  16.829   6.834  0.00  0.00    -0.022 A 
HETATM    4  C   UNK N   1      21.677  15.461   7.050  0.00  0.00    -0.010 A 
HETATM    5  C   UNK N   1      22.553  14.822   6.185  0.00  0.00     0.016 A 
HETATM    6  C   UNK N   1      23.186  15.503   5.183  0.00  0.00     0.038 A 
HETATM    7  C   UNK N   1      20.472  17.476   7.674  0.00  0.00     0.012 A 
HETATM    8  C   UNK N   1      19.865  16.774   8.723  0.00  0.00     0.002 A 
HETATM    9  C   UNK N   1      20.198  15.434   8.969  0.00  0.00     0.018 A 
HETATM   10  C   UNK N   1      21.111  14.761   8.146  0.00  0.00     0.043 A 
ENDROOT
BRANCH   1  11
HETATM   11  O   UNK N   1      23.745  17.553   4.094  0.00  0.00    -0.310 OA
BRANCH  11  12
HETATM   12  C   UNK N   1      24.986  18.098   4.329  0.00  0.00     0.090 A 
HETATM   13  C   UNK N   1      25.153  19.321   5.011  0.00  0.00     0.055 A 
HETATM   14  C   UNK N   1      26.421  19.840   5.249  0.00  0.00     0.091 A 
HETATM   15  N   UNK N   1      27.517  19.169   4.818  0.00  0.00    -0.365 N 
HETATM   16  C   UNK N   1      27.405  17.998   4.141  0.00  0.00     0.048 A 
ATOM     17  HN  UNK N   1      28.444  19.552   5.007  1.00  0.00     0.165 HD
HETATM   18  C   UNK N   1      26.134  17.441   3.874  0.00  0.00     0.027 A 
HETATM   19  C   UNK N   1      28.551  17.342   3.710  0.00  0.00     0.070 A 
HETATM   20  C   UNK N   1      26.039  16.243   3.167  0.00  0.00     0.056 A 
HETATM   21  C   UNK N   1      27.184  15.580   2.717  0.00  0.00     0.102 A 
HETATM   22  C   UNK N   1      28.465  16.133   2.999  0.00  0.00     0.103 A 
BRANCH  21  23
HETATM   23  O   UNK N   1      27.000  14.427   2.024  0.00  0.00    -0.353 OA
HETATM   24  C   UNK N   1      26.229  13.364   2.433  0.00  0.00     0.210 C 
ENDBRANCH  21  23
BRANCH  22  25
HETATM   25  O   UNK N   1      29.594  15.503   2.593  0.00  0.00    -0.353 OA
HETATM   26  C   UNK N   1      30.824  15.702   3.178  0.00  0.00     0.210 C 
ENDBRANCH  22  25
ENDBRANCH  11  12
ENDBRANCH   1  11
BRANCH  10  27
HETATM   27  C   UNK N   1      21.557  13.371   8.499  0.00  0.00     0.252 C 
HETATM   28  O   UNK N   1      20.972  12.399   8.035  0.00  0.00    -0.268 OA
HETATM   29  N   UNK N   1      22.538  13.198   9.419  0.00  0.00    -0.352 N 
HETATM   30  H   UNK N   1      23.008  14.005   9.727  0.00  0.00     0.163 HD
BRANCH  29  31
HETATM   31  C   UNK N   1      22.953  11.947   9.984  0.00  0.00     0.084 A 
HETATM   32  C   UNK N   1      24.219  12.196  10.789  0.00  0.00     0.027 A 
HETATM   33  C   UNK N   1      22.892  12.068  11.497  0.00  0.00     0.027 A 
ENDBRANCH  29  31
ENDBRANCH  10  27
TORSDOF 6
ENDMDL
MODEL 8
REMARK VINA RESULT:      -7.3      4.721     11.305
REMARK  6 active torsions:
REMARK  status: ('A' for Active; 'I' for Inactive)
REMARK    1  A    between atoms: O_11  and  C_1 
REMARK    2  A    between atoms: C_10  and  C_27 
REMARK    3  A    between atoms: C_12  and  O_11 
REMARK    4  A    between atoms: O_23  and  C_20 
REMARK    5  A    between atoms: O_24  and  C_21 
REMARK       I    between atoms: C_27  and  N_28 
REMARK    6  A    between atoms: N_28  and  C_29 
ROOT
HETATM    1  C   UNK N   1      33.496  16.272   8.648  0.00  0.00     0.076 A 
HETATM    2  C   UNK N   1      33.140  14.947   8.330  0.00  0.00     0.049 A 
HETATM    3  C   UNK N   1      33.714  13.875   9.050  0.00  0.00    -0.022 A 
HETATM    4  C   UNK N   1      34.628  14.146  10.096  0.00  0.00    -0.010 A 
HETATM    5  C   UNK N   1      35.015  15.459  10.324  0.00  0.00     0.016 A 
HETATM    6  C   UNK N   1      34.475  16.493   9.612  0.00  0.00     0.038 A 
HETATM    7  C   UNK N   1      33.343  12.555   8.785  0.00  0.00     0.012 A 
HETATM    8  C   UNK N   1      33.873  11.512   9.554  0.00  0.00     0.002 A 
HETATM    9  C   UNK N   1      34.739  11.783  10.623  0.00  0.00     0.018 A 
HETATM   10  C   UNK N   1      35.122  13.099  10.916  0.00  0.00     0.043 A 
ENDROOT
BRANCH   1  11
HETATM   11  O   UNK N   1      32.872  17.328   8.053  0.00  0.00    -0.310 OA
BRANCH  11  12
HETATM   12  C   UNK N   1      32.496  17.390   6.731  0.00  0.00     0.090 A 
HETATM   13  C   UNK N   1      33.437  17.494   5.686  0.00  0.00     0.055 A 
HETATM   14  C   UNK N   1      33.029  17.538   4.357  0.00  0.00     0.091 A 
HETATM   15  N   UNK N   1      31.709  17.486   4.054  0.00  0.00    -0.365 N 
HETATM   16  C   UNK N   1      30.766  17.405   5.027  0.00  0.00     0.048 A 
ATOM     17  HN  UNK N   1      31.420  17.508   3.076  1.00  0.00     0.165 HD
HETATM   18  C   UNK N   1      31.140  17.364   6.389  0.00  0.00     0.027 A 
HETATM   19  C   UNK N   1      29.422  17.360   4.677  0.00  0.00     0.070 A 
HETATM   20  C   UNK N   1      30.156  17.293   7.374  0.00  0.00     0.056 A 
HETATM   21  C   UNK N   1      28.800  17.260   7.036  0.00  0.00     0.102 A 
HETATM   22  C   UNK N   1      28.424  17.285   5.663  0.00  0.00     0.103 A 
BRANCH  21  23
HETATM   23  O   UNK N   1      27.908  17.204   8.058  0.00  0.00    -0.353 OA
HETATM   24  C   UNK N   1      28.174  17.526   9.368  0.00  0.00     0.210 C 
ENDBRANCH  21  23
BRANCH  22  25
HETATM   25  O   UNK N   1      27.118  17.234   5.304  0.00  0.00    -0.353 OA
HETATM   26  C   UNK N   1      26.548  18.098   4.397  0.00  0.00     0.210 C 
ENDBRANCH  22  25
ENDBRANCH  11  12
ENDBRANCH   1  11
BRANCH  10  27
HETATM   27  C   UNK N   1      35.942  13.386  12.141  0.00  0.00     0.252 C 
HETATM   28  O   UNK N   1      37.165  13.431  12.069  0.00  0.00    -0.268 OA
HETATM   29  N   UNK N   1      35.329  13.486  13.347  0.00  0.00    -0.352 N 
HETATM   30  H   UNK N   1      34.345  13.490  13.348  0.00  0.00     0.163 HD
BRANCH  29  31
HETATM   31  C   UNK N   1      35.981  13.586  14.619  0.00  0.00     0.084 A 
HETATM   32  C   UNK N   1      35.020  13.071  15.679  0.00  0.00     0.027 A 
HETATM   33  C   UNK N   1      36.135  12.183  15.184  0.00  0.00     0.027 A 
ENDBRANCH  29  31
ENDBRANCH  10  27
TORSDOF 6
ENDMDL
MODEL 9
REMARK VINA RESULT:      -7.3      2.046      9.680
REMARK  6 active torsions:
REMARK  status: ('A' for Active; 'I' for Inactive)
REMARK    1  A    between atoms: O_11  and  C_1 
REMARK    2  A    between atoms: C_10  and  C_27 
REMARK    3  A    between atoms: C_12  and  O_11 
REMARK    4  A    between atoms: O_23  and  C_20 
REMARK    5  A    between atoms: O_24  and  C_21 
REMARK       I    between atoms: C_27  and  N_28 
REMARK    6  A    between atoms: N_28  and  C_29 
ROOT
HETATM    1  C   UNK N   1      28.375  17.360   5.294  0.00  0.00     0.076 A 
HETATM    2  C   UNK N   1      29.382  17.387   4.309  0.00  0.00     0.049 A 
HETATM    3  C   UNK N   1      30.740  17.349   4.694  0.00  0.00    -0.022 A 
HETATM    4  C   UNK N   1      31.076  17.266   6.067  0.00  0.00    -0.010 A 
HETATM    5  C   UNK N   1      30.059  17.323   7.009  0.00  0.00     0.016 A 
HETATM    6  C   UNK N   1      28.746  17.382   6.635  0.00  0.00     0.038 A 
HETATM    7  C   UNK N   1      31.755  17.328   3.735  0.00  0.00     0.012 A 
HETATM    8  C   UNK N   1      33.093  17.223   4.135  0.00  0.00     0.002 A 
HETATM    9  C   UNK N   1      33.423  17.089   5.491  0.00  0.00     0.018 A 
HETATM   10  C   UNK N   1      32.425  17.100   6.475  0.00  0.00     0.043 A 
ENDROOT
BRANCH   1  11
HETATM   11  O   UNK N   1      27.059  17.276   4.950  0.00  0.00    -0.310 OA
BRANCH  11  12
HETATM   12  C   UNK N   1      26.313  18.292   4.396  0.00  0.00     0.090 A 
HETATM   13  C   UNK N   1      26.907  19.450   3.854  0.00  0.00     0.055 A 
HETATM   14  C   UNK N   1      26.131  20.453   3.285  0.00  0.00     0.091 A 
HETATM   15  N   UNK N   1      24.781  20.326   3.254  0.00  0.00    -0.365 N 
HETATM   16  C   UNK N   1      24.164  19.238   3.781  0.00  0.00     0.048 A 
ATOM     17  HN  UNK N   1      24.220  21.062   2.824  1.00  0.00     0.165 HD
HETATM   18  C   UNK N   1      24.918  18.200   4.372  0.00  0.00     0.027 A 
HETATM   19  C   UNK N   1      22.778  19.146   3.734  0.00  0.00     0.070 A 
HETATM   20  C   UNK N   1      24.265  17.096   4.919  0.00  0.00     0.056 A 
HETATM   21  C   UNK N   1      22.871  16.998   4.890  0.00  0.00     0.102 A 
HETATM   22  C   UNK N   1      22.112  18.036   4.280  0.00  0.00     0.103 A 
BRANCH  21  23
HETATM   23  O   UNK N   1      22.317  15.896   5.457  0.00  0.00    -0.353 OA
HETATM   24  C   UNK N   1      22.183  15.674   6.807  0.00  0.00     0.210 C 
ENDBRANCH  21  23
BRANCH  22  25
HETATM   25  O   UNK N   1      20.761  17.959   4.219  0.00  0.00    -0.353 OA
HETATM   26  C   UNK N   1      20.036  18.246   3.084  0.00  0.00     0.210 C 
ENDBRANCH  22  25
ENDBRANCH  11  12
ENDBRANCH   1  11
BRANCH  10  27
HETATM   27  C   UNK N   1      32.779  16.823   7.908  0.00  0.00     0.252 C 
HETATM   28  O   UNK N   1      32.936  17.750   8.694  0.00  0.00    -0.268 OA
HETATM   29  N   UNK N   1      33.034  15.551   8.299  0.00  0.00    -0.352 N 
HETATM   30  H   UNK N   1      32.850  14.838   7.646  0.00  0.00     0.163 HD
BRANCH  29  31
HETATM   31  C   UNK N   1      33.546  15.147   9.576  0.00  0.00     0.084 A 
HETATM   32  C   UNK N   1      34.078  13.730   9.439  0.00  0.00     0.027 A 
HETATM   33  C   UNK N   1      35.037  14.895   9.430  0.00  0.00     0.027 A 
ENDBRANCH  29  31
ENDBRANCH  10  27
TORSDOF 6
ENDMDL
