MODEL 1
REMARK VINA RESULT:      -7.8      0.000      0.000
REMARK  5 active torsions:
REMARK  status: ('A' for Active; 'I' for Inactive)
REMARK    1  A    between atoms: C_10  and  C_12 
REMARK    2  A    between atoms: C_13  and  O_22 
REMARK    3  A    between atoms: N_16  and  C_24 
REMARK    4  A    between atoms: C_24  and  C_25 
REMARK    5  A    between atoms: C_25  and  C_26 
ROOT
HETATM    1  C   UNK N   1      22.518  15.916   6.439  0.00  0.00     0.111 A 
HETATM    2  C   UNK N   1      21.486  15.881   7.402  0.00  0.00     0.097 A 
HETATM    3  C   UNK N   1      21.381  14.800   8.277  0.00  0.00     0.025 A 
HETATM    4  C   UNK N   1      22.297  13.727   8.192  0.00  0.00     0.050 A 
HETATM    5  N   UNK N   1      23.290  13.728   7.241  0.00  0.00    -0.313 N 
HETATM    6  C   UNK N   1      23.413  14.810   6.368  0.00  0.00     0.265 A 
HETATM    7  C   UNK N   1      20.377  14.785   9.258  0.00  0.00     0.016 A 
HETATM    8  C   UNK N   1      20.275  13.723  10.155  0.00  0.00     0.001 A 
HETATM    9  C   UNK N   1      21.174  12.660  10.081  0.00  0.00     0.002 A 
HETATM   10  C   UNK N   1      22.174  12.660   9.106  0.00  0.00     0.031 A 
HETATM   11  O   UNK N   1      24.302  14.824   5.535  0.00  0.00    -0.267 OA
ENDROOT
BRANCH   1  12
HETATM   12  C   UNK N   1      22.696  17.123   5.543  0.00  0.00     0.134 A 
HETATM   13  N   UNK N   1      21.648  17.675   5.022  0.00  0.00    -0.265 N 
HETATM   14  S   UNK N   1      21.750  18.964   3.859  0.00  0.00     0.266 S 
ATOM     15  HN  UNK N   1      20.726  17.341   5.304  1.00  0.00     0.180 HD
HETATM   16  C   UNK N   1      23.431  19.428   3.692  0.00  0.00     0.106 A 
HETATM   17  O   UNK N   1      21.132  18.355   2.592  0.00  0.00    -0.200 OA
HETATM   18  O   UNK N   1      20.747  20.028   4.329  0.00  0.00    -0.200 OA
HETATM   19  C   UNK N   1      24.388  18.676   4.379  0.00  0.00     0.057 A 
HETATM   20  C   UNK N   1      23.809  20.495   2.872  0.00  0.00     0.027 A 
HETATM   21  C   UNK N   1      25.743  19.001   4.234  0.00  0.00     0.031 A 
HETATM   22  N   UNK N   1      24.022  17.581   5.218  0.00  0.00    -0.340 N 
HETATM   23  C   UNK N   1      26.129  20.068   3.415  0.00  0.00     0.002 A 
HETATM   24  C   UNK N   1      25.162  20.817   2.737  0.00  0.00     0.002 A 
HETATM   25  H   UNK N   1      24.765  17.078   5.624  0.00  0.00     0.167 HD
ENDBRANCH   1  12
BRANCH   2  26
HETATM   26  O   UNK N   1      20.607  16.897   7.512  0.00  0.00    -0.359 OA
HETATM   27  H   UNK N   1      20.081  16.987   8.282  0.00  0.00     0.217 HD
ENDBRANCH   2  26
BRANCH   5  28
HETATM   28  C   UNK N   1      24.202  12.552   7.217  0.00  0.00     0.133 C 
BRANCH  28  29
HETATM   29  C   UNK N   1      24.247  11.712   5.941  0.00  0.00     0.024 C 
BRANCH  29  30
HETATM   30  C   UNK N   1      23.513  10.397   6.131  0.00  0.00    -0.021 C 
HETATM   31  C   UNK N   1      22.027  10.627   5.960  0.00  0.00     0.009 C 
HETATM   32  C   UNK N   1      23.772   9.849   7.521  0.00  0.00     0.009 C 
ENDBRANCH  29  30
ENDBRANCH  28  29
ENDBRANCH   5  28
TORSDOF 5
ENDMDL
MODEL 2
REMARK VINA RESULT:      -7.7     11.210     12.853
REMARK  5 active torsions:
REMARK  status: ('A' for Active; 'I' for Inactive)
REMARK    1  A    between atoms: C_10  and  C_12 
REMARK    2  A    between atoms: C_13  and  O_22 
REMARK    3  A    between atoms: N_16  and  C_24 
REMARK    4  A    between atoms: C_24  and  C_25 
REMARK    5  A    between atoms: C_25  and  C_26 
ROOT
HETATM    1  C   UNK N   1      34.563  13.926   9.206  0.00  0.00     0.111 A 
HETATM    2  C   UNK N   1      33.876  12.693   9.209  0.00  0.00     0.097 A 
HETATM    3  C   UNK N   1      34.099  11.769  10.231  0.00  0.00     0.025 A 
HETATM    4  C   UNK N   1      35.026  12.057  11.257  0.00  0.00     0.050 A 
HETATM    5  N   UNK N   1      35.728  13.239  11.255  0.00  0.00    -0.313 N 
HETATM    6  C   UNK N   1      35.504  14.177  10.246  0.00  0.00     0.265 A 
HETATM    7  C   UNK N   1      33.386  10.560  10.251  0.00  0.00     0.016 A 
HETATM    8  C   UNK N   1      33.581   9.638  11.279  0.00  0.00     0.001 A 
HETATM    9  C   UNK N   1      34.492   9.913  12.298  0.00  0.00     0.002 A 
HETATM   10  C   UNK N   1      35.211  11.109  12.286  0.00  0.00     0.031 A 
HETATM   11  O   UNK N   1      36.111  15.233  10.249  0.00  0.00    -0.267 OA
ENDROOT
BRANCH   1  12
HETATM   12  C   UNK N   1      34.266  14.971   8.153  0.00  0.00     0.134 A 
HETATM   13  N   UNK N   1      34.200  16.214   8.507  0.00  0.00    -0.265 N 
HETATM   14  S   UNK N   1      33.714  17.474   7.412  0.00  0.00     0.266 S 
ATOM     15  HN  UNK N   1      34.442  16.465   9.466  1.00  0.00     0.180 HD
HETATM   16  C   UNK N   1      33.519  16.777   5.816  0.00  0.00     0.106 A 
HETATM   17  O   UNK N   1      32.416  18.010   8.032  0.00  0.00    -0.200 OA
HETATM   18  O   UNK N   1      34.744  18.600   7.590  0.00  0.00    -0.200 OA
HETATM   19  C   UNK N   1      33.659  15.392   5.686  0.00  0.00     0.057 A 
HETATM   20  C   UNK N   1      33.200  17.573   4.713  0.00  0.00     0.027 A 
HETATM   21  C   UNK N   1      33.471  14.804   4.430  0.00  0.00     0.031 A 
HETATM   22  N   UNK N   1      33.981  14.562   6.802  0.00  0.00    -0.340 N 
HETATM   23  C   UNK N   1      33.151  15.594   3.320  0.00  0.00     0.002 A 
HETATM   24  C   UNK N   1      33.019  16.980   3.461  0.00  0.00     0.002 A 
HETATM   25  H   UNK N   1      34.011  13.594   6.627  0.00  0.00     0.167 HD
ENDBRANCH   1  12
BRANCH   2  26
HETATM   26  O   UNK N   1      32.978  12.399   8.248  0.00  0.00    -0.359 OA
HETATM   27  H   UNK N   1      32.702  11.513   8.113  0.00  0.00     0.217 HD
ENDBRANCH   2  26
BRANCH   5  28
HETATM   28  C   UNK N   1      36.692  13.454  12.369  0.00  0.00     0.133 C 
BRANCH  28  29
HETATM   29  C   UNK N   1      36.268  14.380  13.508  0.00  0.00     0.024 C 
BRANCH  29  30
HETATM   30  C   UNK N   1      36.698  13.819  14.852  0.00  0.00    -0.021 C 
HETATM   31  C   UNK N   1      35.514  13.148  15.514  0.00  0.00     0.009 C 
HETATM   32  C   UNK N   1      37.200  14.934  15.748  0.00  0.00     0.009 C 
ENDBRANCH  29  30
ENDBRANCH  28  29
ENDBRANCH   5  28
TORSDOF 5
ENDMDL
MODEL 3
REMARK VINA RESULT:      -7.6      2.288      7.814
REMARK  5 active torsions:
REMARK  status: ('A' for Active; 'I' for Inactive)
REMARK    1  A    between atoms: C_10  and  C_12 
REMARK    2  A    between atoms: C_13  and  O_22 
REMARK    3  A    between atoms: N_16  and  C_24 
REMARK    4  A    between atoms: C_24  and  C_25 
REMARK    5  A    between atoms: C_25  and  C_26 
ROOT
HETATM    1  C   UNK N   1      22.953  16.949   5.389  0.00  0.00     0.111 A 
HETATM    2  C   UNK N   1      21.719  17.465   4.940  0.00  0.00     0.097 A 
HETATM    3  C   UNK N   1      21.689  18.567   4.085  0.00  0.00     0.025 A 
HETATM    4  C   UNK N   1      22.896  19.181   3.679  0.00  0.00     0.050 A 
HETATM    5  N   UNK N   1      24.106  18.713   4.130  0.00  0.00    -0.313 N 
HETATM    6  C   UNK N   1      24.149  17.603   4.975  0.00  0.00     0.265 A 
HETATM    7  C   UNK N   1      20.462  19.054   3.611  0.00  0.00     0.016 A 
HETATM    8  C   UNK N   1      20.419  20.139   2.736  0.00  0.00     0.001 A 
HETATM    9  C   UNK N   1      21.602  20.752   2.328  0.00  0.00     0.002 A 
HETATM   10  C   UNK N   1      22.829  20.281   2.797  0.00  0.00     0.031 A 
HETATM   11  O   UNK N   1      25.221  17.174   5.364  0.00  0.00    -0.267 OA
ENDROOT
BRANCH   1  12
HETATM   12  C   UNK N   1      23.002  15.702   6.246  0.00  0.00     0.134 A 
HETATM   13  N   UNK N   1      23.836  14.763   5.936  0.00  0.00    -0.265 N 
HETATM   14  S   UNK N   1      23.866  13.230   6.757  0.00  0.00     0.266 S 
ATOM     15  HN  UNK N   1      24.502  14.927   5.181  1.00  0.00     0.180 HD
HETATM   16  C   UNK N   1      22.735  13.295   8.093  0.00  0.00     0.106 A 
HETATM   17  O   UNK N   1      23.491  12.225   5.657  0.00  0.00    -0.200 OA
HETATM   18  O   UNK N   1      25.344  12.955   7.070  0.00  0.00    -0.200 OA
HETATM   19  C   UNK N   1      21.947  14.441   8.228  0.00  0.00     0.057 A 
HETATM   20  C   UNK N   1      22.599  12.222   8.978  0.00  0.00     0.027 A 
HETATM   21  C   UNK N   1      21.008  14.504   9.265  0.00  0.00     0.031 A 
HETATM   22  N   UNK N   1      22.069  15.546   7.332  0.00  0.00    -0.340 N 
HETATM   23  C   UNK N   1      20.866  13.434  10.155  0.00  0.00     0.002 A 
HETATM   24  C   UNK N   1      21.664  12.294  10.014  0.00  0.00     0.002 A 
HETATM   25  H   UNK N   1      21.441  16.290   7.473  0.00  0.00     0.167 HD
ENDBRANCH   1  12
BRANCH   2  26
HETATM   26  O   UNK N   1      20.555  16.890   5.303  0.00  0.00    -0.359 OA
HETATM   27  H   UNK N   1      20.553  16.142   5.868  0.00  0.00     0.217 HD
ENDBRANCH   2  26
BRANCH   5  28
HETATM   28  C   UNK N   1      25.324  19.428   3.660  0.00  0.00     0.133 C 
BRANCH  28  29
HETATM   29  C   UNK N   1      25.833  20.596   4.502  0.00  0.00     0.024 C 
BRANCH  29  30
HETATM   30  C   UNK N   1      26.948  20.151   5.431  0.00  0.00    -0.021 C 
HETATM   31  C   UNK N   1      27.454  21.345   6.211  0.00  0.00     0.009 C 
HETATM   32  C   UNK N   1      28.093  19.563   4.630  0.00  0.00     0.009 C 
ENDBRANCH  29  30
ENDBRANCH  28  29
ENDBRANCH   5  28
TORSDOF 5
ENDMDL
MODEL 4
REMARK VINA RESULT:      -7.4     12.424     13.835
REMARK  5 active torsions:
REMARK  status: ('A' for Active; 'I' for Inactive)
REMARK    1  A    between atoms: C_10  and  C_12 
REMARK    2  A    between atoms: C_13  and  O_22 
REMARK    3  A    between atoms: N_16  and  C_24 
REMARK    4  A    between atoms: C_24  and  C_25 
REMARK    5  A    between atoms: C_25  and  C_26 
ROOT
HETATM    1  C   UNK N   1      35.630  14.447   9.794  0.00  0.00     0.111 A 
HETATM    2  C   UNK N   1      34.984  14.297  11.040  0.00  0.00     0.097 A 
HETATM    3  C   UNK N   1      35.550  13.496  12.031  0.00  0.00     0.025 A 
HETATM    4  C   UNK N   1      36.765  12.817  11.787  0.00  0.00     0.050 A 
HETATM    5  N   UNK N   1      37.395  12.925  10.570  0.00  0.00    -0.313 N 
HETATM    6  C   UNK N   1      36.845  13.734   9.574  0.00  0.00     0.265 A 
HETATM    7  C   UNK N   1      34.923  13.378  13.282  0.00  0.00     0.016 A 
HETATM    8  C   UNK N   1      35.490  12.601  14.291  0.00  0.00     0.001 A 
HETATM    9  C   UNK N   1      36.690  11.929  14.061  0.00  0.00     0.002 A 
HETATM   10  C   UNK N   1      37.320  12.032  12.820  0.00  0.00     0.031 A 
HETATM   11  O   UNK N   1      37.408  13.847   8.500  0.00  0.00    -0.267 OA
ENDROOT
BRANCH   1  12
HETATM   12  C   UNK N   1      35.072  15.381   8.742  0.00  0.00     0.134 A 
HETATM   13  N   UNK N   1      34.811  16.605   9.068  0.00  0.00    -0.265 N 
HETATM   14  S   UNK N   1      34.026  17.715   7.984  0.00  0.00     0.266 S 
ATOM     15  HN  UNK N   1      35.075  16.932   9.998  1.00  0.00     0.180 HD
HETATM   16  C   UNK N   1      33.839  16.931   6.428  0.00  0.00     0.106 A 
HETATM   17  O   UNK N   1      32.702  18.036   8.694  0.00  0.00    -0.200 OA
HETATM   18  O   UNK N   1      34.847  19.011   8.050  0.00  0.00    -0.200 OA
HETATM   19  C   UNK N   1      34.216  15.589   6.323  0.00  0.00     0.057 A 
HETATM   20  C   UNK N   1      33.300  17.614   5.335  0.00  0.00     0.027 A 
HETATM   21  C   UNK N   1      34.042  14.927   5.101  0.00  0.00     0.031 A 
HETATM   22  N   UNK N   1      34.764  14.874   7.430  0.00  0.00    -0.340 N 
HETATM   23  C   UNK N   1      33.503  15.604   4.001  0.00  0.00     0.002 A 
HETATM   24  C   UNK N   1      33.135  16.948   4.117  0.00  0.00     0.002 A 
HETATM   25  H   UNK N   1      34.955  13.920   7.278  0.00  0.00     0.167 HD
ENDBRANCH   1  12
BRANCH   2  26
HETATM   26  O   UNK N   1      33.830  14.942  11.302  0.00  0.00    -0.359 OA
HETATM   27  H   UNK N   1      33.796  15.598  11.971  0.00  0.00     0.217 HD
ENDBRANCH   2  26
BRANCH   5  28
HETATM   28  C   UNK N   1      38.664  12.167  10.396  0.00  0.00     0.133 C 
BRANCH  28  29
HETATM   29  C   UNK N   1      38.589  10.800   9.718  0.00  0.00     0.024 C 
BRANCH  29  30
HETATM   30  C   UNK N   1      39.726  10.623   8.727  0.00  0.00    -0.021 C 
HETATM   31  C   UNK N   1      40.592   9.462   9.166  0.00  0.00     0.009 C 
HETATM   32  C   UNK N   1      40.573  11.879   8.672  0.00  0.00     0.009 C 
ENDBRANCH  29  30
ENDBRANCH  28  29
ENDBRANCH   5  28
TORSDOF 5
ENDMDL
MODEL 5
REMARK VINA RESULT:      -7.3     11.953     13.702
REMARK  5 active torsions:
REMARK  status: ('A' for Active; 'I' for Inactive)
REMARK    1  A    between atoms: C_10  and  C_12 
REMARK    2  A    between atoms: C_13  and  O_22 
REMARK    3  A    between atoms: N_16  and  C_24 
REMARK    4  A    between atoms: C_24  and  C_25 
REMARK    5  A    between atoms: C_25  and  C_26 
ROOT
HETATM    1  C   UNK N   1      35.509  14.136   9.517  0.00  0.00     0.111 A 
HETATM    2  C   UNK N   1      36.529  13.235   9.144  0.00  0.00     0.097 A 
HETATM    3  C   UNK N   1      36.941  12.237  10.028  0.00  0.00     0.025 A 
HETATM    4  C   UNK N   1      36.350  12.136  11.308  0.00  0.00     0.050 A 
HETATM    5  N   UNK N   1      35.378  13.023  11.702  0.00  0.00    -0.313 N 
HETATM    6  C   UNK N   1      34.947  14.017  10.821  0.00  0.00     0.265 A 
HETATM    7  C   UNK N   1      37.930  11.320   9.640  0.00  0.00     0.016 A 
HETATM    8  C   UNK N   1      38.334  10.303  10.504  0.00  0.00     0.001 A 
HETATM    9  C   UNK N   1      37.757  10.193  11.768  0.00  0.00     0.002 A 
HETATM   10  C   UNK N   1      36.777  11.102  12.169  0.00  0.00     0.031 A 
HETATM   11  O   UNK N   1      34.073  14.795  11.160  0.00  0.00    -0.267 OA
ENDROOT
BRANCH   1  12
HETATM   12  C   UNK N   1      34.993  15.166   8.536  0.00  0.00     0.134 A 
HETATM   13  N   UNK N   1      34.839  16.387   8.935  0.00  0.00    -0.265 N 
HETATM   14  S   UNK N   1      34.109  17.611   7.939  0.00  0.00     0.266 S 
ATOM     15  HN  UNK N   1      35.158  16.642   9.870  1.00  0.00     0.180 HD
HETATM   16  C   UNK N   1      33.812  16.930   6.352  0.00  0.00     0.106 A 
HETATM   17  O   UNK N   1      32.838  17.994   8.712  0.00  0.00    -0.200 OA
HETATM   18  O   UNK N   1      35.031  18.835   8.042  0.00  0.00    -0.200 OA
HETATM   19  C   UNK N   1      34.078  15.571   6.163  0.00  0.00     0.057 A 
HETATM   20  C   UNK N   1      33.293  17.711   5.316  0.00  0.00     0.027 A 
HETATM   21  C   UNK N   1      33.814  14.992   4.916  0.00  0.00     0.031 A 
HETATM   22  N   UNK N   1      34.604  14.757   7.211  0.00  0.00    -0.340 N 
HETATM   23  C   UNK N   1      33.295  15.767   3.873  0.00  0.00     0.002 A 
HETATM   24  C   UNK N   1      33.038  17.128   4.072  0.00  0.00     0.002 A 
HETATM   25  H   UNK N   1      34.715  13.801   7.003  0.00  0.00     0.167 HD
ENDBRANCH   1  12
BRANCH   2  26
HETATM   26  O   UNK N   1      37.101  13.303   7.925  0.00  0.00    -0.359 OA
HETATM   27  H   UNK N   1      37.659  14.022   7.704  0.00  0.00     0.217 HD
ENDBRANCH   2  26
BRANCH   5  28
HETATM   28  C   UNK N   1      34.819  12.848  13.071  0.00  0.00     0.133 C 
BRANCH  28  29
HETATM   29  C   UNK N   1      35.559  13.511  14.231  0.00  0.00     0.024 C 
BRANCH  29  30
HETATM   30  C   UNK N   1      35.613  12.590  15.437  0.00  0.00    -0.021 C 
HETATM   31  C   UNK N   1      34.525  11.546  15.315  0.00  0.00     0.009 C 
HETATM   32  C   UNK N   1      35.398  13.383  16.712  0.00  0.00     0.009 C 
ENDBRANCH  29  30
ENDBRANCH  28  29
ENDBRANCH   5  28
TORSDOF 5
ENDMDL
MODEL 6
REMARK VINA RESULT:      -7.3      4.900      7.221
REMARK  5 active torsions:
REMARK  status: ('A' for Active; 'I' for Inactive)
REMARK    1  A    between atoms: C_10  and  C_12 
REMARK    2  A    between atoms: C_13  and  O_22 
REMARK    3  A    between atoms: N_16  and  C_24 
REMARK    4  A    between atoms: C_24  and  C_25 
REMARK    5  A    between atoms: C_25  and  C_26 
ROOT
HETATM    1  C   UNK N   1      27.665  16.993   5.948  0.00  0.00     0.111 A 
HETATM    2  C   UNK N   1      28.263  17.720   6.999  0.00  0.00     0.097 A 
HETATM    3  C   UNK N   1      29.586  17.466   7.363  0.00  0.00     0.025 A 
HETATM    4  C   UNK N   1      30.326  16.467   6.691  0.00  0.00     0.050 A 
HETATM    5  N   UNK N   1      29.752  15.726   5.687  0.00  0.00    -0.313 N 
HETATM    6  C   UNK N   1      28.433  15.980   5.305  0.00  0.00     0.265 A 
HETATM    7  C   UNK N   1      30.190  18.217   8.383  0.00  0.00     0.016 A 
HETATM    8  C   UNK N   1      31.519  17.991   8.740  0.00  0.00     0.001 A 
HETATM    9  C   UNK N   1      32.259  17.008   8.084  0.00  0.00     0.002 A 
HETATM   10  C   UNK N   1      31.668  16.251   7.072  0.00  0.00     0.031 A 
HETATM   11  O   UNK N   1      27.925  15.338   4.403  0.00  0.00    -0.267 OA
ENDROOT
BRANCH   1  12
HETATM   12  C   UNK N   1      26.261  17.319   5.487  0.00  0.00     0.134 A 
HETATM   13  N   UNK N   1      25.307  16.484   5.746  0.00  0.00    -0.265 N 
HETATM   14  S   UNK N   1      23.694  16.684   5.130  0.00  0.00     0.266 S 
ATOM     15  HN  UNK N   1      25.509  15.676   6.336  1.00  0.00     0.180 HD
HETATM   16  C   UNK N   1      23.607  18.223   4.295  0.00  0.00     0.106 A 
HETATM   17  O   UNK N   1      23.500  15.460   4.223  0.00  0.00    -0.200 OA
HETATM   18  O   UNK N   1      22.760  16.455   6.327  0.00  0.00    -0.200 OA
HETATM   19  C   UNK N   1      24.787  18.959   4.157  0.00  0.00     0.057 A 
HETATM   20  C   UNK N   1      22.404  18.685   3.755  0.00  0.00     0.027 A 
HETATM   21  C   UNK N   1      24.754  20.174   3.461  0.00  0.00     0.031 A 
HETATM   22  N   UNK N   1      26.026  18.501   4.698  0.00  0.00    -0.340 N 
HETATM   23  C   UNK N   1      23.553  20.644   2.918  0.00  0.00     0.002 A 
HETATM   24  C   UNK N   1      22.377  19.901   3.067  0.00  0.00     0.002 A 
HETATM   25  H   UNK N   1      26.814  19.060   4.510  0.00  0.00     0.167 HD
ENDBRANCH   1  12
BRANCH   2  26
HETATM   26  O   UNK N   1      27.583  18.687   7.647  0.00  0.00    -0.359 OA
HETATM   27  H   UNK N   1      26.753  18.499   8.040  0.00  0.00     0.217 HD
ENDBRANCH   2  26
BRANCH   5  28
HETATM   28  C   UNK N   1      30.602  14.688   5.043  0.00  0.00     0.133 C 
BRANCH  28  29
HETATM   29  C   UNK N   1      31.144  14.979   3.644  0.00  0.00     0.024 C 
BRANCH  29  30
HETATM   30  C   UNK N   1      32.466  15.722   3.719  0.00  0.00    -0.021 C 
HETATM   31  C   UNK N   1      32.270  17.139   3.225  0.00  0.00     0.009 C 
HETATM   32  C   UNK N   1      33.503  15.034   2.852  0.00  0.00     0.009 C 
ENDBRANCH  29  30
ENDBRANCH  28  29
ENDBRANCH   5  28
TORSDOF 5
ENDMDL
MODEL 7
REMARK VINA RESULT:      -7.3      3.941      6.987
REMARK  5 active torsions:
REMARK  status: ('A' for Active; 'I' for Inactive)
REMARK    1  A    between atoms: C_10  and  C_12 
REMARK    2  A    between atoms: C_13  and  O_22 
REMARK    3  A    between atoms: N_16  and  C_24 
REMARK    4  A    between atoms: C_24  and  C_25 
REMARK    5  A    between atoms: C_25  and  C_26 
ROOT
HETATM    1  C   UNK N   1      25.637  17.831   4.941  0.00  0.00     0.111 A 
HETATM    2  C   UNK N   1      25.270  18.944   4.155  0.00  0.00     0.097 A 
HETATM    3  C   UNK N   1      23.936  19.141   3.798  0.00  0.00     0.025 A 
HETATM    4  C   UNK N   1      22.949  18.217   4.208  0.00  0.00     0.050 A 
HETATM    5  N   UNK N   1      23.290  17.110   4.948  0.00  0.00    -0.313 N 
HETATM    6  C   UNK N   1      24.620  16.909   5.323  0.00  0.00     0.265 A 
HETATM    7  C   UNK N   1      23.569  20.269   3.047  0.00  0.00     0.016 A 
HETATM    8  C   UNK N   1      22.236  20.491   2.704  0.00  0.00     0.001 A 
HETATM    9  C   UNK N   1      21.254  19.586   3.105  0.00  0.00     0.002 A 
HETATM   10  C   UNK N   1      21.607  18.458   3.847  0.00  0.00     0.031 A 
HETATM   11  O   UNK N   1      24.925  15.939   5.993  0.00  0.00    -0.267 OA
ENDROOT
BRANCH   1  12
HETATM   12  C   UNK N   1      27.066  17.654   5.408  0.00  0.00     0.134 A 
HETATM   13  N   UNK N   1      27.894  17.007   4.655  0.00  0.00    -0.265 N 
HETATM   14  S   UNK N   1      29.510  16.613   5.163  0.00  0.00     0.266 S 
ATOM     15  HN  UNK N   1      27.589  16.716   3.726  1.00  0.00     0.180 HD
HETATM   16  C   UNK N   1      29.802  17.369   6.716  0.00  0.00     0.106 A 
HETATM   17  O   UNK N   1      29.513  15.077   5.195  0.00  0.00    -0.200 OA
HETATM   18  O   UNK N   1      30.421  16.996   3.987  0.00  0.00    -0.200 OA
HETATM   19  C   UNK N   1      28.737  18.034   7.330  0.00  0.00     0.057 A 
HETATM   20  C   UNK N   1      31.050  17.283   7.339  0.00  0.00     0.027 A 
HETATM   21  C   UNK N   1      28.932  18.615   8.589  0.00  0.00     0.031 A 
HETATM   22  N   UNK N   1      27.455  18.129   6.711  0.00  0.00    -0.340 N 
HETATM   23  C   UNK N   1      30.179  18.533   9.220  0.00  0.00     0.002 A 
HETATM   24  C   UNK N   1      31.239  17.870   8.593  0.00  0.00     0.002 A 
HETATM   25  H   UNK N   1      26.751  18.573   7.238  0.00  0.00     0.167 HD
ENDBRANCH   1  12
BRANCH   2  26
HETATM   26  O   UNK N   1      26.191  19.846   3.761  0.00  0.00    -0.359 OA
HETATM   27  H   UNK N   1      25.981  20.481   3.104  0.00  0.00     0.217 HD
ENDBRANCH   2  26
BRANCH   5  28
HETATM   28  C   UNK N   1      22.188  16.184   5.327  0.00  0.00     0.133 C 
BRANCH  28  29
HETATM   29  C   UNK N   1      21.765  16.144   6.794  0.00  0.00     0.024 C 
BRANCH  29  30
HETATM   30  C   UNK N   1      20.392  16.766   6.981  0.00  0.00    -0.021 C 
HETATM   31  C   UNK N   1      19.984  16.644   8.433  0.00  0.00     0.009 C 
HETATM   32  C   UNK N   1      19.371  16.050   6.118  0.00  0.00     0.009 C 
ENDBRANCH  29  30
ENDBRANCH  28  29
ENDBRANCH   5  28
TORSDOF 5
ENDMDL
MODEL 8
REMARK VINA RESULT:      -7.3     14.736     15.827
REMARK  5 active torsions:
REMARK  status: ('A' for Active; 'I' for Inactive)
REMARK    1  A    between atoms: C_10  and  C_12 
REMARK    2  A    between atoms: C_13  and  O_22 
REMARK    3  A    between atoms: N_16  and  C_24 
REMARK    4  A    between atoms: C_24  and  C_25 
REMARK    5  A    between atoms: C_25  and  C_26 
ROOT
HETATM    1  C   UNK N   1      29.766  22.575  -5.456  0.00  0.00     0.111 A 
HETATM    2  C   UNK N   1      30.403  22.410  -4.208  0.00  0.00     0.097 A 
HETATM    3  C   UNK N   1      31.610  21.715  -4.122  0.00  0.00     0.025 A 
HETATM    4  C   UNK N   1      32.190  21.158  -5.284  0.00  0.00     0.050 A 
HETATM    5  N   UNK N   1      31.571  21.280  -6.504  0.00  0.00    -0.313 N 
HETATM    6  C   UNK N   1      30.369  21.985  -6.605  0.00  0.00     0.265 A 
HETATM    7  C   UNK N   1      32.259  21.586  -2.885  0.00  0.00     0.016 A 
HETATM    8  C   UNK N   1      33.478  20.915  -2.789  0.00  0.00     0.001 A 
HETATM    9  C   UNK N   1      34.060  20.363  -3.929  0.00  0.00     0.002 A 
HETATM   10  C   UNK N   1      33.422  20.480  -5.164  0.00  0.00     0.031 A 
HETATM   11  O   UNK N   1      29.825  22.110  -7.687  0.00  0.00    -0.267 OA
ENDROOT
BRANCH   1  12
HETATM   12  C   UNK N   1      28.503  23.400  -5.576  0.00  0.00     0.134 A 
HETATM   13  N   UNK N   1      27.534  22.958  -6.309  0.00  0.00    -0.265 N 
HETATM   14  S   UNK N   1      26.107  23.895  -6.638  0.00  0.00     0.266 S 
ATOM     15  HN  UNK N   1      27.610  22.023  -6.710  1.00  0.00     0.180 HD
HETATM   16  C   UNK N   1      26.185  25.372  -5.699  0.00  0.00     0.106 A 
HETATM   17  O   UNK N   1      26.158  24.107  -8.159  0.00  0.00    -0.200 OA
HETATM   18  O   UNK N   1      24.923  22.946  -6.401  0.00  0.00    -0.200 OA
HETATM   19  C   UNK N   1      27.348  25.619  -4.965  0.00  0.00     0.057 A 
HETATM   20  C   UNK N   1      25.133  26.292  -5.709  0.00  0.00     0.027 A 
HETATM   21  C   UNK N   1      27.453  26.810  -4.236  0.00  0.00     0.031 A 
HETATM   22  N   UNK N   1      28.435  24.694  -4.946  0.00  0.00    -0.340 N 
HETATM   23  C   UNK N   1      26.404  27.736  -4.240  0.00  0.00     0.002 A 
HETATM   24  C   UNK N   1      25.242  27.475  -4.975  0.00  0.00     0.002 A 
HETATM   25  H   UNK N   1      29.233  24.972  -4.441  0.00  0.00     0.167 HD
ENDBRANCH   1  12
BRANCH   2  26
HETATM   26  O   UNK N   1      29.876  22.942  -3.087  0.00  0.00    -0.359 OA
HETATM   27  H   UNK N   1      28.949  22.938  -2.952  0.00  0.00     0.217 HD
ENDBRANCH   2  26
BRANCH   5  28
HETATM   28  C   UNK N   1      32.248  20.653  -7.672  0.00  0.00     0.133 C 
BRANCH  28  29
HETATM   29  C   UNK N   1      31.956  19.180  -7.957  0.00  0.00     0.024 C 
BRANCH  29  30
HETATM   30  C   UNK N   1      30.697  19.028  -8.791  0.00  0.00    -0.021 C 
HETATM   31  C   UNK N   1      29.550  18.621  -7.891  0.00  0.00     0.009 C 
HETATM   32  C   UNK N   1      30.896  17.963  -9.851  0.00  0.00     0.009 C 
ENDBRANCH  29  30
ENDBRANCH  28  29
ENDBRANCH   5  28
TORSDOF 5
ENDMDL
MODEL 9
REMARK VINA RESULT:      -7.2      4.990      7.738
REMARK  5 active torsions:
REMARK  status: ('A' for Active; 'I' for Inactive)
REMARK    1  A    between atoms: C_10  and  C_12 
REMARK    2  A    between atoms: C_13  and  O_22 
REMARK    3  A    between atoms: N_16  and  C_24 
REMARK    4  A    between atoms: C_24  and  C_25 
REMARK    5  A    between atoms: C_25  and  C_26 
ROOT
HETATM    1  C   UNK N   1      27.447  17.746   5.626  0.00  0.00     0.111 A 
HETATM    2  C   UNK N   1      27.102  18.938   4.955  0.00  0.00     0.097 A 
HETATM    3  C   UNK N   1      25.825  19.096   4.418  0.00  0.00     0.025 A 
HETATM    4  C   UNK N   1      24.876  18.055   4.528  0.00  0.00     0.050 A 
HETATM    5  N   UNK N   1      25.201  16.874   5.150  0.00  0.00    -0.313 N 
HETATM    6  C   UNK N   1      26.472  16.709   5.704  0.00  0.00     0.265 A 
HETATM    7  C   UNK N   1      25.474  20.299   3.783  0.00  0.00     0.016 A 
HETATM    8  C   UNK N   1      24.193  20.480   3.263  0.00  0.00     0.001 A 
HETATM    9  C   UNK N   1      23.248  19.460   3.368  0.00  0.00     0.002 A 
HETATM   10  C   UNK N   1      23.587  18.258   3.990  0.00  0.00     0.031 A 
HETATM   11  O   UNK N   1      26.759  15.670   6.272  0.00  0.00    -0.267 OA
ENDROOT
BRANCH   1  12
HETATM   12  C   UNK N   1      28.799  17.596   6.290  0.00  0.00     0.134 A 
HETATM   13  N   UNK N   1      28.868  17.621   7.581  0.00  0.00    -0.265 N 
HETATM   14  S   UNK N   1      30.382  17.613   8.437  0.00  0.00     0.266 S 
ATOM     15  HN  UNK N   1      28.001  17.646   8.118  1.00  0.00     0.180 HD
HETATM   16  C   UNK N   1      31.675  17.407   7.273  0.00  0.00     0.106 A 
HETATM   17  O   UNK N   1      30.392  18.967   9.163  0.00  0.00    -0.200 OA
HETATM   18  O   UNK N   1      30.228  16.560   9.544  0.00  0.00    -0.200 OA
HETATM   19  C   UNK N   1      31.339  17.395   5.917  0.00  0.00     0.057 A 
HETATM   20  C   UNK N   1      33.006  17.293   7.685  0.00  0.00     0.027 A 
HETATM   21  C   UNK N   1      32.357  17.270   4.964  0.00  0.00     0.031 A 
HETATM   22  N   UNK N   1      29.986  17.515   5.478  0.00  0.00    -0.340 N 
HETATM   23  C   UNK N   1      33.692  17.155   5.367  0.00  0.00     0.002 A 
HETATM   24  C   UNK N   1      34.016  17.162   6.728  0.00  0.00     0.002 A 
HETATM   25  H   UNK N   1      29.847  17.545   4.504  0.00  0.00     0.167 HD
ENDBRANCH   1  12
BRANCH   2  26
HETATM   26  O   UNK N   1      27.985  19.951   4.847  0.00  0.00    -0.359 OA
HETATM   27  H   UNK N   1      28.842  19.874   5.219  0.00  0.00     0.217 HD
ENDBRANCH   2  26
BRANCH   5  28
HETATM   28  C   UNK N   1      24.143  15.829   5.210  0.00  0.00     0.133 C 
BRANCH  28  29
HETATM   29  C   UNK N   1      23.403  15.641   6.534  0.00  0.00     0.024 C 
BRANCH  29  30
HETATM   30  C   UNK N   1      21.900  15.633   6.319  0.00  0.00    -0.021 C 
HETATM   31  C   UNK N   1      21.606  15.320   4.867  0.00  0.00     0.009 C 
HETATM   32  C   UNK N   1      21.315  16.989   6.662  0.00  0.00     0.009 C 
ENDBRANCH  29  30
ENDBRANCH  28  29
ENDBRANCH   5  28
TORSDOF 5
ENDMDL
