MODEL 1
REMARK VINA RESULT:      -7.0      0.000      0.000
REMARK  6 active torsions:
REMARK  status: ('A' for Active; 'I' for Inactive)
REMARK    1  A    between atoms: C_2  and  O_19 
REMARK    2  A    between atoms: C_3  and  C_7 
REMARK    3  A    between atoms: C_5  and  O_17 
REMARK       I    between atoms: N_8  and  C_9 
REMARK    4  A    between atoms: C_9  and  C_10 
REMARK    5  A    between atoms: C_13  and  O_23 
REMARK    6  A    between atoms: O_23  and  C_24 
ROOT
HETATM    1  C   UNK N   1      34.991  15.193  10.231  0.00  0.00     0.102 A 
HETATM    2  N   UNK N   1      35.012  15.016  11.516  0.00  0.00    -0.331 N 
ATOM      3  HN  UNK N   1      35.020  15.839  12.119  1.00  0.00     0.168 HD
HETATM    4  C   UNK N   1      35.024  13.825  12.087  0.00  0.00     0.164 A 
HETATM    5  C   UNK N   1      35.012  12.677  11.275  0.00  0.00     0.095 A 
HETATM    6  C   UNK N   1      34.988  12.817   9.877  0.00  0.00     0.029 A 
HETATM    7  C   UNK N   1      34.978  14.100   9.339  0.00  0.00     0.037 A 
HETATM    8  C   UNK N   1      35.025  11.395  11.873  0.00  0.00     0.104 C 
HETATM    9  N   UNK N   1      35.037  10.370  12.402  0.00  0.00    -0.191 NA
ENDROOT
BRANCH   4  10
HETATM   10  O   UNK N   1      35.047  13.812  13.430  0.00  0.00    -0.335 OA
BRANCH  10  11
HETATM   11  C   UNK N   1      36.262  14.126  14.028  0.00  0.00     0.173 C 
HETATM   12  C   UNK N   1      36.890  12.968  14.729  0.00  0.00     0.034 C 
ENDBRANCH  10  11
ENDBRANCH   4  10
BRANCH   1  13
HETATM   13  C   UNK N   1      34.982  16.519   9.825  0.00  0.00     0.268 C 
HETATM   14  N   UNK N   1      34.222  16.747   8.829  0.00  0.00    -0.351 N 
HETATM   15  C   UNK N   1      34.020  17.960   8.240  0.00  0.00     0.164 C 
HETATM   16  H   UNK N   1      33.736  15.979   8.451  0.00  0.00     0.163 HD
HETATM   17  O   UNK N   1      35.637  17.401  10.366  0.00  0.00    -0.266 OA
BRANCH  15  18
HETATM   18  C   UNK N   1      33.072  17.646   7.184  0.00  0.00    -0.004 A 
HETATM   19  C   UNK N   1      31.736  17.546   7.511  0.00  0.00     0.076 A 
HETATM   20  C   UNK N   1      30.843  17.244   6.473  0.00  0.00     0.040 A 
HETATM   21  C   UNK N   1      31.291  17.051   5.144  0.00  0.00     0.039 A 
HETATM   22  C   UNK N   1      32.653  17.158   4.829  0.00  0.00     0.069 A 
HETATM   23  C   UNK N   1      33.517  17.451   5.845  0.00  0.00     0.048 A 
BRANCH  19  24
HETATM   24  O   UNK N   1      31.265  17.728   8.788  0.00  0.00    -0.355 OA
HETATM   25  C   UNK N   1      30.185  18.500   9.210  0.00  0.00     0.210 C 
ENDBRANCH  19  24
BRANCH  22  26
HETATM   26  O   UNK N   1      33.161  16.987   3.583  0.00  0.00    -0.356 OA
HETATM   27  C   UNK N   1      33.368  15.761   3.002  0.00  0.00     0.210 C 
ENDBRANCH  22  26
ENDBRANCH  15  18
ENDBRANCH   1  13
TORSDOF 6
ENDMDL
MODEL 2
REMARK VINA RESULT:      -6.9      1.122      2.815
REMARK  6 active torsions:
REMARK  status: ('A' for Active; 'I' for Inactive)
REMARK    1  A    between atoms: C_2  and  O_19 
REMARK    2  A    between atoms: C_3  and  C_7 
REMARK    3  A    between atoms: C_5  and  O_17 
REMARK       I    between atoms: N_8  and  C_9 
REMARK    4  A    between atoms: C_9  and  C_10 
REMARK    5  A    between atoms: C_13  and  O_23 
REMARK    6  A    between atoms: O_23  and  C_24 
ROOT
HETATM    1  C   UNK N   1      34.910  15.181  10.379  0.00  0.00     0.102 A 
HETATM    2  N   UNK N   1      34.957  14.993  11.662  0.00  0.00    -0.331 N 
ATOM      3  HN  UNK N   1      34.909  15.809  12.273  1.00  0.00     0.168 HD
HETATM    4  C   UNK N   1      35.064  13.801  12.219  0.00  0.00     0.164 A 
HETATM    5  C   UNK N   1      35.130  12.664  11.396  0.00  0.00     0.095 A 
HETATM    6  C   UNK N   1      35.081  12.815  10.000  0.00  0.00     0.029 A 
HETATM    7  C   UNK N   1      34.970  14.098   9.475  0.00  0.00     0.037 A 
HETATM    8  C   UNK N   1      35.245  11.380  11.980  0.00  0.00     0.104 C 
HETATM    9  N   UNK N   1      35.339  10.354  12.498  0.00  0.00    -0.191 NA
ENDROOT
BRANCH   4  10
HETATM   10  O   UNK N   1      35.101  13.777  13.562  0.00  0.00    -0.335 OA
BRANCH  10  11
HETATM   11  C   UNK N   1      36.314  14.117  14.151  0.00  0.00     0.173 C 
HETATM   12  C   UNK N   1      36.874  13.035  15.012  0.00  0.00     0.034 C 
ENDBRANCH  10  11
ENDBRANCH   4  10
BRANCH   1  13
HETATM   13  C   UNK N   1      34.796  16.506   9.986  0.00  0.00     0.268 C 
HETATM   14  N   UNK N   1      33.841  16.723   9.174  0.00  0.00    -0.351 N 
HETATM   15  C   UNK N   1      33.502  17.933   8.644  0.00  0.00     0.164 C 
HETATM   16  H   UNK N   1      33.296  15.948   8.906  0.00  0.00     0.163 HD
HETATM   17  O   UNK N   1      35.540  17.398  10.379  0.00  0.00    -0.266 OA
BRANCH  15  18
HETATM   18  C   UNK N   1      32.357  17.606   7.812  0.00  0.00    -0.004 A 
HETATM   19  C   UNK N   1      32.586  17.162   6.526  0.00  0.00     0.076 A 
HETATM   20  C   UNK N   1      31.464  16.851   5.745  0.00  0.00     0.040 A 
HETATM   21  C   UNK N   1      30.149  16.984   6.252  0.00  0.00     0.039 A 
HETATM   22  C   UNK N   1      29.935  17.436   7.563  0.00  0.00     0.069 A 
HETATM   23  C   UNK N   1      31.032  17.738   8.317  0.00  0.00     0.048 A 
BRANCH  19  24
HETATM   24  O   UNK N   1      33.847  17.018   6.000  0.00  0.00    -0.355 OA
HETATM   25  C   UNK N   1      34.534  15.843   5.709  0.00  0.00     0.210 C 
ENDBRANCH  19  24
BRANCH  22  26
HETATM   26  O   UNK N   1      28.708  17.591   8.122  0.00  0.00    -0.356 OA
HETATM   27  C   UNK N   1      28.488  17.662   9.476  0.00  0.00     0.210 C 
ENDBRANCH  22  26
ENDBRANCH  15  18
ENDBRANCH   1  13
TORSDOF 6
ENDMDL
MODEL 3
REMARK VINA RESULT:      -6.8      5.535     10.217
REMARK  6 active torsions:
REMARK  status: ('A' for Active; 'I' for Inactive)
REMARK    1  A    between atoms: C_2  and  O_19 
REMARK    2  A    between atoms: C_3  and  C_7 
REMARK    3  A    between atoms: C_5  and  O_17 
REMARK       I    between atoms: N_8  and  C_9 
REMARK    4  A    between atoms: C_9  and  C_10 
REMARK    5  A    between atoms: C_13  and  O_23 
REMARK    6  A    between atoms: O_23  and  C_24 
ROOT
HETATM    1  C   UNK N   1      27.071  18.180   5.534  0.00  0.00     0.102 A 
HETATM    2  N   UNK N   1      25.849  17.817   5.292  0.00  0.00    -0.331 N 
ATOM      3  HN  UNK N   1      25.499  16.969   5.738  1.00  0.00     0.168 HD
HETATM    4  C   UNK N   1      25.033  18.487   4.500  0.00  0.00     0.164 A 
HETATM    5  C   UNK N   1      25.494  19.660   3.877  0.00  0.00     0.095 A 
HETATM    6  C   UNK N   1      26.810  20.095   4.107  0.00  0.00     0.029 A 
HETATM    7  C   UNK N   1      27.619  19.344   4.952  0.00  0.00     0.037 A 
HETATM    8  C   UNK N   1      24.630  20.388   3.024  0.00  0.00     0.104 C 
HETATM    9  N   UNK N   1      23.893  20.949   2.337  0.00  0.00    -0.191 NA
ENDROOT
BRANCH   4  10
HETATM   10  O   UNK N   1      23.798  17.977   4.354  0.00  0.00    -0.335 OA
BRANCH  10  11
HETATM   11  C   UNK N   1      22.949  18.097   5.448  0.00  0.00     0.173 C 
HETATM   12  C   UNK N   1      22.358  16.798   5.880  0.00  0.00     0.034 C 
ENDBRANCH  10  11
ENDBRANCH   4  10
BRANCH   1  13
HETATM   13  C   UNK N   1      27.770  17.346   6.393  0.00  0.00     0.268 C 
HETATM   14  N   UNK N   1      29.016  17.277   6.143  0.00  0.00    -0.351 N 
HETATM   15  C   UNK N   1      29.930  16.542   6.839  0.00  0.00     0.164 C 
HETATM   16  H   UNK N   1      29.350  17.802   5.381  0.00  0.00     0.163 HD
HETATM   17  O   UNK N   1      27.249  16.728   7.314  0.00  0.00    -0.266 OA
BRANCH  15  18
HETATM   18  C   UNK N   1      31.171  16.837   6.142  0.00  0.00    -0.004 A 
HETATM   19  C   UNK N   1      31.230  16.608   4.784  0.00  0.00     0.076 A 
HETATM   20  C   UNK N   1      32.438  16.902   4.135  0.00  0.00     0.040 A 
HETATM   21  C   UNK N   1      33.552  17.416   4.843  0.00  0.00     0.039 A 
HETATM   22  C   UNK N   1      33.473  17.644   6.225  0.00  0.00     0.069 A 
HETATM   23  C   UNK N   1      32.295  17.353   6.849  0.00  0.00     0.048 A 
BRANCH  19  24
HETATM   24  O   UNK N   1      30.170  16.113   4.064  0.00  0.00    -0.355 OA
HETATM   25  C   UNK N   1      29.934  16.208   2.695  0.00  0.00     0.210 C 
ENDBRANCH  19  24
BRANCH  22  26
HETATM   26  O   UNK N   1      34.494  18.132   6.974  0.00  0.00    -0.356 OA
HETATM   27  C   UNK N   1      34.538  18.063   8.344  0.00  0.00     0.210 C 
ENDBRANCH  22  26
ENDBRANCH  15  18
ENDBRANCH   1  13
TORSDOF 6
ENDMDL
MODEL 4
REMARK VINA RESULT:      -6.8      2.267      7.623
REMARK  6 active torsions:
REMARK  status: ('A' for Active; 'I' for Inactive)
REMARK    1  A    between atoms: C_2  and  O_19 
REMARK    2  A    between atoms: C_3  and  C_7 
REMARK    3  A    between atoms: C_5  and  O_17 
REMARK       I    between atoms: N_8  and  C_9 
REMARK    4  A    between atoms: C_9  and  C_10 
REMARK    5  A    between atoms: C_13  and  O_23 
REMARK    6  A    between atoms: O_23  and  C_24 
ROOT
HETATM    1  C   UNK N   1      33.551  17.414   8.175  0.00  0.00     0.102 A 
HETATM    2  N   UNK N   1      32.413  17.323   8.793  0.00  0.00    -0.331 N 
ATOM      3  HN  UNK N   1      32.410  17.376   9.812  1.00  0.00     0.168 HD
HETATM    4  C   UNK N   1      31.258  17.167   8.174  0.00  0.00     0.164 A 
HETATM    5  C   UNK N   1      31.239  17.093   6.770  0.00  0.00     0.095 A 
HETATM    6  C   UNK N   1      32.445  17.188   6.055  0.00  0.00     0.029 A 
HETATM    7  C   UNK N   1      33.628  17.351   6.767  0.00  0.00     0.037 A 
HETATM    8  C   UNK N   1      30.009  16.924   6.092  0.00  0.00     0.104 C 
HETATM    9  N   UNK N   1      28.984  16.786   5.581  0.00  0.00    -0.191 NA
ENDROOT
BRANCH   4  10
HETATM   10  O   UNK N   1      30.170  17.089   8.959  0.00  0.00    -0.335 OA
BRANCH  10  11
HETATM   11  C   UNK N   1      29.676  18.294   9.446  0.00  0.00     0.173 C 
HETATM   12  C   UNK N   1      28.342  18.653   8.883  0.00  0.00     0.034 C 
ENDBRANCH  10  11
ENDBRANCH   4  10
BRANCH   1  13
HETATM   13  C   UNK N   1      34.653  17.576   9.001  0.00  0.00     0.268 C 
HETATM   14  N   UNK N   1      34.929  16.549   9.699  0.00  0.00    -0.351 N 
HETATM   15  C   UNK N   1      35.964  16.437  10.580  0.00  0.00     0.164 C 
HETATM   16  H   UNK N   1      34.343  15.765   9.594  0.00  0.00     0.163 HD
HETATM   17  O   UNK N   1      35.312  18.608   9.060  0.00  0.00    -0.266 OA
BRANCH  15  18
HETATM   18  C   UNK N   1      35.813  15.079  11.076  0.00  0.00    -0.004 A 
HETATM   19  C   UNK N   1      36.042  14.034  10.205  0.00  0.00     0.076 A 
HETATM   20  C   UNK N   1      35.891  12.735  10.709  0.00  0.00     0.040 A 
HETATM   21  C   UNK N   1      35.521  12.501  12.056  0.00  0.00     0.039 A 
HETATM   22  C   UNK N   1      35.294  13.577  12.928  0.00  0.00     0.069 A 
HETATM   23  C   UNK N   1      35.442  14.839  12.430  0.00  0.00     0.048 A 
BRANCH  19  24
HETATM   24  O   UNK N   1      36.404  14.222   8.894  0.00  0.00    -0.355 OA
HETATM   25  C   UNK N   1      36.912  13.289   7.994  0.00  0.00     0.210 C 
ENDBRANCH  19  24
BRANCH  22  26
HETATM   26  O   UNK N   1      34.938  13.437  14.230  0.00  0.00    -0.356 OA
HETATM   27  C   UNK N   1      35.680  12.749  15.157  0.00  0.00     0.210 C 
ENDBRANCH  22  26
ENDBRANCH  15  18
ENDBRANCH   1  13
TORSDOF 6
ENDMDL
MODEL 5
REMARK VINA RESULT:      -6.6      5.182      9.715
REMARK  6 active torsions:
REMARK  status: ('A' for Active; 'I' for Inactive)
REMARK    1  A    between atoms: C_2  and  O_19 
REMARK    2  A    between atoms: C_3  and  C_7 
REMARK    3  A    between atoms: C_5  and  O_17 
REMARK       I    between atoms: N_8  and  C_9 
REMARK    4  A    between atoms: C_9  and  C_10 
REMARK    5  A    between atoms: C_13  and  O_23 
REMARK    6  A    between atoms: O_23  and  C_24 
ROOT
HETATM    1  C   UNK N   1      27.452  18.905   6.380  0.00  0.00     0.102 A 
HETATM    2  N   UNK N   1      26.650  18.167   5.677  0.00  0.00    -0.331 N 
ATOM      3  HN  UNK N   1      26.533  17.189   5.944  1.00  0.00     0.168 HD
HETATM    4  C   UNK N   1      25.976  18.613   4.633  0.00  0.00     0.164 A 
HETATM    5  C   UNK N   1      26.122  19.957   4.248  0.00  0.00     0.095 A 
HETATM    6  C   UNK N   1      26.979  20.798   4.979  0.00  0.00     0.029 A 
HETATM    7  C   UNK N   1      27.661  20.266   6.068  0.00  0.00     0.037 A 
HETATM    8  C   UNK N   1      25.407  20.449   3.131  0.00  0.00     0.104 C 
HETATM    9  N   UNK N   1      24.805  20.808   2.214  0.00  0.00    -0.191 NA
ENDROOT
BRANCH   4  10
HETATM   10  O   UNK N   1      25.187  17.720   4.011  0.00  0.00    -0.335 OA
BRANCH  10  11
HETATM   11  C   UNK N   1      25.651  16.410   3.975  0.00  0.00     0.173 C 
HETATM   12  C   UNK N   1      26.187  16.011   2.642  0.00  0.00     0.034 C 
ENDBRANCH  10  11
ENDBRANCH   4  10
BRANCH   1  13
HETATM   13  C   UNK N   1      28.068  18.255   7.438  0.00  0.00     0.268 C 
HETATM   14  N   UNK N   1      29.244  17.845   7.177  0.00  0.00    -0.351 N 
HETATM   15  C   UNK N   1      30.072  17.188   8.040  0.00  0.00     0.164 C 
HETATM   16  H   UNK N   1      29.588  18.017   6.270  0.00  0.00     0.163 HD
HETATM   17  O   UNK N   1      27.542  18.086   8.532  0.00  0.00    -0.266 OA
BRANCH  15  18
HETATM   18  C   UNK N   1      31.264  16.975   7.236  0.00  0.00    -0.004 A 
HETATM   19  C   UNK N   1      31.188  16.102   6.170  0.00  0.00     0.076 A 
HETATM   20  C   UNK N   1      32.351  15.916   5.409  0.00  0.00     0.040 A 
HETATM   21  C   UNK N   1      33.555  16.594   5.720  0.00  0.00     0.039 A 
HETATM   22  C   UNK N   1      33.613  17.478   6.807  0.00  0.00     0.069 A 
HETATM   23  C   UNK N   1      32.477  17.654   7.543  0.00  0.00     0.048 A 
BRANCH  19  24
HETATM   24  O   UNK N   1      30.038  15.429   5.838  0.00  0.00    -0.355 OA
HETATM   25  C   UNK N   1      29.907  14.233   5.136  0.00  0.00     0.210 C 
ENDBRANCH  19  24
BRANCH  22  26
HETATM   26  O   UNK N   1      34.726  18.165   7.169  0.00  0.00    -0.356 OA
HETATM   27  C   UNK N   1      34.956  18.636   8.438  0.00  0.00     0.210 C 
ENDBRANCH  22  26
ENDBRANCH  15  18
ENDBRANCH   1  13
TORSDOF 6
ENDMDL
MODEL 6
REMARK VINA RESULT:      -6.5     13.074     14.493
REMARK  6 active torsions:
REMARK  status: ('A' for Active; 'I' for Inactive)
REMARK    1  A    between atoms: C_2  and  O_19 
REMARK    2  A    between atoms: C_3  and  C_7 
REMARK    3  A    between atoms: C_5  and  O_17 
REMARK       I    between atoms: N_8  and  C_9 
REMARK    4  A    between atoms: C_9  and  C_10 
REMARK    5  A    between atoms: C_13  and  O_23 
REMARK    6  A    between atoms: O_23  and  C_24 
ROOT
HETATM    1  C   UNK N   1      20.969  16.725   7.240  0.00  0.00     0.102 A 
HETATM    2  N   UNK N   1      19.910  16.716   7.990  0.00  0.00    -0.331 N 
ATOM      3  HN  UNK N   1      19.250  17.489   7.903  1.00  0.00     0.168 HD
HETATM    4  C   UNK N   1      19.640  15.760   8.858  0.00  0.00     0.164 A 
HETATM    5  C   UNK N   1      20.536  14.684   8.992  0.00  0.00     0.095 A 
HETATM    6  C   UNK N   1      21.697  14.648   8.202  0.00  0.00     0.029 A 
HETATM    7  C   UNK N   1      21.924  15.687   7.306  0.00  0.00     0.037 A 
HETATM    8  C   UNK N   1      20.260  13.652   9.920  0.00  0.00     0.104 C 
HETATM    9  N   UNK N   1      19.996  12.833  10.688  0.00  0.00    -0.191 NA
ENDROOT
BRANCH   4  10
HETATM   10  O   UNK N   1      18.502  15.899   9.559  0.00  0.00    -0.335 OA
BRANCH  10  11
HETATM   11  C   UNK N   1      17.647  16.917   9.148  0.00  0.00     0.173 C 
HETATM   12  C   UNK N   1      17.361  17.914  10.220  0.00  0.00     0.034 C 
ENDBRANCH  10  11
ENDBRANCH   4  10
BRANCH   1  13
HETATM   13  C   UNK N   1      21.075  17.816   6.391  0.00  0.00     0.268 C 
HETATM   14  N   UNK N   1      20.926  17.527   5.161  0.00  0.00    -0.351 N 
HETATM   15  C   UNK N   1      20.971  18.410   4.122  0.00  0.00     0.164 C 
HETATM   16  H   UNK N   1      20.763  16.582   4.939  0.00  0.00     0.163 HD
HETATM   17  O   UNK N   1      21.290  18.959   6.776  0.00  0.00    -0.266 OA
BRANCH  15  18
HETATM   18  C   UNK N   1      20.732  17.556   2.970  0.00  0.00    -0.004 A 
HETATM   19  C   UNK N   1      20.328  18.145   1.790  0.00  0.00     0.076 A 
HETATM   20  C   UNK N   1      20.106  17.300   0.694  0.00  0.00     0.040 A 
HETATM   21  C   UNK N   1      20.290  15.899   0.790  0.00  0.00     0.039 A 
HETATM   22  C   UNK N   1      20.703  15.317   1.998  0.00  0.00     0.069 A 
HETATM   23  C   UNK N   1      20.915  16.147   3.061  0.00  0.00     0.048 A 
BRANCH  19  24
HETATM   24  O   UNK N   1      20.141  19.500   1.659  0.00  0.00    -0.355 OA
HETATM   25  C   UNK N   1      20.914  20.415   0.950  0.00  0.00     0.210 C 
ENDBRANCH  19  24
BRANCH  22  26
HETATM   26  O   UNK N   1      20.901  13.986   2.172  0.00  0.00    -0.356 OA
HETATM   27  C   UNK N   1      20.887  13.364   3.395  0.00  0.00     0.210 C 
ENDBRANCH  22  26
ENDBRANCH  15  18
ENDBRANCH   1  13
TORSDOF 6
ENDMDL
MODEL 7
REMARK VINA RESULT:      -6.5      8.859     12.669
REMARK  6 active torsions:
REMARK  status: ('A' for Active; 'I' for Inactive)
REMARK    1  A    between atoms: C_2  and  O_19 
REMARK    2  A    between atoms: C_3  and  C_7 
REMARK    3  A    between atoms: C_5  and  O_17 
REMARK       I    between atoms: N_8  and  C_9 
REMARK    4  A    between atoms: C_9  and  C_10 
REMARK    5  A    between atoms: C_13  and  O_23 
REMARK    6  A    between atoms: O_23  and  C_24 
ROOT
HETATM    1  C   UNK N   1      25.457  19.672   3.571  0.00  0.00     0.102 A 
HETATM    2  N   UNK N   1      25.597  18.382   3.576  0.00  0.00    -0.331 N 
ATOM      3  HN  UNK N   1      24.811  17.809   3.270  1.00  0.00     0.168 HD
HETATM    4  C   UNK N   1      26.704  17.771   3.957  0.00  0.00     0.164 A 
HETATM    5  C   UNK N   1      27.800  18.543   4.381  0.00  0.00     0.095 A 
HETATM    6  C   UNK N   1      27.698  19.944   4.392  0.00  0.00     0.029 A 
HETATM    7  C   UNK N   1      26.504  20.526   3.980  0.00  0.00     0.037 A 
HETATM    8  C   UNK N   1      28.992  17.901   4.792  0.00  0.00     0.104 C 
HETATM    9  N   UNK N   1      29.944  17.337   5.119  0.00  0.00    -0.191 NA
ENDROOT
BRANCH   4  10
HETATM   10  O   UNK N   1      26.687  16.428   3.905  0.00  0.00    -0.335 OA
BRANCH  10  11
HETATM   11  C   UNK N   1      26.574  15.863   2.639  0.00  0.00     0.173 C 
HETATM   12  C   UNK N   1      27.781  15.088   2.230  0.00  0.00     0.034 C 
ENDBRANCH  10  11
ENDBRANCH   4  10
BRANCH   1  13
HETATM   13  C   UNK N   1      24.220  20.124   3.137  0.00  0.00     0.268 C 
HETATM   14  N   UNK N   1      23.242  19.422   3.549  0.00  0.00    -0.351 N 
HETATM   15  C   UNK N   1      21.924  19.652   3.280  0.00  0.00     0.164 C 
HETATM   16  H   UNK N   1      23.454  18.643   4.112  0.00  0.00     0.163 HD
HETATM   17  O   UNK N   1      24.068  21.109   2.425  0.00  0.00    -0.266 OA
BRANCH  15  18
HETATM   18  C   UNK N   1      21.262  18.574   3.994  0.00  0.00    -0.004 A 
HETATM   19  C   UNK N   1      20.328  17.817   3.318  0.00  0.00     0.076 A 
HETATM   20  C   UNK N   1      19.705  16.781   4.029  0.00  0.00     0.040 A 
HETATM   21  C   UNK N   1      20.020  16.521   5.385  0.00  0.00     0.039 A 
HETATM   22  C   UNK N   1      20.973  17.301   6.057  0.00  0.00     0.069 A 
HETATM   23  C   UNK N   1      21.574  18.307   5.358  0.00  0.00     0.048 A 
BRANCH  19  24
HETATM   24  O   UNK N   1      19.998  18.038   2.003  0.00  0.00    -0.355 OA
HETATM   25  C   UNK N   1      20.109  17.165   0.924  0.00  0.00     0.210 C 
ENDBRANCH  19  24
BRANCH  22  26
HETATM   26  O   UNK N   1      21.330  17.116   7.352  0.00  0.00    -0.356 OA
HETATM   27  C   UNK N   1      20.664  16.284   8.218  0.00  0.00     0.210 C 
ENDBRANCH  22  26
ENDBRANCH  15  18
ENDBRANCH   1  13
TORSDOF 6
ENDMDL
MODEL 8
REMARK VINA RESULT:      -6.5     14.674     17.617
REMARK  6 active torsions:
REMARK  status: ('A' for Active; 'I' for Inactive)
REMARK    1  A    between atoms: C_2  and  O_19 
REMARK    2  A    between atoms: C_3  and  C_7 
REMARK    3  A    between atoms: C_5  and  O_17 
REMARK       I    between atoms: N_8  and  C_9 
REMARK    4  A    between atoms: C_9  and  C_10 
REMARK    5  A    between atoms: C_13  and  O_23 
REMARK    6  A    between atoms: O_23  and  C_24 
ROOT
HETATM    1  C   UNK N   1      30.529  23.777  -3.797  0.00  0.00     0.102 A 
HETATM    2  N   UNK N   1      31.146  22.732  -4.259  0.00  0.00    -0.331 N 
ATOM      3  HN  UNK N   1      30.717  21.817  -4.121  1.00  0.00     0.168 HD
HETATM    4  C   UNK N   1      32.299  22.791  -4.899  0.00  0.00     0.164 A 
HETATM    5  C   UNK N   1      32.906  24.043  -5.101  0.00  0.00     0.095 A 
HETATM    6  C   UNK N   1      32.277  25.204  -4.621  0.00  0.00     0.029 A 
HETATM    7  C   UNK N   1      31.064  25.074  -3.954  0.00  0.00     0.037 A 
HETATM    8  C   UNK N   1      34.142  24.120  -5.785  0.00  0.00     0.104 C 
HETATM    9  N   UNK N   1      35.150  24.137  -6.347  0.00  0.00    -0.191 NA
ENDROOT
BRANCH   4  10
HETATM   10  O   UNK N   1      32.807  21.618  -5.313  0.00  0.00    -0.335 OA
BRANCH  10  11
HETATM   11  C   UNK N   1      32.904  20.616  -4.353  0.00  0.00     0.173 C 
HETATM   12  C   UNK N   1      34.106  20.753  -3.480  0.00  0.00     0.034 C 
ENDBRANCH  10  11
ENDBRANCH   4  10
BRANCH   1  13
HETATM   13  C   UNK N   1      29.330  23.511  -3.154  0.00  0.00     0.268 C 
HETATM   14  N   UNK N   1      28.374  24.271  -3.513  0.00  0.00    -0.351 N 
HETATM   15  C   UNK N   1      27.093  24.216  -3.048  0.00  0.00     0.164 C 
HETATM   16  H   UNK N   1      28.577  24.959  -4.186  0.00  0.00     0.163 HD
HETATM   17  O   UNK N   1      29.188  22.627  -2.318  0.00  0.00    -0.266 OA
BRANCH  15  18
HETATM   18  C   UNK N   1      26.441  25.282  -3.790  0.00  0.00    -0.004 A 
HETATM   19  C   UNK N   1      25.869  24.979  -5.008  0.00  0.00     0.076 A 
HETATM   20  C   UNK N   1      25.245  26.024  -5.702  0.00  0.00     0.040 A 
HETATM   21  C   UNK N   1      25.200  27.339  -5.177  0.00  0.00     0.039 A 
HETATM   22  C   UNK N   1      25.785  27.629  -3.935  0.00  0.00     0.069 A 
HETATM   23  C   UNK N   1      26.392  26.606  -3.266  0.00  0.00     0.048 A 
BRANCH  19  24
HETATM   24  O   UNK N   1      25.892  23.716  -5.548  0.00  0.00    -0.355 OA
HETATM   25  C   UNK N   1      26.610  23.259  -6.650  0.00  0.00     0.210 C 
ENDBRANCH  19  24
BRANCH  22  26
HETATM   26  O   UNK N   1      25.785  28.860  -3.364  0.00  0.00    -0.356 OA
HETATM   27  C   UNK N   1      26.486  29.932  -3.857  0.00  0.00     0.210 C 
ENDBRANCH  22  26
ENDBRANCH  15  18
ENDBRANCH   1  13
TORSDOF 6
ENDMDL
MODEL 9
REMARK VINA RESULT:      -6.5     14.400     16.848
REMARK  6 active torsions:
REMARK  status: ('A' for Active; 'I' for Inactive)
REMARK    1  A    between atoms: C_2  and  O_19 
REMARK    2  A    between atoms: C_3  and  C_7 
REMARK    3  A    between atoms: C_5  and  O_17 
REMARK       I    between atoms: N_8  and  C_9 
REMARK    4  A    between atoms: C_9  and  C_10 
REMARK    5  A    between atoms: C_13  and  O_23 
REMARK    6  A    between atoms: O_23  and  C_24 
ROOT
HETATM    1  C   UNK N   1      31.292  21.919  -3.446  0.00  0.00     0.102 A 
HETATM    2  N   UNK N   1      30.956  21.667  -4.674  0.00  0.00    -0.331 N 
ATOM      3  HN  UNK N   1      30.089  22.070  -5.031  1.00  0.00     0.168 HD
HETATM    4  C   UNK N   1      31.676  20.916  -5.486  0.00  0.00     0.164 A 
HETATM    5  C   UNK N   1      32.875  20.352  -5.014  0.00  0.00     0.095 A 
HETATM    6  C   UNK N   1      33.282  20.597  -3.692  0.00  0.00     0.029 A 
HETATM    7  C   UNK N   1      32.477  21.396  -2.887  0.00  0.00     0.037 A 
HETATM    8  C   UNK N   1      33.656  19.545  -5.874  0.00  0.00     0.104 C 
HETATM    9  N   UNK N   1      34.262  18.893  -6.608  0.00  0.00    -0.191 NA
ENDROOT
BRANCH   4  10
HETATM   10  O   UNK N   1      31.189  20.751  -6.728  0.00  0.00    -0.335 OA
BRANCH  10  11
HETATM   11  C   UNK N   1      29.869  20.325  -6.819  0.00  0.00     0.173 C 
HETATM   12  C   UNK N   1      29.700  19.105  -7.661  0.00  0.00     0.034 C 
ENDBRANCH  10  11
ENDBRANCH   4  10
BRANCH   1  13
HETATM   13  C   UNK N   1      30.405  22.729  -2.752  0.00  0.00     0.268 C 
HETATM   14  N   UNK N   1      29.434  23.152  -3.457  0.00  0.00    -0.351 N 
HETATM   15  C   UNK N   1      28.419  23.952  -3.021  0.00  0.00     0.164 C 
HETATM   16  H   UNK N   1      29.413  22.877  -4.402  0.00  0.00     0.163 HD
HETATM   17  O   UNK N   1      30.532  23.017  -1.568  0.00  0.00    -0.266 OA
BRANCH  15  18
HETATM   18  C   UNK N   1      27.604  24.110  -4.214  0.00  0.00    -0.004 A 
HETATM   19  C   UNK N   1      26.604  25.060  -4.204  0.00  0.00     0.076 A 
HETATM   20  C   UNK N   1      25.834  25.194  -5.367  0.00  0.00     0.040 A 
HETATM   21  C   UNK N   1      26.071  24.389  -6.508  0.00  0.00     0.039 A 
HETATM   22  C   UNK N   1      27.093  23.428  -6.501  0.00  0.00     0.069 A 
HETATM   23  C   UNK N   1      27.838  23.303  -5.364  0.00  0.00     0.048 A 
BRANCH  19  24
HETATM   24  O   UNK N   1      26.346  25.860  -3.117  0.00  0.00    -0.355 OA
HETATM   25  C   UNK N   1      26.128  27.234  -3.087  0.00  0.00     0.210 C 
ENDBRANCH  19  24
BRANCH  22  26
HETATM   26  O   UNK N   1      27.384  22.619  -7.551  0.00  0.00    -0.356 OA
HETATM   27  C   UNK N   1      26.774  22.710  -8.778  0.00  0.00     0.210 C 
ENDBRANCH  22  26
ENDBRANCH  15  18
ENDBRANCH   1  13
TORSDOF 6
ENDMDL
