MODEL 1
REMARK VINA RESULT:      -7.0      0.000      0.000
REMARK  7 active torsions:
REMARK  status: ('A' for Active; 'I' for Inactive)
REMARK    1  A    between atoms: C_5  and  C_6 
REMARK    2  A    between atoms: C_6  and  C_28 
REMARK    3  A    between atoms: S_7  and  N_10 
REMARK    4  A    between atoms: S_7  and  C_28 
REMARK    5  A    between atoms: C_11  and  N_10 
REMARK    6  A    between atoms: N_16  and  C_17 
REMARK    7  A    between atoms: C_17  and  C_19 
REMARK       I    between atoms: C_19  and  N_21 
ROOT
HETATM    1  C   UNK N   1      34.445  15.922   9.764  0.00  0.00     0.186 A 
HETATM    2  C   UNK N   1      33.690  14.573   9.772  0.00  0.00     0.055 A 
HETATM    3  C   UNK N   1      34.604  13.540  10.444  0.00  0.00     0.129 A 
HETATM    4  C   UNK N   1      35.657  15.584  10.526  0.00  0.00     0.244 A 
HETATM    5  O   UNK N   1      36.539  16.400  10.769  0.00  0.00    -0.271 OA
HETATM    6  N   UNK N   1      35.752  14.291  10.873  0.00  0.00    -0.337 N 
ENDROOT
BRANCH   1   7
HETATM    7  N   UNK N   1      34.885  16.358   8.434  0.00  0.00    -0.306 N 
HETATM    8  H   UNK N   1      35.590  15.858   7.894  0.00  0.00     0.173 HD
BRANCH   7   9
HETATM    9  S   UNK N   1      34.088  17.828   7.847  0.00  0.00     0.227 S 
HETATM   10  O   UNK N   1      34.986  18.960   8.366  0.00  0.00    -0.206 OA
HETATM   11  O   UNK N   1      34.394  17.867   6.341  0.00  0.00    -0.206 OA
BRANCH   9  12
HETATM   12  C   UNK N   1      32.354  18.154   8.221  0.00  0.00     0.168 C 
BRANCH  12  13
HETATM   13  C   UNK N   1      31.469  16.938   8.043  0.00  0.00     0.063 C 
BRANCH  13  14
HETATM   14  C   UNK N   1      30.115  17.480   7.803  0.00  0.00    -0.015 A 
HETATM   15  C   UNK N   1      29.392  18.285   8.686  0.00  0.00     0.017 A 
HETATM   16  C   UNK N   1      28.242  18.871   8.082  0.00  0.00     0.032 A 
HETATM   17  C   UNK N   1      28.104  18.531   6.733  0.00  0.00     0.075 A 
HETATM   18 Cl   UNK N   1      26.884  19.122   5.629  0.00  0.00    -0.076 Cl
HETATM   19  S   UNK N   1      29.363  17.543   6.332  0.00  0.00    -0.083 SA
ENDBRANCH  13  14
ENDBRANCH  12  13
ENDBRANCH   9  12
ENDBRANCH   7   9
ENDBRANCH   1   7
BRANCH   6  20
HETATM   20  C   UNK N   1      36.936  13.737  11.532  0.00  0.00     0.175 C 
HETATM   21  C   UNK N   1      36.615  13.467  12.999  0.00  0.00     0.042 C 
BRANCH  20  22
HETATM   22  C   UNK N   1      37.532  12.463  10.929  0.00  0.00     0.242 C 
HETATM   23  O   UNK N   1      37.228  11.364  11.376  0.00  0.00    -0.271 OA
HETATM   24  N   UNK N   1      38.408  12.537   9.882  0.00  0.00    -0.346 N 
HETATM   25  C   UNK N   1      38.941  11.333   9.276  0.00  0.00     0.152 C 
HETATM   26  C   UNK N   1      38.724  13.804   9.250  0.00  0.00     0.152 C 
HETATM   27  C   UNK N   1      38.827  11.446   7.747  0.00  0.00     0.187 C 
HETATM   28  O   UNK N   1      37.901  12.449   7.396  0.00  0.00    -0.388 OA
HETATM   29  C   UNK N   1      38.494  13.686   7.733  0.00  0.00     0.187 C 
ENDBRANCH  20  22
ENDBRANCH   6  20
TORSDOF 7
ENDMDL
MODEL 2
REMARK VINA RESULT:      -7.0      2.949      4.689
REMARK  7 active torsions:
REMARK  status: ('A' for Active; 'I' for Inactive)
REMARK    1  A    between atoms: C_5  and  C_6 
REMARK    2  A    between atoms: C_6  and  C_28 
REMARK    3  A    between atoms: S_7  and  N_10 
REMARK    4  A    between atoms: S_7  and  C_28 
REMARK    5  A    between atoms: C_11  and  N_10 
REMARK    6  A    between atoms: N_16  and  C_17 
REMARK    7  A    between atoms: C_17  and  C_19 
REMARK       I    between atoms: C_19  and  N_21 
ROOT
HETATM    1  C   UNK N   1      31.524  16.502   8.394  0.00  0.00     0.186 A 
HETATM    2  C   UNK N   1      32.533  17.663   8.249  0.00  0.00     0.055 A 
HETATM    3  C   UNK N   1      33.892  17.154   8.749  0.00  0.00     0.129 A 
HETATM    4  C   UNK N   1      32.399  15.408   8.845  0.00  0.00     0.244 A 
HETATM    5  O   UNK N   1      31.985  14.276   9.069  0.00  0.00    -0.271 OA
HETATM    6  N   UNK N   1      33.673  15.768   9.057  0.00  0.00    -0.337 N 
ENDROOT
BRANCH   1   7
HETATM    7  N   UNK N   1      30.520  16.705   9.444  0.00  0.00    -0.306 N 
HETATM    8  H   UNK N   1      30.680  16.450  10.419  0.00  0.00     0.173 HD
BRANCH   7   9
HETATM    9  S   UNK N   1      29.006  17.430   8.878  0.00  0.00     0.227 S 
HETATM   10  O   UNK N   1      27.969  16.955   9.906  0.00  0.00    -0.206 OA
HETATM   11  O   UNK N   1      29.123  18.919   9.235  0.00  0.00    -0.206 OA
BRANCH   9  12
HETATM   12  C   UNK N   1      28.420  17.154   7.194  0.00  0.00     0.168 C 
BRANCH  12  13
HETATM   13  C   UNK N   1      28.974  18.155   6.202  0.00  0.00     0.063 C 
BRANCH  13  14
HETATM   14  C   UNK N   1      27.806  18.950   5.767  0.00  0.00    -0.015 A 
HETATM   15  C   UNK N   1      27.489  20.238   6.206  0.00  0.00     0.017 A 
HETATM   16  C   UNK N   1      26.468  20.851   5.423  0.00  0.00     0.032 A 
HETATM   17  C   UNK N   1      26.026  20.038   4.374  0.00  0.00     0.075 A 
HETATM   18 Cl   UNK N   1      24.859  20.468   3.145  0.00  0.00    -0.076 Cl
HETATM   19  S   UNK N   1      26.875  18.626   4.440  0.00  0.00    -0.083 SA
ENDBRANCH  13  14
ENDBRANCH  12  13
ENDBRANCH   9  12
ENDBRANCH   7   9
ENDBRANCH   1   7
BRANCH   6  20
HETATM   20  C   UNK N   1      34.669  14.851   9.617  0.00  0.00     0.175 C 
HETATM   21  C   UNK N   1      35.835  14.720   8.643  0.00  0.00     0.042 C 
BRANCH  20  22
HETATM   22  C   UNK N   1      35.232  15.199  10.997  0.00  0.00     0.242 C 
HETATM   23  O   UNK N   1      35.258  16.361  11.381  0.00  0.00    -0.271 OA
HETATM   24  N   UNK N   1      35.710  14.215  11.817  0.00  0.00    -0.346 N 
HETATM   25  C   UNK N   1      36.203  14.531  13.143  0.00  0.00     0.152 C 
HETATM   26  C   UNK N   1      35.612  12.815  11.453  0.00  0.00     0.152 C 
HETATM   27  C   UNK N   1      35.596  13.546  14.154  0.00  0.00     0.187 C 
HETATM   28  O   UNK N   1      34.464  12.912  13.604  0.00  0.00    -0.388 OA
HETATM   29  C   UNK N   1      34.935  12.039  12.598  0.00  0.00     0.187 C 
ENDBRANCH  20  22
ENDBRANCH   6  20
TORSDOF 7
ENDMDL
MODEL 3
REMARK VINA RESULT:      -7.0     15.611     19.511
REMARK  7 active torsions:
REMARK  status: ('A' for Active; 'I' for Inactive)
REMARK    1  A    between atoms: C_5  and  C_6 
REMARK    2  A    between atoms: C_6  and  C_28 
REMARK    3  A    between atoms: S_7  and  N_10 
REMARK    4  A    between atoms: S_7  and  C_28 
REMARK    5  A    between atoms: C_11  and  N_10 
REMARK    6  A    between atoms: N_16  and  C_17 
REMARK    7  A    between atoms: C_17  and  C_19 
REMARK       I    between atoms: C_19  and  N_21 
ROOT
HETATM    1  C   UNK N   1      27.967  24.149  -4.477  0.00  0.00     0.186 A 
HETATM    2  C   UNK N   1      26.583  23.546  -4.809  0.00  0.00     0.055 A 
HETATM    3  C   UNK N   1      25.633  24.714  -5.108  0.00  0.00     0.129 A 
HETATM    4  C   UNK N   1      27.729  25.580  -4.724  0.00  0.00     0.244 A 
HETATM    5  O   UNK N   1      28.600  26.431  -4.588  0.00  0.00    -0.271 OA
HETATM    6  N   UNK N   1      26.462  25.885  -5.043  0.00  0.00    -0.337 N 
ENDROOT
BRANCH   1   7
HETATM    7  N   UNK N   1      28.357  24.019  -3.068  0.00  0.00    -0.306 N 
HETATM    8  H   UNK N   1      27.762  24.327  -2.299  0.00  0.00     0.173 HD
BRANCH   7   9
HETATM    9  S   UNK N   1      29.948  23.283  -2.816  0.00  0.00     0.227 S 
HETATM   10  O   UNK N   1      30.926  24.445  -3.045  0.00  0.00    -0.206 OA
HETATM   11  O   UNK N   1      30.059  23.093  -1.295  0.00  0.00    -0.206 OA
BRANCH   9  12
HETATM   12  C   UNK N   1      30.450  21.821  -3.745  0.00  0.00     0.168 C 
BRANCH  12  13
HETATM   13  C   UNK N   1      31.041  22.153  -5.100  0.00  0.00     0.063 C 
BRANCH  13  14
HETATM   14  C   UNK N   1      30.400  21.210  -6.040  0.00  0.00    -0.015 A 
HETATM   15  C   UNK N   1      29.166  21.398  -6.667  0.00  0.00     0.017 A 
HETATM   16  C   UNK N   1      28.931  20.459  -7.714  0.00  0.00     0.032 A 
HETATM   17  C   UNK N   1      29.996  19.571  -7.896  0.00  0.00     0.075 A 
HETATM   18 Cl   UNK N   1      30.126  18.343  -9.133  0.00  0.00    -0.076 Cl
HETATM   19  S   UNK N   1      31.163  19.953  -6.794  0.00  0.00    -0.083 SA
ENDBRANCH  13  14
ENDBRANCH  12  13
ENDBRANCH   9  12
ENDBRANCH   7   9
ENDBRANCH   1   7
BRANCH   6  20
HETATM   20  C   UNK N   1      26.003  27.266  -5.213  0.00  0.00     0.175 C 
HETATM   21  C   UNK N   1      24.561  27.258  -5.711  0.00  0.00     0.042 C 
BRANCH  20  22
HETATM   22  C   UNK N   1      26.083  28.178  -3.987  0.00  0.00     0.242 C 
HETATM   23  O   UNK N   1      25.514  27.871  -2.948  0.00  0.00    -0.271 OA
HETATM   24  N   UNK N   1      26.793  29.345  -4.038  0.00  0.00    -0.346 N 
HETATM   25  C   UNK N   1      26.912  30.192  -2.868  0.00  0.00     0.152 C 
HETATM   26  C   UNK N   1      27.567  29.707  -5.210  0.00  0.00     0.152 C 
HETATM   27  C   UNK N   1      28.383  30.597  -2.686  0.00  0.00     0.187 C 
HETATM   28  O   UNK N   1      29.224  29.736  -3.420  0.00  0.00    -0.388 OA
HETATM   29  C   UNK N   1      29.012  30.028  -4.785  0.00  0.00     0.187 C 
ENDBRANCH  20  22
ENDBRANCH   6  20
TORSDOF 7
ENDMDL
MODEL 4
REMARK VINA RESULT:      -6.8      4.394      9.637
REMARK  7 active torsions:
REMARK  status: ('A' for Active; 'I' for Inactive)
REMARK    1  A    between atoms: C_5  and  C_6 
REMARK    2  A    between atoms: C_6  and  C_28 
REMARK    3  A    between atoms: S_7  and  N_10 
REMARK    4  A    between atoms: S_7  and  C_28 
REMARK    5  A    between atoms: C_11  and  N_10 
REMARK    6  A    between atoms: N_16  and  C_17 
REMARK    7  A    between atoms: C_17  and  C_19 
REMARK       I    between atoms: C_19  and  N_21 
ROOT
HETATM    1  C   UNK N   1      31.614  17.203   8.358  0.00  0.00     0.186 A 
HETATM    2  C   UNK N   1      30.309  17.699   9.022  0.00  0.00     0.055 A 
HETATM    3  C   UNK N   1      29.171  17.478   8.017  0.00  0.00     0.129 A 
HETATM    4  C   UNK N   1      31.105  16.640   7.097  0.00  0.00     0.244 A 
HETATM    5  O   UNK N   1      31.834  16.116   6.262  0.00  0.00    -0.271 OA
HETATM    6  N   UNK N   1      29.789  16.810   6.905  0.00  0.00    -0.337 N 
ENDROOT
BRANCH   1   7
HETATM    7  N   UNK N   1      32.551  18.274   8.000  0.00  0.00    -0.306 N 
HETATM    8  H   UNK N   1      32.244  19.202   7.707  0.00  0.00     0.173 HD
BRANCH   7   9
HETATM    9  S   UNK N   1      34.259  17.820   8.117  0.00  0.00     0.227 S 
HETATM   10  O   UNK N   1      34.680  17.612   6.655  0.00  0.00    -0.206 OA
HETATM   11  O   UNK N   1      34.993  19.126   8.458  0.00  0.00    -0.206 OA
BRANCH   9  12
HETATM   12  C   UNK N   1      34.780  16.432   9.144  0.00  0.00     0.168 C 
BRANCH  12  13
HETATM   13  C   UNK N   1      35.352  16.863  10.478  0.00  0.00     0.063 C 
BRANCH  13  14
HETATM   14  C   UNK N   1      36.054  15.670  10.998  0.00  0.00    -0.015 A 
HETATM   15  C   UNK N   1      35.856  15.091  12.254  0.00  0.00     0.017 A 
HETATM   16  C   UNK N   1      36.469  13.810  12.373  0.00  0.00     0.032 A 
HETATM   17  C   UNK N   1      37.113  13.405  11.200  0.00  0.00     0.075 A 
HETATM   18 Cl   UNK N   1      37.895  11.867  10.920  0.00  0.00    -0.076 Cl
HETATM   19  S   UNK N   1      36.921  14.602  10.081  0.00  0.00    -0.083 SA
ENDBRANCH  13  14
ENDBRANCH  12  13
ENDBRANCH   9  12
ENDBRANCH   7   9
ENDBRANCH   1   7
BRANCH   6  20
HETATM   20  C   UNK N   1      29.117  16.423   5.663  0.00  0.00     0.175 C 
HETATM   21  C   UNK N   1      29.278  14.921   5.451  0.00  0.00     0.042 C 
BRANCH  20  22
HETATM   22  C   UNK N   1      27.631  16.769   5.542  0.00  0.00     0.242 C 
HETATM   23  O   UNK N   1      26.781  16.019   6.002  0.00  0.00    -0.271 OA
HETATM   24  N   UNK N   1      27.237  17.922   4.920  0.00  0.00    -0.346 N 
HETATM   25  C   UNK N   1      25.835  18.279   4.841  0.00  0.00     0.152 C 
HETATM   26  C   UNK N   1      28.206  18.892   4.446  0.00  0.00     0.152 C 
HETATM   27  C   UNK N   1      25.667  19.751   5.250  0.00  0.00     0.187 C 
HETATM   28  O   UNK N   1      26.802  20.199   5.955  0.00  0.00    -0.388 OA
HETATM   29  C   UNK N   1      27.856  20.278   5.018  0.00  0.00     0.187 C 
ENDBRANCH  20  22
ENDBRANCH   6  20
TORSDOF 7
ENDMDL
MODEL 5
REMARK VINA RESULT:      -6.8      1.900      3.445
REMARK  7 active torsions:
REMARK  status: ('A' for Active; 'I' for Inactive)
REMARK    1  A    between atoms: C_5  and  C_6 
REMARK    2  A    between atoms: C_6  and  C_28 
REMARK    3  A    between atoms: S_7  and  N_10 
REMARK    4  A    between atoms: S_7  and  C_28 
REMARK    5  A    between atoms: C_11  and  N_10 
REMARK    6  A    between atoms: N_16  and  C_17 
REMARK    7  A    between atoms: C_17  and  C_19 
REMARK       I    between atoms: C_19  and  N_21 
ROOT
HETATM    1  C   UNK N   1      34.681  15.189   8.167  0.00  0.00     0.186 A 
HETATM    2  C   UNK N   1      35.809  14.600   7.289  0.00  0.00     0.055 A 
HETATM    3  C   UNK N   1      36.364  13.370   8.021  0.00  0.00     0.129 A 
HETATM    4  C   UNK N   1      34.605  14.197   9.251  0.00  0.00     0.244 A 
HETATM    5  O   UNK N   1      33.805  14.283  10.176  0.00  0.00    -0.271 OA
HETATM    6  N   UNK N   1      35.530  13.228   9.182  0.00  0.00    -0.337 N 
ENDROOT
BRANCH   1   7
HETATM    7  N   UNK N   1      35.013  16.476   8.789  0.00  0.00    -0.306 N 
HETATM    8  H   UNK N   1      35.625  16.555   9.601  0.00  0.00     0.173 HD
BRANCH   7   9
HETATM    9  S   UNK N   1      34.261  17.879   8.013  0.00  0.00     0.227 S 
HETATM   10  O   UNK N   1      35.183  19.045   8.397  0.00  0.00    -0.206 OA
HETATM   11  O   UNK N   1      34.581  17.722   6.518  0.00  0.00    -0.206 OA
BRANCH   9  12
HETATM   12  C   UNK N   1      32.532  18.292   8.322  0.00  0.00     0.168 C 
BRANCH  12  13
HETATM   13  C   UNK N   1      31.682  17.083   8.650  0.00  0.00     0.063 C 
BRANCH  13  14
HETATM   14  C   UNK N   1      30.301  17.480   8.305  0.00  0.00    -0.015 A 
HETATM   15  C   UNK N   1      29.442  18.228   9.113  0.00  0.00     0.017 A 
HETATM   16  C   UNK N   1      28.284  18.680   8.417  0.00  0.00     0.032 A 
HETATM   17  C   UNK N   1      28.273  18.296   7.073  0.00  0.00     0.075 A 
HETATM   18 Cl   UNK N   1      27.079  18.733   5.874  0.00  0.00    -0.076 Cl
HETATM   19  S   UNK N   1      29.648  17.430   6.787  0.00  0.00    -0.083 SA
ENDBRANCH  13  14
ENDBRANCH  12  13
ENDBRANCH   9  12
ENDBRANCH   7   9
ENDBRANCH   1   7
BRANCH   6  20
HETATM   20  C   UNK N   1      35.691  12.216  10.228  0.00  0.00     0.175 C 
HETATM   21  C   UNK N   1      36.315  10.962   9.623  0.00  0.00     0.042 C 
BRANCH  20  22
HETATM   22  C   UNK N   1      36.510  12.615  11.458  0.00  0.00     0.242 C 
HETATM   23  O   UNK N   1      37.429  13.417  11.356  0.00  0.00    -0.271 OA
HETATM   24  N   UNK N   1      36.223  12.081  12.684  0.00  0.00    -0.346 N 
HETATM   25  C   UNK N   1      36.965  12.488  13.860  0.00  0.00     0.152 C 
HETATM   26  C   UNK N   1      35.084  11.204  12.877  0.00  0.00     0.152 C 
HETATM   27  C   UNK N   1      35.977  12.799  14.996  0.00  0.00     0.187 C 
HETATM   28  O   UNK N   1      34.681  13.000  14.478  0.00  0.00    -0.388 OA
HETATM   29  C   UNK N   1      34.222  11.741  14.034  0.00  0.00     0.187 C 
ENDBRANCH  20  22
ENDBRANCH   6  20
TORSDOF 7
ENDMDL
MODEL 6
REMARK VINA RESULT:      -6.7      4.496      8.153
REMARK  7 active torsions:
REMARK  status: ('A' for Active; 'I' for Inactive)
REMARK    1  A    between atoms: C_5  and  C_6 
REMARK    2  A    between atoms: C_6  and  C_28 
REMARK    3  A    between atoms: S_7  and  N_10 
REMARK    4  A    between atoms: S_7  and  C_28 
REMARK    5  A    between atoms: C_11  and  N_10 
REMARK    6  A    between atoms: N_16  and  C_17 
REMARK    7  A    between atoms: C_17  and  C_19 
REMARK       I    between atoms: C_19  and  N_21 
ROOT
HETATM    1  C   UNK N   1      34.396  16.480   9.297  0.00  0.00     0.186 A 
HETATM    2  C   UNK N   1      34.597  17.763   8.458  0.00  0.00     0.055 A 
HETATM    3  C   UNK N   1      33.381  17.900   7.532  0.00  0.00     0.129 A 
HETATM    4  C   UNK N   1      33.050  16.062   8.874  0.00  0.00     0.244 A 
HETATM    5  O   UNK N   1      32.491  15.068   9.324  0.00  0.00    -0.271 OA
HETATM    6  N   UNK N   1      32.513  16.818   7.905  0.00  0.00    -0.337 N 
ENDROOT
BRANCH   1   7
HETATM    7  N   UNK N   1      35.311  15.386   8.951  0.00  0.00    -0.306 N 
HETATM    8  H   UNK N   1      35.288  14.911   8.049  0.00  0.00     0.173 HD
BRANCH   7   9
HETATM    9  S   UNK N   1      36.457  14.959  10.232  0.00  0.00     0.227 S 
HETATM   10  O   UNK N   1      37.809  14.905   9.506  0.00  0.00    -0.206 OA
HETATM   11  O   UNK N   1      36.614  16.241  11.065  0.00  0.00    -0.206 OA
BRANCH   9  12
HETATM   12  C   UNK N   1      36.208  13.488  11.246  0.00  0.00     0.168 C 
BRANCH  12  13
HETATM   13  C   UNK N   1      34.980  13.576  12.128  0.00  0.00     0.063 C 
BRANCH  13  14
HETATM   14  C   UNK N   1      35.481  13.376  13.504  0.00  0.00    -0.015 A 
HETATM   15  C   UNK N   1      36.496  14.116  14.117  0.00  0.00     0.017 A 
HETATM   16  C   UNK N   1      36.580  13.879  15.520  0.00  0.00     0.032 A 
HETATM   17  C   UNK N   1      35.614  12.977  15.978  0.00  0.00     0.075 A 
HETATM   18 Cl   UNK N   1      35.334  12.505  17.637  0.00  0.00    -0.076 Cl
HETATM   19  S   UNK N   1      34.712  12.505  14.680  0.00  0.00    -0.083 SA
ENDBRANCH  13  14
ENDBRANCH  12  13
ENDBRANCH   9  12
ENDBRANCH   7   9
ENDBRANCH   1   7
BRANCH   6  20
HETATM   20  C   UNK N   1      31.233  16.494   7.271  0.00  0.00     0.175 C 
HETATM   21  C   UNK N   1      30.147  17.402   7.840  0.00  0.00     0.042 C 
BRANCH  20  22
HETATM   22  C   UNK N   1      31.176  16.576   5.744  0.00  0.00     0.242 C 
HETATM   23  O   UNK N   1      30.689  17.554   5.193  0.00  0.00    -0.271 OA
HETATM   24  N   UNK N   1      31.670  15.557   4.977  0.00  0.00    -0.346 N 
HETATM   25  C   UNK N   1      31.661  15.647   3.531  0.00  0.00     0.152 C 
HETATM   26  C   UNK N   1      32.347  14.422   5.576  0.00  0.00     0.152 C 
HETATM   27  C   UNK N   1      33.043  15.241   2.993  0.00  0.00     0.187 C 
HETATM   28  O   UNK N   1      34.007  15.300   4.019  0.00  0.00    -0.388 OA
HETATM   29  C   UNK N   1      33.721  14.239   4.907  0.00  0.00     0.187 C 
ENDBRANCH  20  22
ENDBRANCH   6  20
TORSDOF 7
ENDMDL
MODEL 7
REMARK VINA RESULT:      -6.7      5.251      8.658
REMARK  7 active torsions:
REMARK  status: ('A' for Active; 'I' for Inactive)
REMARK    1  A    between atoms: C_5  and  C_6 
REMARK    2  A    between atoms: C_6  and  C_28 
REMARK    3  A    between atoms: S_7  and  N_10 
REMARK    4  A    between atoms: S_7  and  C_28 
REMARK    5  A    between atoms: C_11  and  N_10 
REMARK    6  A    between atoms: N_16  and  C_17 
REMARK    7  A    between atoms: C_17  and  C_19 
REMARK       I    between atoms: C_19  and  N_21 
ROOT
HETATM    1  C   UNK N   1      34.158  14.656  11.111  0.00  0.00     0.186 A 
HETATM    2  C   UNK N   1      35.309  15.652  11.384  0.00  0.00     0.055 A 
HETATM    3  C   UNK N   1      35.315  16.670  10.236  0.00  0.00     0.129 A 
HETATM    4  C   UNK N   1      33.537  15.246   9.915  0.00  0.00     0.244 A 
HETATM    5  O   UNK N   1      32.553  14.760   9.368  0.00  0.00    -0.271 OA
HETATM    6  N   UNK N   1      34.177  16.322   9.431  0.00  0.00    -0.337 N 
ENDROOT
BRANCH   1   7
HETATM    7  N   UNK N   1      34.604  13.309  10.739  0.00  0.00    -0.306 N 
HETATM    8  H   UNK N   1      34.479  12.924   9.803  0.00  0.00     0.173 HD
BRANCH   7   9
HETATM    9  S   UNK N   1      35.376  12.406  12.053  0.00  0.00     0.227 S 
HETATM   10  O   UNK N   1      35.218  10.939  11.627  0.00  0.00    -0.206 OA
HETATM   11  O   UNK N   1      36.883  12.619  11.846  0.00  0.00    -0.206 OA
BRANCH   9  12
HETATM   12  C   UNK N   1      34.861  12.641  13.766  0.00  0.00     0.168 C 
BRANCH  12  13
HETATM   13  C   UNK N   1      35.842  13.466  14.573  0.00  0.00     0.063 C 
BRANCH  13  14
HETATM   14  C   UNK N   1      35.790  12.899  15.937  0.00  0.00    -0.015 A 
HETATM   15  C   UNK N   1      35.314  13.555  17.074  0.00  0.00     0.017 A 
HETATM   16  C   UNK N   1      35.139  12.677  18.184  0.00  0.00     0.032 A 
HETATM   17  C   UNK N   1      35.459  11.350  17.882  0.00  0.00     0.075 A 
HETATM   18 Cl   UNK N   1      35.287   9.971  18.942  0.00  0.00    -0.076 Cl
HETATM   19  S   UNK N   1      35.941  11.294  16.305  0.00  0.00    -0.083 SA
ENDBRANCH  13  14
ENDBRANCH  12  13
ENDBRANCH   9  12
ENDBRANCH   7   9
ENDBRANCH   1   7
BRANCH   6  20
HETATM   20  C   UNK N   1      33.781  16.979   8.183  0.00  0.00     0.175 C 
HETATM   21  C   UNK N   1      34.434  18.355   8.111  0.00  0.00     0.042 C 
BRANCH  20  22
HETATM   22  C   UNK N   1      34.085  16.234   6.882  0.00  0.00     0.242 C 
HETATM   23  O   UNK N   1      35.232  15.905   6.609  0.00  0.00    -0.271 OA
HETATM   24  N   UNK N   1      33.077  15.924   6.009  0.00  0.00    -0.346 N 
HETATM   25  C   UNK N   1      33.351  15.180   4.797  0.00  0.00     0.152 C 
HETATM   26  C   UNK N   1      31.690  16.202   6.330  0.00  0.00     0.152 C 
HETATM   27  C   UNK N   1      32.320  14.048   4.658  0.00  0.00     0.187 C 
HETATM   28  O   UNK N   1      31.691  13.801   5.896  0.00  0.00    -0.388 OA
HETATM   29  C   UNK N   1      30.863  14.914   6.160  0.00  0.00     0.187 C 
ENDBRANCH  20  22
ENDBRANCH   6  20
TORSDOF 7
ENDMDL
MODEL 8
REMARK VINA RESULT:      -6.6     15.280     19.337
REMARK  7 active torsions:
REMARK  status: ('A' for Active; 'I' for Inactive)
REMARK    1  A    between atoms: C_5  and  C_6 
REMARK    2  A    between atoms: C_6  and  C_28 
REMARK    3  A    between atoms: S_7  and  N_10 
REMARK    4  A    between atoms: S_7  and  C_28 
REMARK    5  A    between atoms: C_11  and  N_10 
REMARK    6  A    between atoms: N_16  and  C_17 
REMARK    7  A    between atoms: C_17  and  C_19 
REMARK       I    between atoms: C_19  and  N_21 
ROOT
HETATM    1  C   UNK N   1      28.182  24.138  -4.630  0.00  0.00     0.186 A 
HETATM    2  C   UNK N   1      26.813  23.516  -4.988  0.00  0.00     0.055 A 
HETATM    3  C   UNK N   1      25.835  24.672  -5.237  0.00  0.00     0.129 A 
HETATM    4  C   UNK N   1      27.909  25.572  -4.816  0.00  0.00     0.244 A 
HETATM    5  O   UNK N   1      28.760  26.438  -4.645  0.00  0.00    -0.271 OA
HETATM    6  N   UNK N   1      26.635  25.860  -5.122  0.00  0.00    -0.337 N 
ENDROOT
BRANCH   1   7
HETATM    7  N   UNK N   1      28.576  23.958  -3.228  0.00  0.00    -0.306 N 
HETATM    8  H   UNK N   1      28.038  24.338  -2.449  0.00  0.00     0.173 HD
BRANCH   7   9
HETATM    9  S   UNK N   1      30.067  23.027  -3.002  0.00  0.00     0.227 S 
HETATM   10  O   UNK N   1      31.155  23.936  -3.594  0.00  0.00    -0.206 OA
HETATM   11  O   UNK N   1      30.373  23.130  -1.500  0.00  0.00    -0.206 OA
BRANCH   9  12
HETATM   12  C   UNK N   1      30.213  21.345  -3.637  0.00  0.00     0.168 C 
BRANCH  12  13
HETATM   13  C   UNK N   1      30.315  21.287  -5.146  0.00  0.00     0.063 C 
BRANCH  13  14
HETATM   14  C   UNK N   1      31.552  20.525  -5.418  0.00  0.00    -0.015 A 
HETATM   15  C   UNK N   1      31.971  20.072  -6.671  0.00  0.00     0.017 A 
HETATM   16  C   UNK N   1      33.319  19.607  -6.667  0.00  0.00     0.032 A 
HETATM   17  C   UNK N   1      33.931  19.728  -5.416  0.00  0.00     0.075 A 
HETATM   18 Cl   UNK N   1      35.595  19.356  -5.032  0.00  0.00    -0.076 Cl
HETATM   19  S   UNK N   1      32.828  20.381  -4.377  0.00  0.00    -0.083 SA
ENDBRANCH  13  14
ENDBRANCH  12  13
ENDBRANCH   9  12
ENDBRANCH   7   9
ENDBRANCH   1   7
BRANCH   6  20
HETATM   20  C   UNK N   1      26.142  27.234  -5.233  0.00  0.00     0.175 C 
HETATM   21  C   UNK N   1      24.684  27.211  -5.680  0.00  0.00     0.042 C 
BRANCH  20  22
HETATM   22  C   UNK N   1      26.248  28.111  -3.983  0.00  0.00     0.242 C 
HETATM   23  O   UNK N   1      25.737  27.753  -2.930  0.00  0.00    -0.271 OA
HETATM   24  N   UNK N   1      26.916  29.304  -4.028  0.00  0.00    -0.346 N 
HETATM   25  C   UNK N   1      27.059  30.118  -2.838  0.00  0.00     0.152 C 
HETATM   26  C   UNK N   1      27.622  29.728  -5.222  0.00  0.00     0.152 C 
HETATM   27  C   UNK N   1      28.523  30.568  -2.709  0.00  0.00     0.187 C 
HETATM   28  O   UNK N   1      29.358  29.760  -3.507  0.00  0.00    -0.388 OA
HETATM   29  C   UNK N   1      29.073  30.086  -4.852  0.00  0.00     0.187 C 
ENDBRANCH  20  22
ENDBRANCH   6  20
TORSDOF 7
ENDMDL
MODEL 9
REMARK VINA RESULT:      -6.4      3.008      4.725
REMARK  7 active torsions:
REMARK  status: ('A' for Active; 'I' for Inactive)
REMARK    1  A    between atoms: C_5  and  C_6 
REMARK    2  A    between atoms: C_6  and  C_28 
REMARK    3  A    between atoms: S_7  and  N_10 
REMARK    4  A    between atoms: S_7  and  C_28 
REMARK    5  A    between atoms: C_11  and  N_10 
REMARK    6  A    between atoms: N_16  and  C_17 
REMARK    7  A    between atoms: C_17  and  C_19 
REMARK       I    between atoms: C_19  and  N_21 
ROOT
HETATM    1  C   UNK N   1      31.585  16.424   8.494  0.00  0.00     0.186 A 
HETATM    2  C   UNK N   1      32.577  17.607   8.418  0.00  0.00     0.055 A 
HETATM    3  C   UNK N   1      33.934  17.100   8.927  0.00  0.00     0.129 A 
HETATM    4  C   UNK N   1      32.469  15.327   8.919  0.00  0.00     0.244 A 
HETATM    5  O   UNK N   1      32.071  14.180   9.088  0.00  0.00    -0.271 OA
HETATM    6  N   UNK N   1      33.732  15.699   9.174  0.00  0.00    -0.337 N 
ENDROOT
BRANCH   1   7
HETATM    7  N   UNK N   1      30.556  16.567   9.529  0.00  0.00    -0.306 N 
HETATM    8  H   UNK N   1      30.526  15.983  10.364  0.00  0.00     0.173 HD
BRANCH   7   9
HETATM    9  S   UNK N   1      29.367  17.841   9.206  0.00  0.00     0.227 S 
HETATM   10  O   UNK N   1      28.046  17.240   9.706  0.00  0.00    -0.206 OA
HETATM   11  O   UNK N   1      29.635  18.911  10.274  0.00  0.00    -0.206 OA
BRANCH   9  12
HETATM   12  C   UNK N   1      29.178  18.532   7.550  0.00  0.00     0.168 C 
BRANCH  12  13
HETATM   13  C   UNK N   1      27.756  18.457   7.035  0.00  0.00     0.063 C 
BRANCH  13  14
HETATM   14  C   UNK N   1      27.762  17.355   6.050  0.00  0.00    -0.015 A 
HETATM   15  C   UNK N   1      27.324  16.049   6.287  0.00  0.00     0.017 A 
HETATM   16  C   UNK N   1      27.199  15.284   5.091  0.00  0.00     0.032 A 
HETATM   17  C   UNK N   1      27.519  16.015   3.943  0.00  0.00     0.075 A 
HETATM   18 Cl   UNK N   1      27.400  15.462   2.289  0.00  0.00    -0.076 Cl
HETATM   19  S   UNK N   1      27.940  17.538   4.418  0.00  0.00    -0.083 SA
ENDBRANCH  13  14
ENDBRANCH  12  13
ENDBRANCH   9  12
ENDBRANCH   7   9
ENDBRANCH   1   7
BRANCH   6  20
HETATM   20  C   UNK N   1      34.731  14.777   9.719  0.00  0.00     0.175 C 
HETATM   21  C   UNK N   1      35.886  14.646   8.731  0.00  0.00     0.042 C 
BRANCH  20  22
HETATM   22  C   UNK N   1      35.312  15.117  11.093  0.00  0.00     0.242 C 
HETATM   23  O   UNK N   1      35.391  16.282  11.462  0.00  0.00    -0.271 OA
HETATM   24  N   UNK N   1      35.745  14.123  11.927  0.00  0.00    -0.346 N 
HETATM   25  C   UNK N   1      36.254  14.434  13.248  0.00  0.00     0.152 C 
HETATM   26  C   UNK N   1      35.582  12.724  11.582  0.00  0.00     0.152 C 
HETATM   27  C   UNK N   1      35.603  13.491  14.273  0.00  0.00     0.187 C 
HETATM   28  O   UNK N   1      34.442  12.903  13.732  0.00  0.00    -0.388 OA
HETATM   29  C   UNK N   1      34.872  11.996  12.738  0.00  0.00     0.187 C 
ENDBRANCH  20  22
ENDBRANCH   6  20
TORSDOF 7
ENDMDL
