REMARK  6 active torsions:
REMARK  status: ('A' for Active; 'I' for Inactive)
REMARK    1  A    between atoms: C_5  and  C_6 
REMARK    2  A    between atoms: S_7  and  N_10 
REMARK    3  A    between atoms: S_7  and  C_28 
REMARK    4  A    between atoms: C_11  and  N_10 
REMARK    5  A    between atoms: N_16  and  C_17 
REMARK    6  A    between atoms: C_17  and  C_19 
REMARK       I    between atoms: C_19  and  N_21 
ROOT
HETATM    1  C   UNK N   1      -1.750  -0.424   0.782  0.00  0.00     0.186 C 
HETATM    2  C   UNK N   1      -0.555  -0.990   1.587  0.00  0.00     0.055 C 
HETATM    3  C   UNK N   1      -0.137  -2.279   0.876  0.00  0.00     0.129 C 
HETATM    4  C   UNK N   1      -2.229  -1.644   0.153  0.00  0.00     0.244 C 
HETATM    5  O   UNK N   1      -3.263  -1.682  -0.510  0.00  0.00    -0.271 OA
HETATM    6  N   UNK N   1      -1.287  -2.591   0.066  0.00  0.00    -0.337 N 
ENDROOT
BRANCH   1   7
HETATM    7  N   UNK N   1      -1.368   0.362  -0.398  0.00  0.00    -0.302 N 
HETATM    8  H   UNK N   1      -1.646   0.091  -1.341  0.00  0.00     0.173 HD
BRANCH   7   9
HETATM    9  S   UNK N   1      -0.411   1.789  -0.089  0.00  0.00     0.249 S 
HETATM   10  O   UNK N   1      -1.433   2.609   0.715  0.00  0.00    -0.201 OA
HETATM   11  O   UNK N   1      -0.411   2.350  -1.522  0.00  0.00    -0.201 OA
BRANCH   9  12
HETATM   12  C   UNK N   1       1.078   1.043   0.587  0.00  0.00     0.132 C 
HETATM   13  C   UNK N   1       2.340   1.451   0.632  0.00  0.00     0.032 C 
BRANCH  13  14
HETATM   14  C   UNK N   1       2.892   2.726   0.206  0.00  0.00     0.007 A 
HETATM   15  C   UNK N   1       4.258   3.005   0.237  0.00  0.00     0.021 A 
HETATM   16  C   UNK N   1       4.564   4.335  -0.156  0.00  0.00     0.033 A 
HETATM   17  C   UNK N   1       3.427   5.077  -0.480  0.00  0.00     0.075 A 
HETATM   18 Cl   UNK N   1       3.400   6.752  -0.972  0.00  0.00    -0.076 Cl
HETATM   19  S   UNK N   1       2.109   4.098  -0.283  0.00  0.00    -0.078 SA
ENDBRANCH  13  14
ENDBRANCH   9  12
ENDBRANCH   7   9
ENDBRANCH   1   7
BRANCH   6  20
HETATM   20  C   UNK N   1      -1.305  -3.635  -0.944  0.00  0.00     0.175 C 
HETATM   21  C   UNK N   1      -1.302  -2.963  -2.321  0.00  0.00     0.042 C 
BRANCH  20  22
HETATM   22  C   UNK N   1      -0.112  -4.572  -0.828  0.00  0.00     0.242 C 
HETATM   23  O   UNK N   1       0.781  -4.523  -1.664  0.00  0.00    -0.271 OA
HETATM   24  N   UNK N   1      -0.041  -5.484   0.182  0.00  0.00    -0.346 N 
HETATM   25  C   UNK N   1       1.040  -6.445   0.227  0.00  0.00     0.152 C 
HETATM   26  C   UNK N   1      -1.143  -5.673   1.100  0.00  0.00     0.152 C 
HETATM   27  C   UNK N   1       0.432  -7.857   0.283  0.00  0.00     0.187 C 
HETATM   28  O   UNK N   1      -0.943  -7.822  -0.036  0.00  0.00    -0.388 OA
HETATM   29  C   UNK N   1      -1.593  -7.144   1.021  0.00  0.00     0.187 C 
ENDBRANCH  20  22
ENDBRANCH   6  20
TORSDOF 6
