MODEL 1
REMARK VINA RESULT:      -7.1      0.000      0.000
REMARK  6 active torsions:
REMARK  status: ('A' for Active; 'I' for Inactive)
REMARK    1  A    between atoms: C_5  and  C_6 
REMARK    2  A    between atoms: S_7  and  N_10 
REMARK    3  A    between atoms: S_7  and  C_28 
REMARK    4  A    between atoms: C_11  and  N_10 
REMARK    5  A    between atoms: N_16  and  C_17 
REMARK    6  A    between atoms: C_17  and  C_19 
REMARK       I    between atoms: C_19  and  N_21 
ROOT
HETATM    1  C   UNK N   1      29.747  16.870   7.101  0.00  0.00     0.186 C 
HETATM    2  C   UNK N   1      29.910  17.871   8.271  0.00  0.00     0.055 C 
HETATM    3  C   UNK N   1      31.417  18.049   8.470  0.00  0.00     0.129 C 
HETATM    4  C   UNK N   1      31.025  16.183   7.179  0.00  0.00     0.244 C 
HETATM    5  O   UNK N   1      31.291  15.204   6.484  0.00  0.00    -0.271 OA
HETATM    6  N   UNK N   1      31.972  16.908   7.787  0.00  0.00    -0.337 N 
ENDROOT
BRANCH   1   7
HETATM    7  N   UNK N   1      29.841  17.477   5.768  0.00  0.00    -0.302 N 
HETATM    8  H   UNK N   1      30.736  17.736   5.354  0.00  0.00     0.173 HD
BRANCH   7   9
HETATM    9  S   UNK N   1      28.328  17.727   4.932  0.00  0.00     0.249 S 
HETATM   10  O   UNK N   1      27.419  16.825   5.783  0.00  0.00    -0.201 OA
HETATM   11  O   UNK N   1      28.669  16.943   3.653  0.00  0.00    -0.201 OA
BRANCH   9  12
HETATM   12  C   UNK N   1      28.266  19.523   4.900  0.00  0.00     0.132 C 
HETATM   13  C   UNK N   1      27.333  20.377   4.499  0.00  0.00     0.032 C 
BRANCH  13  14
HETATM   14  C   UNK N   1      25.987  20.089   4.032  0.00  0.00     0.007 A 
HETATM   15  C   UNK N   1      25.428  20.710   2.916  0.00  0.00     0.021 A 
HETATM   16  C   UNK N   1      24.078  20.331   2.686  0.00  0.00     0.033 A 
HETATM   17  C   UNK N   1      23.603  19.424   3.635  0.00  0.00     0.075 A 
HETATM   18 Cl   UNK N   1      21.990  18.759   3.702  0.00  0.00    -0.076 Cl
HETATM   19  S   UNK N   1      24.828  19.119   4.703  0.00  0.00    -0.078 SA
ENDBRANCH  13  14
ENDBRANCH   9  12
ENDBRANCH   7   9
ENDBRANCH   1   7
BRANCH   6  20
HETATM   20  C   UNK N   1      33.391  16.729   7.533  0.00  0.00     0.175 C 
HETATM   21  C   UNK N   1      33.766  17.581   6.316  0.00  0.00     0.042 C 
BRANCH  20  22
HETATM   22  C   UNK N   1      34.247  17.133   8.724  0.00  0.00     0.242 C 
HETATM   23  O   UNK N   1      34.766  18.242   8.750  0.00  0.00    -0.271 OA
HETATM   24  N   UNK N   1      34.463  16.263   9.750  0.00  0.00    -0.346 N 
HETATM   25  C   UNK N   1      35.364  16.611  10.828  0.00  0.00     0.152 C 
HETATM   26  C   UNK N   1      33.991  14.897   9.687  0.00  0.00     0.152 C 
HETATM   27  C   UNK N   1      36.435  15.512  10.938  0.00  0.00     0.187 C 
HETATM   28  O   UNK N   1      36.418  14.681   9.797  0.00  0.00    -0.388 OA
HETATM   29  C   UNK N   1      35.203  13.958   9.833  0.00  0.00     0.187 C 
ENDBRANCH  20  22
ENDBRANCH   6  20
TORSDOF 6
ENDMDL
MODEL 2
REMARK VINA RESULT:      -7.1      7.477     12.308
REMARK  6 active torsions:
REMARK  status: ('A' for Active; 'I' for Inactive)
REMARK    1  A    between atoms: C_5  and  C_6 
REMARK    2  A    between atoms: S_7  and  N_10 
REMARK    3  A    between atoms: S_7  and  C_28 
REMARK    4  A    between atoms: C_11  and  N_10 
REMARK    5  A    between atoms: N_16  and  C_17 
REMARK    6  A    between atoms: C_17  and  C_19 
REMARK       I    between atoms: C_19  and  N_21 
ROOT
HETATM    1  C   UNK N   1      35.117  12.571  12.307  0.00  0.00     0.186 C 
HETATM    2  C   UNK N   1      35.545  11.428  11.355  0.00  0.00     0.055 C 
HETATM    3  C   UNK N   1      35.977  12.101  10.051  0.00  0.00     0.129 C 
HETATM    4  C   UNK N   1      34.785  13.597  11.333  0.00  0.00     0.244 C 
HETATM    5  O   UNK N   1      34.280  14.671  11.653  0.00  0.00    -0.271 OA
HETATM    6  N   UNK N   1      35.393  13.414  10.155  0.00  0.00    -0.337 N 
ENDROOT
BRANCH   1   7
HETATM    7  N   UNK N   1      36.228  13.215  13.019  0.00  0.00    -0.302 N 
HETATM    8  H   UNK N   1      36.943  13.753  12.530  0.00  0.00     0.173 HD
BRANCH   7   9
HETATM    9  S   UNK N   1      36.249  13.006  14.752  0.00  0.00     0.249 S 
HETATM   10  O   UNK N   1      34.748  13.164  15.044  0.00  0.00    -0.201 OA
HETATM   11  O   UNK N   1      36.921  14.343  15.111  0.00  0.00    -0.201 OA
BRANCH   9  12
HETATM   12  C   UNK N   1      37.173  11.470  14.884  0.00  0.00     0.132 C 
HETATM   13  C   UNK N   1      37.088  10.446  15.724  0.00  0.00     0.032 C 
BRANCH  13  14
HETATM   14  C   UNK N   1      36.112  10.221  16.777  0.00  0.00     0.007 A 
HETATM   15  C   UNK N   1      35.952  11.091  17.856  0.00  0.00     0.021 A 
HETATM   16  C   UNK N   1      34.992  10.638  18.799  0.00  0.00     0.033 A 
HETATM   17  C   UNK N   1      34.424   9.413  18.445  0.00  0.00     0.075 A 
HETATM   18 Cl   UNK N   1      33.237   8.527  19.369  0.00  0.00    -0.076 Cl
HETATM   19  S   UNK N   1      35.098   8.936  17.012  0.00  0.00    -0.078 SA
ENDBRANCH  13  14
ENDBRANCH   9  12
ENDBRANCH   7   9
ENDBRANCH   1   7
BRANCH   6  20
HETATM   20  C   UNK N   1      35.679  14.501   9.234  0.00  0.00     0.175 C 
HETATM   21  C   UNK N   1      36.962  14.152   8.472  0.00  0.00     0.042 C 
BRANCH  20  22
HETATM   22  C   UNK N   1      34.545  14.738   8.248  0.00  0.00     0.242 C 
HETATM   23  O   UNK N   1      34.264  13.873   7.429  0.00  0.00    -0.271 OA
HETATM   24  N   UNK N   1      33.857  15.914   8.250  0.00  0.00    -0.346 N 
HETATM   25  C   UNK N   1      32.853  16.178   7.242  0.00  0.00     0.152 C 
HETATM   26  C   UNK N   1      34.256  17.014   9.101  0.00  0.00     0.152 C 
HETATM   27  C   UNK N   1      33.212  17.495   6.533  0.00  0.00     0.187 C 
HETATM   28  O   UNK N   1      34.534  17.884   6.840  0.00  0.00    -0.388 OA
HETATM   29  C   UNK N   1      34.552  18.234   8.209  0.00  0.00     0.187 C 
ENDBRANCH  20  22
ENDBRANCH   6  20
TORSDOF 6
ENDMDL
MODEL 3
REMARK VINA RESULT:      -7.1      2.126      3.183
REMARK  6 active torsions:
REMARK  status: ('A' for Active; 'I' for Inactive)
REMARK    1  A    between atoms: C_5  and  C_6 
REMARK    2  A    between atoms: S_7  and  N_10 
REMARK    3  A    between atoms: S_7  and  C_28 
REMARK    4  A    between atoms: C_11  and  N_10 
REMARK    5  A    between atoms: N_16  and  C_17 
REMARK    6  A    between atoms: C_17  and  C_19 
REMARK       I    between atoms: C_19  and  N_21 
ROOT
HETATM    1  C   UNK N   1      31.941  17.242   8.063  0.00  0.00     0.186 C 
HETATM    2  C   UNK N   1      33.181  18.163   7.958  0.00  0.00     0.055 C 
HETATM    3  C   UNK N   1      34.383  17.302   8.351  0.00  0.00     0.129 C 
HETATM    4  C   UNK N   1      32.440  16.257   9.009  0.00  0.00     0.244 C 
HETATM    5  O   UNK N   1      31.727  15.373   9.478  0.00  0.00    -0.271 OA
HETATM    6  N   UNK N   1      33.776  16.189   9.036  0.00  0.00    -0.337 N 
ENDROOT
BRANCH   1   7
HETATM    7  N   UNK N   1      31.710  16.398   6.884  0.00  0.00    -0.302 N 
HETATM    8  H   UNK N   1      32.397  15.714   6.566  0.00  0.00     0.173 HD
BRANCH   7   9
HETATM    9  S   UNK N   1      30.190  16.636   6.059  0.00  0.00     0.249 S 
HETATM   10  O   UNK N   1      30.048  15.259   5.391  0.00  0.00    -0.201 OA
HETATM   11  O   UNK N   1      30.693  17.610   4.980  0.00  0.00    -0.201 OA
BRANCH   9  12
HETATM   12  C   UNK N   1      29.175  17.238   7.415  0.00  0.00     0.132 C 
HETATM   13  C   UNK N   1      28.280  18.215   7.495  0.00  0.00     0.032 C 
BRANCH  13  14
HETATM   14  C   UNK N   1      27.773  19.063   6.430  0.00  0.00     0.007 A 
HETATM   15  C   UNK N   1      27.652  20.447   6.560  0.00  0.00     0.021 A 
HETATM   16  C   UNK N   1      27.067  21.064   5.423  0.00  0.00     0.033 A 
HETATM   17  C   UNK N   1      26.732  20.148   4.424  0.00  0.00     0.075 A 
HETATM   18 Cl   UNK N   1      25.966  20.525   2.901  0.00  0.00    -0.076 Cl
HETATM   19  S   UNK N   1      27.159  18.641   4.954  0.00  0.00    -0.078 SA
ENDBRANCH  13  14
ENDBRANCH   9  12
ENDBRANCH   7   9
ENDBRANCH   1   7
BRANCH   6  20
HETATM   20  C   UNK N   1      34.500  14.996   9.439  0.00  0.00     0.175 C 
HETATM   21  C   UNK N   1      35.722  14.852   8.526  0.00  0.00     0.042 C 
BRANCH  20  22
HETATM   22  C   UNK N   1      34.949  15.055  10.891  0.00  0.00     0.242 C 
HETATM   23  O   UNK N   1      35.248  16.133  11.390  0.00  0.00    -0.271 OA
HETATM   24  N   UNK N   1      35.049  13.917  11.634  0.00  0.00    -0.346 N 
HETATM   25  C   UNK N   1      35.579  13.965  12.980  0.00  0.00     0.152 C 
HETATM   26  C   UNK N   1      34.849  12.614  11.039  0.00  0.00     0.152 C 
HETATM   27  C   UNK N   1      36.761  12.984  13.071  0.00  0.00     0.187 C 
HETATM   28  O   UNK N   1      37.172  12.576  11.783  0.00  0.00    -0.388 OA
HETATM   29  C   UNK N   1      36.129  11.783  11.251  0.00  0.00     0.187 C 
ENDBRANCH  20  22
ENDBRANCH   6  20
TORSDOF 6
ENDMDL
MODEL 4
REMARK VINA RESULT:      -7.0      4.491      6.276
REMARK  6 active torsions:
REMARK  status: ('A' for Active; 'I' for Inactive)
REMARK    1  A    between atoms: C_5  and  C_6 
REMARK    2  A    between atoms: S_7  and  N_10 
REMARK    3  A    between atoms: S_7  and  C_28 
REMARK    4  A    between atoms: C_11  and  N_10 
REMARK    5  A    between atoms: N_16  and  C_17 
REMARK    6  A    between atoms: C_17  and  C_19 
REMARK       I    between atoms: C_19  and  N_21 
ROOT
HETATM    1  C   UNK N   1      34.257  16.320   9.819  0.00  0.00     0.186 C 
HETATM    2  C   UNK N   1      35.313  16.789  10.850  0.00  0.00     0.055 C 
HETATM    3  C   UNK N   1      36.394  15.707  10.872  0.00  0.00     0.129 C 
HETATM    4  C   UNK N   1      34.506  14.888   9.840  0.00  0.00     0.244 C 
HETATM    5  O   UNK N   1      33.798  14.087   9.233  0.00  0.00    -0.271 OA
HETATM    6  N   UNK N   1      35.737  14.578  10.265  0.00  0.00    -0.337 N 
ENDROOT
BRANCH   1   7
HETATM    7  N   UNK N   1      34.589  16.637   8.425  0.00  0.00    -0.302 N 
HETATM    8  H   UNK N   1      35.158  16.015   7.850  0.00  0.00     0.173 HD
BRANCH   7   9
HETATM    9  S   UNK N   1      33.950  18.140   7.809  0.00  0.00     0.249 S 
HETATM   10  O   UNK N   1      34.188  17.919   6.307  0.00  0.00    -0.201 OA
HETATM   11  O   UNK N   1      35.075  19.062   8.312  0.00  0.00    -0.201 OA
BRANCH   9  12
HETATM   12  C   UNK N   1      32.341  18.163   8.610  0.00  0.00     0.132 C 
HETATM   13  C   UNK N   1      31.170  17.635   8.276  0.00  0.00     0.032 C 
BRANCH  13  14
HETATM   14  C   UNK N   1      30.860  16.764   7.154  0.00  0.00     0.007 A 
HETATM   15  C   UNK N   1      29.833  17.035   6.251  0.00  0.00     0.021 A 
HETATM   16  C   UNK N   1      29.663  16.014   5.279  0.00  0.00     0.033 A 
HETATM   17  C   UNK N   1      30.557  14.955   5.446  0.00  0.00     0.075 A 
HETATM   18 Cl   UNK N   1      30.629  13.509   4.470  0.00  0.00    -0.076 Cl
HETATM   19  S   UNK N   1      31.512  15.299   6.751  0.00  0.00    -0.078 SA
ENDBRANCH  13  14
ENDBRANCH   9  12
ENDBRANCH   7   9
ENDBRANCH   1   7
BRANCH   6  20
HETATM   20  C   UNK N   1      36.419  13.352   9.887  0.00  0.00     0.175 C 
HETATM   21  C   UNK N   1      37.286  13.650   8.660  0.00  0.00     0.042 C 
BRANCH  20  22
HETATM   22  C   UNK N   1      37.289  12.806  11.010  0.00  0.00     0.242 C 
HETATM   23  O   UNK N   1      38.507  12.909  10.937  0.00  0.00    -0.271 OA
HETATM   24  N   UNK N   1      36.728  12.179  12.081  0.00  0.00    -0.346 N 
HETATM   25  C   UNK N   1      37.562  11.566  13.092  0.00  0.00     0.152 C 
HETATM   26  C   UNK N   1      35.308  11.907  12.132  0.00  0.00     0.152 C 
HETATM   27  C   UNK N   1      37.154  10.089  13.229  0.00  0.00     0.187 C 
HETATM   28  O   UNK N   1      36.335   9.695  12.148  0.00  0.00    -0.388 OA
HETATM   29  C   UNK N   1      35.110  10.388  12.287  0.00  0.00     0.187 C 
ENDBRANCH  20  22
ENDBRANCH   6  20
TORSDOF 6
ENDMDL
MODEL 5
REMARK VINA RESULT:      -6.9      4.350      6.398
REMARK  6 active torsions:
REMARK  status: ('A' for Active; 'I' for Inactive)
REMARK    1  A    between atoms: C_5  and  C_6 
REMARK    2  A    between atoms: S_7  and  N_10 
REMARK    3  A    between atoms: S_7  and  C_28 
REMARK    4  A    between atoms: C_11  and  N_10 
REMARK    5  A    between atoms: N_16  and  C_17 
REMARK    6  A    between atoms: C_17  and  C_19 
REMARK       I    between atoms: C_19  and  N_21 
ROOT
HETATM    1  C   UNK N   1      34.428  16.381   9.886  0.00  0.00     0.186 C 
HETATM    2  C   UNK N   1      35.684  16.411  10.792  0.00  0.00     0.055 C 
HETATM    3  C   UNK N   1      36.319  15.023  10.683  0.00  0.00     0.129 C 
HETATM    4  C   UNK N   1      34.166  14.951   9.870  0.00  0.00     0.244 C 
HETATM    5  O   UNK N   1      33.165  14.470   9.344  0.00  0.00    -0.271 OA
HETATM    6  N   UNK N   1      35.251  14.218  10.149  0.00  0.00    -0.337 N 
ENDROOT
BRANCH   1   7
HETATM    7  N   UNK N   1      34.700  16.627   8.464  0.00  0.00    -0.302 N 
HETATM    8  H   UNK N   1      35.282  15.999   7.909  0.00  0.00     0.173 HD
BRANCH   7   9
HETATM    9  S   UNK N   1      33.967  18.056   7.782  0.00  0.00     0.249 S 
HETATM   10  O   UNK N   1      34.298  17.826   6.298  0.00  0.00    -0.201 OA
HETATM   11  O   UNK N   1      34.982  19.082   8.316  0.00  0.00    -0.201 OA
BRANCH   9  12
HETATM   12  C   UNK N   1      32.324  17.956   8.503  0.00  0.00     0.132 C 
HETATM   13  C   UNK N   1      31.172  17.487   8.039  0.00  0.00     0.032 C 
BRANCH  13  14
HETATM   14  C   UNK N   1      30.917  16.803   6.783  0.00  0.00     0.007 A 
HETATM   15  C   UNK N   1      31.364  15.507   6.525  0.00  0.00     0.021 A 
HETATM   16  C   UNK N   1      31.063  15.065   5.209  0.00  0.00     0.033 A 
HETATM   17  C   UNK N   1      30.392  16.030   4.456  0.00  0.00     0.075 A 
HETATM   18 Cl   UNK N   1      29.889  15.866   2.793  0.00  0.00    -0.076 Cl
HETATM   19  S   UNK N   1      30.188  17.366   5.409  0.00  0.00    -0.078 SA
ENDBRANCH  13  14
ENDBRANCH   9  12
ENDBRANCH   7   9
ENDBRANCH   1   7
BRANCH   6  20
HETATM   20  C   UNK N   1      35.421  12.851   9.689  0.00  0.00     0.175 C 
HETATM   21  C   UNK N   1      36.895  12.656   9.315  0.00  0.00     0.042 C 
BRANCH  20  22
HETATM   22  C   UNK N   1      35.021  11.831  10.745  0.00  0.00     0.242 C 
HETATM   23  O   UNK N   1      35.658  11.757  11.788  0.00  0.00    -0.271 OA
HETATM   24  N   UNK N   1      33.978  10.981  10.530  0.00  0.00    -0.346 N 
HETATM   25  C   UNK N   1      33.669   9.942  11.489  0.00  0.00     0.152 C 
HETATM   26  C   UNK N   1      33.298  10.938   9.254  0.00  0.00     0.152 C 
HETATM   27  C   UNK N   1      33.676   8.589  10.757  0.00  0.00     0.187 C 
HETATM   28  O   UNK N   1      34.271   8.713   9.482  0.00  0.00    -0.388 OA
HETATM   29  C   UNK N   1      33.401   9.505   8.698  0.00  0.00     0.187 C 
ENDBRANCH  20  22
ENDBRANCH   6  20
TORSDOF 6
ENDMDL
MODEL 6
REMARK VINA RESULT:      -6.9      4.509      9.349
REMARK  6 active torsions:
REMARK  status: ('A' for Active; 'I' for Inactive)
REMARK    1  A    between atoms: C_5  and  C_6 
REMARK    2  A    between atoms: S_7  and  N_10 
REMARK    3  A    between atoms: S_7  and  C_28 
REMARK    4  A    between atoms: C_11  and  N_10 
REMARK    5  A    between atoms: N_16  and  C_17 
REMARK    6  A    between atoms: C_17  and  C_19 
REMARK       I    between atoms: C_19  and  N_21 
ROOT
HETATM    1  C   UNK N   1      32.040  16.637   7.357  0.00  0.00     0.186 C 
HETATM    2  C   UNK N   1      32.132  17.805   8.369  0.00  0.00     0.055 C 
HETATM    3  C   UNK N   1      30.691  18.235   8.652  0.00  0.00     0.129 C 
HETATM    4  C   UNK N   1      30.746  16.923   6.760  0.00  0.00     0.244 C 
HETATM    5  O   UNK N   1      30.308  16.291   5.801  0.00  0.00    -0.271 OA
HETATM    6  N   UNK N   1      29.958  17.662   7.551  0.00  0.00    -0.337 N 
ENDROOT
BRANCH   1   7
HETATM    7  N   UNK N   1      31.779  15.326   7.966  0.00  0.00    -0.302 N 
HETATM    8  H   UNK N   1      31.086  15.202   8.704  0.00  0.00     0.173 HD
BRANCH   7   9
HETATM    9  S   UNK N   1      32.724  13.994   7.350  0.00  0.00     0.249 S 
HETATM   10  O   UNK N   1      31.726  13.429   6.326  0.00  0.00    -0.201 OA
HETATM   11  O   UNK N   1      32.648  13.095   8.597  0.00  0.00    -0.201 OA
BRANCH   9  12
HETATM   12  C   UNK N   1      34.255  14.842   6.942  0.00  0.00     0.132 C 
HETATM   13  C   UNK N   1      35.209  15.375   7.695  0.00  0.00     0.032 C 
BRANCH  13  14
HETATM   14  C   UNK N   1      35.340  15.343   9.142  0.00  0.00     0.007 A 
HETATM   15  C   UNK N   1      35.135  16.465   9.943  0.00  0.00     0.021 A 
HETATM   16  C   UNK N   1      35.387  16.221  11.320  0.00  0.00     0.033 A 
HETATM   17  C   UNK N   1      35.795  14.909  11.569  0.00  0.00     0.075 A 
HETATM   18 Cl   UNK N   1      36.227  14.246  13.125  0.00  0.00    -0.076 Cl
HETATM   19  S   UNK N   1      35.829  14.105  10.124  0.00  0.00    -0.078 SA
ENDBRANCH  13  14
ENDBRANCH   9  12
ENDBRANCH   7   9
ENDBRANCH   1   7
BRANCH   6  20
HETATM   20  C   UNK N   1      28.508  17.637   7.471  0.00  0.00     0.175 C 
HETATM   21  C   UNK N   1      27.963  17.281   8.858  0.00  0.00     0.042 C 
BRANCH  20  22
HETATM   22  C   UNK N   1      27.931  18.969   7.019  0.00  0.00     0.242 C 
HETATM   23  O   UNK N   1      27.724  19.852   7.842  0.00  0.00    -0.271 OA
HETATM   24  N   UNK N   1      27.615  19.181   5.710  0.00  0.00    -0.346 N 
HETATM   25  C   UNK N   1      26.966  20.409   5.303  0.00  0.00     0.152 C 
HETATM   26  C   UNK N   1      27.705  18.116   4.736  0.00  0.00     0.152 C 
HETATM   27  C   UNK N   1      25.666  20.048   4.563  0.00  0.00     0.187 C 
HETATM   28  O   UNK N   1      25.335  18.691   4.769  0.00  0.00    -0.388 OA
HETATM   29  C   UNK N   1      26.315  17.923   4.100  0.00  0.00     0.187 C 
ENDBRANCH  20  22
ENDBRANCH   6  20
TORSDOF 6
ENDMDL
MODEL 7
REMARK VINA RESULT:      -6.8      7.326     11.838
REMARK  6 active torsions:
REMARK  status: ('A' for Active; 'I' for Inactive)
REMARK    1  A    between atoms: C_5  and  C_6 
REMARK    2  A    between atoms: S_7  and  N_10 
REMARK    3  A    between atoms: S_7  and  C_28 
REMARK    4  A    between atoms: C_11  and  N_10 
REMARK    5  A    between atoms: N_16  and  C_17 
REMARK    6  A    between atoms: C_17  and  C_19 
REMARK       I    between atoms: C_19  and  N_21 
ROOT
HETATM    1  C   UNK N   1      34.982  11.803  11.966  0.00  0.00     0.186 C 
HETATM    2  C   UNK N   1      34.863  10.878  10.731  0.00  0.00     0.055 C 
HETATM    3  C   UNK N   1      35.142  11.760   9.512  0.00  0.00     0.129 C 
HETATM    4  C   UNK N   1      34.715  13.089  11.343  0.00  0.00     0.244 C 
HETATM    5  O   UNK N   1      34.597  14.125  11.994  0.00  0.00    -0.271 OA
HETATM    6  N   UNK N   1      34.964  13.093  10.028  0.00  0.00    -0.337 N 
ENDROOT
BRANCH   1   7
HETATM    7  N   UNK N   1      36.357  12.007  12.441  0.00  0.00    -0.302 N 
HETATM    8  H   UNK N   1      36.883  12.853  12.224  0.00  0.00     0.173 HD
BRANCH   7   9
HETATM    9  S   UNK N   1      37.034  10.715  13.400  0.00  0.00     0.249 S 
HETATM   10  O   UNK N   1      38.026  11.525  14.249  0.00  0.00    -0.201 OA
HETATM   11  O   UNK N   1      37.847  10.035  12.283  0.00  0.00    -0.201 OA
BRANCH   9  12
HETATM   12  C   UNK N   1      35.532   9.945  14.017  0.00  0.00     0.132 C 
HETATM   13  C   UNK N   1      34.819  10.135  15.120  0.00  0.00     0.032 C 
BRANCH  13  14
HETATM   14  C   UNK N   1      35.009  11.137  16.156  0.00  0.00     0.007 A 
HETATM   15  C   UNK N   1      35.228  10.808  17.493  0.00  0.00     0.021 A 
HETATM   16  C   UNK N   1      35.314  11.945  18.339  0.00  0.00     0.033 A 
HETATM   17  C   UNK N   1      35.152  13.147  17.647  0.00  0.00     0.075 A 
HETATM   18 Cl   UNK N   1      35.160  14.745  18.350  0.00  0.00    -0.076 Cl
HETATM   19  S   UNK N   1      34.917  12.785  16.051  0.00  0.00    -0.078 SA
ENDBRANCH  13  14
ENDBRANCH   9  12
ENDBRANCH   7   9
ENDBRANCH   1   7
BRANCH   6  20
HETATM   20  C   UNK N   1      35.305  14.297   9.291  0.00  0.00     0.175 C 
HETATM   21  C   UNK N   1      36.622  14.043   8.550  0.00  0.00     0.042 C 
BRANCH  20  22
HETATM   22  C   UNK N   1      34.224  14.690   8.294  0.00  0.00     0.242 C 
HETATM   23  O   UNK N   1      33.852  13.883   7.453  0.00  0.00    -0.271 OA
HETATM   24  N   UNK N   1      33.685  15.942   8.313  0.00  0.00    -0.346 N 
HETATM   25  C   UNK N   1      32.737  16.346   7.297  0.00  0.00     0.152 C 
HETATM   26  C   UNK N   1      34.202  16.968   9.192  0.00  0.00     0.152 C 
HETATM   27  C   UNK N   1      33.265  17.623   6.621  0.00  0.00     0.187 C 
HETATM   28  O   UNK N   1      34.620  17.841   6.954  0.00  0.00    -0.388 OA
HETATM   29  C   UNK N   1      34.659  18.160   8.331  0.00  0.00     0.187 C 
ENDBRANCH  20  22
ENDBRANCH   6  20
TORSDOF 6
ENDMDL
MODEL 8
REMARK VINA RESULT:      -6.7      5.965     10.959
REMARK  6 active torsions:
REMARK  status: ('A' for Active; 'I' for Inactive)
REMARK    1  A    between atoms: C_5  and  C_6 
REMARK    2  A    between atoms: S_7  and  N_10 
REMARK    3  A    between atoms: S_7  and  C_28 
REMARK    4  A    between atoms: C_11  and  N_10 
REMARK    5  A    between atoms: N_16  and  C_17 
REMARK    6  A    between atoms: C_17  and  C_19 
REMARK       I    between atoms: C_19  and  N_21 
ROOT
HETATM    1  C   UNK N   1      34.637  14.028   9.200  0.00  0.00     0.186 C 
HETATM    2  C   UNK N   1      35.328  14.371   7.857  0.00  0.00     0.055 C 
HETATM    3  C   UNK N   1      34.785  15.739   7.438  0.00  0.00     0.129 C 
HETATM    4  C   UNK N   1      33.443  14.849   9.084  0.00  0.00     0.244 C 
HETATM    5  O   UNK N   1      32.528  14.802   9.904  0.00  0.00    -0.271 OA
HETATM    6  N   UNK N   1      33.595  15.876   8.239  0.00  0.00    -0.337 N 
ENDROOT
BRANCH   1   7
HETATM    7  N   UNK N   1      35.272  14.631  10.379  0.00  0.00    -0.302 N 
HETATM    8  H   UNK N   1      35.299  15.640  10.521  0.00  0.00     0.173 HD
BRANCH   7   9
HETATM    9  S   UNK N   1      35.974  13.515  11.523  0.00  0.00     0.249 S 
HETATM   10  O   UNK N   1      37.062  12.892  10.633  0.00  0.00    -0.201 OA
HETATM   11  O   UNK N   1      34.807  12.513  11.576  0.00  0.00    -0.201 OA
BRANCH   9  12
HETATM   12  C   UNK N   1      36.279  14.618  12.909  0.00  0.00     0.132 C 
HETATM   13  C   UNK N   1      36.306  14.417  14.221  0.00  0.00     0.032 C 
BRANCH  13  14
HETATM   14  C   UNK N   1      36.179  13.164  14.945  0.00  0.00     0.007 A 
HETATM   15  C   UNK N   1      37.090  12.117  14.806  0.00  0.00     0.021 A 
HETATM   16  C   UNK N   1      36.732  10.963  15.553  0.00  0.00     0.033 A 
HETATM   17  C   UNK N   1      35.538  11.127  16.257  0.00  0.00     0.075 A 
HETATM   18 Cl   UNK N   1      34.762   9.922  17.255  0.00  0.00    -0.076 Cl
HETATM   19  S   UNK N   1      34.973  12.651  15.953  0.00  0.00    -0.078 SA
ENDBRANCH  13  14
ENDBRANCH   9  12
ENDBRANCH   7   9
ENDBRANCH   1   7
BRANCH   6  20
HETATM   20  C   UNK N   1      32.823  17.102   8.336  0.00  0.00     0.175 C 
HETATM   21  C   UNK N   1      33.765  18.279   8.059  0.00  0.00     0.042 C 
BRANCH  20  22
HETATM   22  C   UNK N   1      31.661  17.134   7.355  0.00  0.00     0.242 C 
HETATM   23  O   UNK N   1      31.883  17.230   6.155  0.00  0.00    -0.271 OA
HETATM   24  N   UNK N   1      30.374  17.083   7.800  0.00  0.00    -0.346 N 
HETATM   25  C   UNK N   1      29.272  17.222   6.873  0.00  0.00     0.152 C 
HETATM   26  C   UNK N   1      30.069  17.119   9.214  0.00  0.00     0.152 C 
HETATM   27  C   UNK N   1      28.380  18.381   7.351  0.00  0.00     0.187 C 
HETATM   28  O   UNK N   1      29.042  19.148   8.334  0.00  0.00    -0.388 OA
HETATM   29  C   UNK N   1      29.158  18.332   9.483  0.00  0.00     0.187 C 
ENDBRANCH  20  22
ENDBRANCH   6  20
TORSDOF 6
ENDMDL
MODEL 9
REMARK VINA RESULT:      -6.7      7.499     11.978
REMARK  6 active torsions:
REMARK  status: ('A' for Active; 'I' for Inactive)
REMARK    1  A    between atoms: C_5  and  C_6 
REMARK    2  A    between atoms: S_7  and  N_10 
REMARK    3  A    between atoms: S_7  and  C_28 
REMARK    4  A    between atoms: C_11  and  N_10 
REMARK    5  A    between atoms: N_16  and  C_17 
REMARK    6  A    between atoms: C_17  and  C_19 
REMARK       I    between atoms: C_19  and  N_21 
ROOT
HETATM    1  C   UNK N   1      35.116  12.471  12.201  0.00  0.00     0.186 C 
HETATM    2  C   UNK N   1      35.373  11.332  11.185  0.00  0.00     0.055 C 
HETATM    3  C   UNK N   1      35.758  12.014   9.871  0.00  0.00     0.129 C 
HETATM    4  C   UNK N   1      34.798  13.556  11.287  0.00  0.00     0.244 C 
HETATM    5  O   UNK N   1      34.411  14.655  11.677  0.00  0.00    -0.271 OA
HETATM    6  N   UNK N   1      35.296  13.366  10.059  0.00  0.00    -0.337 N 
ENDROOT
BRANCH   1   7
HETATM    7  N   UNK N   1      36.329  12.996  12.841  0.00  0.00    -0.302 N 
HETATM    8  H   UNK N   1      37.152  13.263  12.302  0.00  0.00     0.173 HD
BRANCH   7   9
HETATM    9  S   UNK N   1      36.274  13.140  14.580  0.00  0.00     0.249 S 
HETATM   10  O   UNK N   1      36.808  14.574  14.732  0.00  0.00    -0.201 OA
HETATM   11  O   UNK N   1      37.441  12.189  14.901  0.00  0.00    -0.201 OA
BRANCH   9  12
HETATM   12  C   UNK N   1      34.581  12.628  14.897  0.00  0.00     0.132 C 
HETATM   13  C   UNK N   1      34.045  11.452  15.197  0.00  0.00     0.032 C 
BRANCH  13  14
HETATM   14  C   UNK N   1      34.720  10.193  15.459  0.00  0.00     0.007 A 
HETATM   15  C   UNK N   1      34.912   9.692  16.746  0.00  0.00     0.021 A 
HETATM   16  C   UNK N   1      35.659   8.484  16.769  0.00  0.00     0.033 A 
HETATM   17  C   UNK N   1      36.046   8.065  15.495  0.00  0.00     0.075 A 
HETATM   18 Cl   UNK N   1      37.000   6.650  15.126  0.00  0.00    -0.076 Cl
HETATM   19  S   UNK N   1      35.469   9.164  14.402  0.00  0.00    -0.078 SA
ENDBRANCH  13  14
ENDBRANCH   9  12
ENDBRANCH   7   9
ENDBRANCH   1   7
BRANCH   6  20
HETATM   20  C   UNK N   1      35.602  14.458   9.152  0.00  0.00     0.175 C 
HETATM   21  C   UNK N   1      36.865  14.085   8.368  0.00  0.00     0.042 C 
BRANCH  20  22
HETATM   22  C   UNK N   1      34.463  14.742   8.184  0.00  0.00     0.242 C 
HETATM   23  O   UNK N   1      34.148  13.899   7.354  0.00  0.00    -0.271 OA
HETATM   24  N   UNK N   1      33.807  15.936   8.214  0.00  0.00    -0.346 N 
HETATM   25  C   UNK N   1      32.798  16.244   7.223  0.00  0.00     0.152 C 
HETATM   26  C   UNK N   1      34.246  17.010   9.078  0.00  0.00     0.152 C 
HETATM   27  C   UNK N   1      33.184  17.563   6.532  0.00  0.00     0.187 C 
HETATM   28  O   UNK N   1      34.520  17.910   6.828  0.00  0.00    -0.388 OA
HETATM   29  C   UNK N   1      34.564  18.237   8.203  0.00  0.00     0.187 C 
ENDBRANCH  20  22
ENDBRANCH   6  20
TORSDOF 6
ENDMDL
