MODEL 1
REMARK VINA RESULT:      -6.6      0.000      0.000
REMARK  8 active torsions:
REMARK  status: ('A' for Active; 'I' for Inactive)
REMARK       I    between atoms: C_2  and  N_3 
REMARK    1  A    between atoms: C_2  and  C_9 
REMARK    2  A    between atoms: N_3  and  C_4 
REMARK    3  A    between atoms: N_3  and  C_6 
REMARK    4  A    between atoms: C_11  and  O_16 
REMARK    5  A    between atoms: O_16  and  C_17 
REMARK    6  A    between atoms: C_17  and  C_18 
REMARK    7  A    between atoms: C_18  and  N_20 
REMARK    8  A    between atoms: N_20  and  C_21 
ROOT
HETATM    1  C   UNK N   1      36.386  14.059  12.273  0.00  0.00     0.035 A 
HETATM    2  C   UNK N   1      35.488  15.002  11.746  0.00  0.00     0.053 A 
HETATM    3  C   UNK N   1      35.436  15.266  10.378  0.00  0.00     0.070 A 
HETATM    4  C   UNK N   1      36.277  14.572   9.502  0.00  0.00     0.043 A 
HETATM    5  C   UNK N   1      37.168  13.621  10.005  0.00  0.00    -0.058 A 
HETATM    6  C   UNK N   1      38.053  12.866   9.079  0.00  0.00     0.048 C 
HETATM    7  C   UNK N   1      37.221  13.373  11.379  0.00  0.00     0.024 A 
ENDROOT
BRANCH   3   8
HETATM    8  O   UNK N   1      34.580  16.192   9.911  0.00  0.00    -0.349 OA
BRANCH   8   9
HETATM    9  C   UNK N   1      33.513  15.820   9.128  0.00  0.00     0.200 C 
BRANCH   9  10
HETATM   10  C   UNK N   1      32.930  16.998   8.352  0.00  0.00     0.102 C 
HETATM   11  C   UNK N   1      34.026  17.980   7.964  0.00  0.00     0.034 C 
BRANCH  10  12
HETATM   12  N   UNK N   1      31.887  17.666   9.107  0.00  0.00    -0.384 N 
HETATM   13  H   UNK N   1      32.133  18.152   9.928  0.00  0.00     0.160 HD
BRANCH  12  14
HETATM   14  C   UNK N   1      30.521  17.645   8.704  0.00  0.00     0.030 A 
HETATM   15  C   UNK N   1      29.529  18.074   9.591  0.00  0.00     0.046 A 
HETATM   16  C   UNK N   1      28.186  18.017   9.202  0.00  0.00     0.089 A 
HETATM   17  N   UNK N   1      27.848  17.541   7.972  0.00  0.00    -0.375 N 
HETATM   18  C   UNK N   1      28.793  17.116   7.093  0.00  0.00     0.089 A 
ATOM     19  HN  UNK N   1      26.864  17.504   7.704  1.00  0.00     0.164 HD
HETATM   20  C   UNK N   1      30.143  17.158   7.444  0.00  0.00     0.046 A 
ENDBRANCH  12  14
ENDBRANCH  10  12
ENDBRANCH   9  10
ENDBRANCH   8   9
ENDBRANCH   3   8
BRANCH   1  21
HETATM   21  C   UNK N   1      36.371  13.841  13.763  0.00  0.00     0.254 C 
HETATM   22  O   UNK N   1      36.701  14.797  14.453  0.00  0.00    -0.267 OA
HETATM   23  N   UNK N   1      36.041  12.656  14.402  0.00  0.00    -0.344 N 
BRANCH  23  24
HETATM   24  C   UNK N   1      36.095  12.654  15.863  0.00  0.00     0.122 C 
HETATM   25  C   UNK N   1      34.802  13.087  16.548  0.00  0.00     0.026 C 
ENDBRANCH  23  24
BRANCH  23  26
HETATM   26  C   UNK N   1      35.699  11.410  13.725  0.00  0.00     0.079 C 
HETATM   27  C   UNK N   1      36.567  10.231  14.131  0.00  0.00     0.032 C 
HETATM   28  C   UNK N   1      34.206  11.122  13.703  0.00  0.00     0.032 C 
ENDBRANCH  23  26
ENDBRANCH   1  21
TORSDOF 8
ENDMDL
MODEL 2
REMARK VINA RESULT:      -6.6     16.483     19.177
REMARK  8 active torsions:
REMARK  status: ('A' for Active; 'I' for Inactive)
REMARK       I    between atoms: C_2  and  N_3 
REMARK    1  A    between atoms: C_2  and  C_9 
REMARK    2  A    between atoms: N_3  and  C_4 
REMARK    3  A    between atoms: N_3  and  C_6 
REMARK    4  A    between atoms: C_11  and  O_16 
REMARK    5  A    between atoms: O_16  and  C_17 
REMARK    6  A    between atoms: C_17  and  C_18 
REMARK    7  A    between atoms: C_18  and  N_20 
REMARK    8  A    between atoms: N_20  and  C_21 
ROOT
HETATM    1  C   UNK N   1      30.707  23.428  -3.480  0.00  0.00     0.035 A 
HETATM    2  C   UNK N   1      29.313  23.262  -3.516  0.00  0.00     0.053 A 
HETATM    3  C   UNK N   1      28.457  24.356  -3.642  0.00  0.00     0.070 A 
HETATM    4  C   UNK N   1      28.986  25.645  -3.751  0.00  0.00     0.043 A 
HETATM    5  C   UNK N   1      30.371  25.830  -3.731  0.00  0.00    -0.058 A 
HETATM    6  C   UNK N   1      30.943  27.196  -3.865  0.00  0.00     0.048 C 
HETATM    7  C   UNK N   1      31.219  24.728  -3.592  0.00  0.00     0.024 A 
ENDROOT
BRANCH   3   8
HETATM    8  O   UNK N   1      27.127  24.161  -3.649  0.00  0.00    -0.349 OA
BRANCH   8   9
HETATM    9  C   UNK N   1      26.283  25.144  -4.108  0.00  0.00     0.200 C 
BRANCH   9  10
HETATM   10  C   UNK N   1      26.011  25.019  -5.604  0.00  0.00     0.102 C 
HETATM   11  C   UNK N   1      25.242  26.230  -6.113  0.00  0.00     0.034 C 
BRANCH  10  12
HETATM   12  N   UNK N   1      25.299  23.793  -5.912  0.00  0.00    -0.384 N 
HETATM   13  H   UNK N   1      24.392  23.669  -5.552  0.00  0.00     0.160 HD
BRANCH  12  14
HETATM   14  C   UNK N   1      25.866  22.764  -6.718  0.00  0.00     0.030 A 
HETATM   15  C   UNK N   1      27.252  22.698  -6.886  0.00  0.00     0.046 A 
HETATM   16  C   UNK N   1      27.800  21.706  -7.708  0.00  0.00     0.089 A 
HETATM   17  N   UNK N   1      26.988  20.818  -8.344  0.00  0.00    -0.375 N 
HETATM   18  C   UNK N   1      25.638  20.863  -8.199  0.00  0.00     0.089 A 
ATOM     19  HN  UNK N   1      27.403  20.102  -8.942  1.00  0.00     0.164 HD
HETATM   20  C   UNK N   1      25.054  21.836  -7.387  0.00  0.00     0.046 A 
ENDBRANCH  12  14
ENDBRANCH  10  12
ENDBRANCH   9  10
ENDBRANCH   8   9
ENDBRANCH   3   8
BRANCH   1  21
HETATM   21  C   UNK N   1      31.552  22.188  -3.343  0.00  0.00     0.254 C 
HETATM   22  O   UNK N   1      31.935  21.918  -2.212  0.00  0.00    -0.267 OA
HETATM   23  N   UNK N   1      31.943  21.359  -4.382  0.00  0.00    -0.344 N 
BRANCH  23  24
HETATM   24  C   UNK N   1      32.771  20.206  -4.033  0.00  0.00     0.122 C 
HETATM   25  C   UNK N   1      34.269  20.490  -3.980  0.00  0.00     0.026 C 
ENDBRANCH  23  24
BRANCH  23  26
HETATM   26  C   UNK N   1      31.636  21.583  -5.789  0.00  0.00     0.079 C 
HETATM   27  C   UNK N   1      32.626  22.491  -6.500  0.00  0.00     0.032 C 
HETATM   28  C   UNK N   1      31.289  20.308  -6.544  0.00  0.00     0.032 C 
ENDBRANCH  23  26
ENDBRANCH   1  21
TORSDOF 8
ENDMDL
MODEL 3
REMARK VINA RESULT:      -6.6      2.381      8.144
REMARK  8 active torsions:
REMARK  status: ('A' for Active; 'I' for Inactive)
REMARK       I    between atoms: C_2  and  N_3 
REMARK    1  A    between atoms: C_2  and  C_9 
REMARK    2  A    between atoms: N_3  and  C_4 
REMARK    3  A    between atoms: N_3  and  C_6 
REMARK    4  A    between atoms: C_11  and  O_16 
REMARK    5  A    between atoms: O_16  and  C_17 
REMARK    6  A    between atoms: C_17  and  C_18 
REMARK    7  A    between atoms: C_18  and  N_20 
REMARK    8  A    between atoms: N_20  and  C_21 
ROOT
HETATM    1  C   UNK N   1      35.799  15.313  10.582  0.00  0.00     0.035 A 
HETATM    2  C   UNK N   1      35.186  15.015  11.810  0.00  0.00     0.053 A 
HETATM    3  C   UNK N   1      35.622  13.950  12.596  0.00  0.00     0.070 A 
HETATM    4  C   UNK N   1      36.699  13.166  12.173  0.00  0.00     0.043 A 
HETATM    5  C   UNK N   1      37.331  13.454  10.960  0.00  0.00    -0.058 A 
HETATM    6  C   UNK N   1      38.489  12.637  10.510  0.00  0.00     0.048 C 
HETATM    7  C   UNK N   1      36.878  14.517  10.174  0.00  0.00     0.024 A 
ENDROOT
BRANCH   3   8
HETATM    8  O   UNK N   1      34.996  13.679  13.756  0.00  0.00    -0.349 OA
BRANCH   8   9
HETATM    9  C   UNK N   1      35.717  13.527  14.916  0.00  0.00     0.200 C 
BRANCH   9  10
HETATM   10  C   UNK N   1      34.992  12.654  15.936  0.00  0.00     0.102 C 
HETATM   11  C   UNK N   1      34.946  13.342  17.293  0.00  0.00     0.034 C 
BRANCH  10  12
HETATM   12  N   UNK N   1      35.605  11.345  16.045  0.00  0.00    -0.384 N 
HETATM   13  H   UNK N   1      35.742  10.958  16.940  0.00  0.00     0.160 HD
BRANCH  12  14
HETATM   14  C   UNK N   1      36.016  10.598  14.904  0.00  0.00     0.030 A 
HETATM   15  C   UNK N   1      37.378  10.434  14.635  0.00  0.00     0.046 A 
HETATM   16  C   UNK N   1      37.776   9.730  13.492  0.00  0.00     0.089 A 
HETATM   17  N   UNK N   1      36.842   9.213  12.647  0.00  0.00    -0.375 N 
HETATM   18  C   UNK N   1      35.512   9.360  12.885  0.00  0.00     0.089 A 
ATOM     19  HN  UNK N   1      37.148   8.704  11.817  1.00  0.00     0.164 HD
HETATM   20  C   UNK N   1      35.077  10.056  14.014  0.00  0.00     0.046 A 
ENDBRANCH  12  14
ENDBRANCH  10  12
ENDBRANCH   9  10
ENDBRANCH   8   9
ENDBRANCH   3   8
BRANCH   1  21
HETATM   21  C   UNK N   1      35.260  16.484   9.801  0.00  0.00     0.254 C 
HETATM   22  O   UNK N   1      35.478  17.593  10.272  0.00  0.00    -0.267 OA
HETATM   23  N   UNK N   1      34.531  16.403   8.626  0.00  0.00    -0.344 N 
BRANCH  23  24
HETATM   24  C   UNK N   1      34.096  17.664   8.028  0.00  0.00     0.122 C 
HETATM   25  C   UNK N   1      32.666  18.072   8.371  0.00  0.00     0.026 C 
ENDBRANCH  23  24
BRANCH  23  26
HETATM   26  C   UNK N   1      34.125  15.161   7.979  0.00  0.00     0.079 C 
HETATM   27  C   UNK N   1      32.883  14.529   8.584  0.00  0.00     0.032 C 
HETATM   28  C   UNK N   1      34.121  15.242   6.460  0.00  0.00     0.032 C 
ENDBRANCH  23  26
ENDBRANCH   1  21
TORSDOF 8
ENDMDL
MODEL 4
REMARK VINA RESULT:      -6.5      6.933      9.615
REMARK  8 active torsions:
REMARK  status: ('A' for Active; 'I' for Inactive)
REMARK       I    between atoms: C_2  and  N_3 
REMARK    1  A    between atoms: C_2  and  C_9 
REMARK    2  A    between atoms: N_3  and  C_4 
REMARK    3  A    between atoms: N_3  and  C_6 
REMARK    4  A    between atoms: C_11  and  O_16 
REMARK    5  A    between atoms: O_16  and  C_17 
REMARK    6  A    between atoms: C_17  and  C_18 
REMARK    7  A    between atoms: C_18  and  N_20 
REMARK    8  A    between atoms: N_20  and  C_21 
ROOT
HETATM    1  C   UNK N   1      29.519  16.802   5.824  0.00  0.00     0.035 A 
HETATM    2  C   UNK N   1      29.085  17.768   4.901  0.00  0.00     0.053 A 
HETATM    3  C   UNK N   1      28.349  18.880   5.309  0.00  0.00     0.070 A 
HETATM    4  C   UNK N   1      28.045  19.055   6.662  0.00  0.00     0.043 A 
HETATM    5  C   UNK N   1      28.478  18.113   7.598  0.00  0.00    -0.058 A 
HETATM    6  C   UNK N   1      28.174  18.300   9.042  0.00  0.00     0.048 C 
HETATM    7  C   UNK N   1      29.204  16.995   7.177  0.00  0.00     0.024 A 
ENDROOT
BRANCH   3   8
HETATM    8  O   UNK N   1      27.931  19.772   4.395  0.00  0.00    -0.349 OA
BRANCH   8   9
HETATM    9  C   UNK N   1      26.635  20.231   4.413  0.00  0.00     0.200 C 
BRANCH   9  10
HETATM   10  C   UNK N   1      25.761  19.532   3.376  0.00  0.00     0.102 C 
HETATM   11  C   UNK N   1      24.828  20.528   2.702  0.00  0.00     0.034 C 
BRANCH  10  12
HETATM   12  N   UNK N   1      25.008  18.442   3.965  0.00  0.00    -0.384 N 
HETATM   13  H   UNK N   1      24.084  18.610   4.262  0.00  0.00     0.160 HD
BRANCH  12  14
HETATM   14  C   UNK N   1      25.556  17.137   4.128  0.00  0.00     0.030 A 
HETATM   15  C   UNK N   1      25.542  16.531   5.388  0.00  0.00     0.046 A 
HETATM   16  C   UNK N   1      26.114  15.264   5.549  0.00  0.00     0.089 A 
HETATM   17  N   UNK N   1      26.685  14.630   4.489  0.00  0.00    -0.375 N 
HETATM   18  C   UNK N   1      26.713  15.199   3.254  0.00  0.00     0.089 A 
ATOM     19  HN  UNK N   1      27.100  13.707   4.623  1.00  0.00     0.164 HD
HETATM   20  C   UNK N   1      26.152  16.461   3.054  0.00  0.00     0.046 A 
ENDBRANCH  12  14
ENDBRANCH  10  12
ENDBRANCH   9  10
ENDBRANCH   8   9
ENDBRANCH   3   8
BRANCH   1  21
HETATM   21  C   UNK N   1      30.309  15.636   5.291  0.00  0.00     0.254 C 
HETATM   22  O   UNK N   1      29.684  14.599   5.107  0.00  0.00    -0.267 OA
HETATM   23  N   UNK N   1      31.668  15.637   5.021  0.00  0.00    -0.344 N 
BRANCH  23  24
HETATM   24  C   UNK N   1      32.244  14.394   4.513  0.00  0.00     0.122 C 
HETATM   25  C   UNK N   1      32.369  14.325   2.993  0.00  0.00     0.026 C 
ENDBRANCH  23  24
BRANCH  23  26
HETATM   26  C   UNK N   1      32.564  16.763   5.256  0.00  0.00     0.079 C 
HETATM   27  C   UNK N   1      33.891  16.373   5.885  0.00  0.00     0.032 C 
HETATM   28  C   UNK N   1      32.676  17.707   4.068  0.00  0.00     0.032 C 
ENDBRANCH  23  26
ENDBRANCH   1  21
TORSDOF 8
ENDMDL
MODEL 5
REMARK VINA RESULT:      -6.5      6.747     12.872
REMARK  8 active torsions:
REMARK  status: ('A' for Active; 'I' for Inactive)
REMARK       I    between atoms: C_2  and  N_3 
REMARK    1  A    between atoms: C_2  and  C_9 
REMARK    2  A    between atoms: N_3  and  C_4 
REMARK    3  A    between atoms: N_3  and  C_6 
REMARK    4  A    between atoms: C_11  and  O_16 
REMARK    5  A    between atoms: O_16  and  C_17 
REMARK    6  A    between atoms: C_17  and  C_18 
REMARK    7  A    between atoms: C_18  and  N_20 
REMARK    8  A    between atoms: N_20  and  C_21 
ROOT
HETATM    1  C   UNK N   1      25.156  19.791   3.921  0.00  0.00     0.035 A 
HETATM    2  C   UNK N   1      25.902  18.647   3.593  0.00  0.00     0.053 A 
HETATM    3  C   UNK N   1      27.163  18.424   4.142  0.00  0.00     0.070 A 
HETATM    4  C   UNK N   1      27.700  19.340   5.051  0.00  0.00     0.043 A 
HETATM    5  C   UNK N   1      26.968  20.478   5.401  0.00  0.00    -0.058 A 
HETATM    6  C   UNK N   1      27.523  21.449   6.382  0.00  0.00     0.048 C 
HETATM    7  C   UNK N   1      25.710  20.699   4.835  0.00  0.00     0.024 A 
ENDROOT
BRANCH   3   8
HETATM    8  O   UNK N   1      27.859  17.329   3.787  0.00  0.00    -0.349 OA
BRANCH   8   9
HETATM    9  C   UNK N   1      28.040  16.300   4.680  0.00  0.00     0.200 C 
BRANCH   9  10
HETATM   10  C   UNK N   1      29.512  16.075   5.010  0.00  0.00     0.102 C 
HETATM   11  C   UNK N   1      29.819  14.586   5.101  0.00  0.00     0.034 C 
BRANCH  10  12
HETATM   12  N   UNK N   1      29.891  16.752   6.235  0.00  0.00    -0.384 N 
HETATM   13  H   UNK N   1      29.188  16.989   6.882  0.00  0.00     0.160 HD
BRANCH  12  14
HETATM   14  C   UNK N   1      31.243  17.085   6.535  0.00  0.00     0.030 A 
HETATM   15  C   UNK N   1      31.604  17.405   7.847  0.00  0.00     0.046 A 
HETATM   16  C   UNK N   1      32.927  17.767   8.130  0.00  0.00     0.089 A 
HETATM   17  N   UNK N   1      33.852  17.812   7.132  0.00  0.00    -0.375 N 
HETATM   18  C   UNK N   1      33.526  17.508   5.849  0.00  0.00     0.089 A 
ATOM     19  HN  UNK N   1      34.812  18.080   7.354  1.00  0.00     0.164 HD
HETATM   20  C   UNK N   1      32.218  17.142   5.528  0.00  0.00     0.046 A 
ENDBRANCH  12  14
ENDBRANCH  10  12
ENDBRANCH   9  10
ENDBRANCH   8   9
ENDBRANCH   3   8
BRANCH   1  21
HETATM   21  C   UNK N   1      23.803  19.948   3.279  0.00  0.00     0.254 C 
HETATM   22  O   UNK N   1      23.648  20.940   2.579  0.00  0.00    -0.267 OA
HETATM   23  N   UNK N   1      22.730  19.084   3.434  0.00  0.00    -0.344 N 
BRANCH  23  24
HETATM   24  C   UNK N   1      21.498  19.424   2.724  0.00  0.00     0.122 C 
HETATM   25  C   UNK N   1      20.510  20.263   3.529  0.00  0.00     0.026 C 
ENDBRANCH  23  24
BRANCH  23  26
HETATM   26  C   UNK N   1      22.727  17.903   4.289  0.00  0.00     0.079 C 
HETATM   27  C   UNK N   1      22.224  18.164   5.699  0.00  0.00     0.032 C 
HETATM   28  C   UNK N   1      22.133  16.673   3.620  0.00  0.00     0.032 C 
ENDBRANCH  23  26
ENDBRANCH   1  21
TORSDOF 8
ENDMDL
MODEL 6
REMARK VINA RESULT:      -6.5      5.182     10.831
REMARK  8 active torsions:
REMARK  status: ('A' for Active; 'I' for Inactive)
REMARK       I    between atoms: C_2  and  N_3 
REMARK    1  A    between atoms: C_2  and  C_9 
REMARK    2  A    between atoms: N_3  and  C_4 
REMARK    3  A    between atoms: N_3  and  C_6 
REMARK    4  A    between atoms: C_11  and  O_16 
REMARK    5  A    between atoms: O_16  and  C_17 
REMARK    6  A    between atoms: C_17  and  C_18 
REMARK    7  A    between atoms: C_18  and  N_20 
REMARK    8  A    between atoms: N_20  and  C_21 
ROOT
HETATM    1  C   UNK N   1      27.964  18.899   5.820  0.00  0.00     0.035 A 
HETATM    2  C   UNK N   1      28.942  18.287   5.017  0.00  0.00     0.053 A 
HETATM    3  C   UNK N   1      29.935  17.483   5.574  0.00  0.00     0.070 A 
HETATM    4  C   UNK N   1      29.959  17.259   6.954  0.00  0.00     0.043 A 
HETATM    5  C   UNK N   1      28.988  17.847   7.768  0.00  0.00    -0.058 A 
HETATM    6  C   UNK N   1      28.995  17.600   9.234  0.00  0.00     0.048 C 
HETATM    7  C   UNK N   1      28.004  18.662   7.201  0.00  0.00     0.024 A 
ENDROOT
BRANCH   3   8
HETATM    8  O   UNK N   1      30.869  16.933   4.777  0.00  0.00    -0.349 OA
BRANCH   8   9
HETATM    9  C   UNK N   1      32.022  17.620   4.481  0.00  0.00     0.200 C 
BRANCH   9  10
HETATM   10  C   UNK N   1      33.236  16.700   4.399  0.00  0.00     0.102 C 
HETATM   11  C   UNK N   1      33.212  15.895   3.107  0.00  0.00     0.034 C 
BRANCH  10  12
HETATM   12  N   UNK N   1      33.314  15.820   5.549  0.00  0.00    -0.384 N 
HETATM   13  H   UNK N   1      33.205  14.851   5.413  0.00  0.00     0.160 HD
BRANCH  12  14
HETATM   14  C   UNK N   1      33.544  16.308   6.867  0.00  0.00     0.030 A 
HETATM   15  C   UNK N   1      34.189  17.534   7.052  0.00  0.00     0.046 A 
HETATM   16  C   UNK N   1      34.444  17.991   8.350  0.00  0.00     0.089 A 
HETATM   17  N   UNK N   1      34.071  17.243   9.425  0.00  0.00    -0.375 N 
HETATM   18  C   UNK N   1      33.444  16.046   9.272  0.00  0.00     0.089 A 
ATOM     19  HN  UNK N   1      34.266  17.588  10.365  1.00  0.00     0.164 HD
HETATM   20  C   UNK N   1      33.172  15.558   7.993  0.00  0.00     0.046 A 
ENDBRANCH  12  14
ENDBRANCH  10  12
ENDBRANCH   9  10
ENDBRANCH   8   9
ENDBRANCH   3   8
BRANCH   1  21
HETATM   21  C   UNK N   1      26.930  19.750   5.130  0.00  0.00     0.254 C 
HETATM   22  O   UNK N   1      27.157  20.952   5.094  0.00  0.00    -0.267 OA
HETATM   23  N   UNK N   1      25.752  19.289   4.565  0.00  0.00    -0.344 N 
BRANCH  23  24
HETATM   24  C   UNK N   1      24.880  20.287   3.947  0.00  0.00     0.122 C 
HETATM   25  C   UNK N   1      25.149  20.538   2.466  0.00  0.00     0.026 C 
ENDBRANCH  23  24
BRANCH  23  26
HETATM   26  C   UNK N   1      25.301  17.903   4.589  0.00  0.00     0.079 C 
HETATM   27  C   UNK N   1      23.844  17.736   4.987  0.00  0.00     0.032 C 
HETATM   28  C   UNK N   1      25.719  17.108   3.361  0.00  0.00     0.032 C 
ENDBRANCH  23  26
ENDBRANCH   1  21
TORSDOF 8
ENDMDL
MODEL 7
REMARK VINA RESULT:      -6.5     16.615     20.668
REMARK  8 active torsions:
REMARK  status: ('A' for Active; 'I' for Inactive)
REMARK       I    between atoms: C_2  and  N_3 
REMARK    1  A    between atoms: C_2  and  C_9 
REMARK    2  A    between atoms: N_3  and  C_4 
REMARK    3  A    between atoms: N_3  and  C_6 
REMARK    4  A    between atoms: C_11  and  O_16 
REMARK    5  A    between atoms: O_16  and  C_17 
REMARK    6  A    between atoms: C_17  and  C_18 
REMARK    7  A    between atoms: C_18  and  N_20 
REMARK    8  A    between atoms: N_20  and  C_21 
ROOT
HETATM    1  C   UNK N   1      27.123  24.667  -3.852  0.00  0.00     0.035 A 
HETATM    2  C   UNK N   1      26.581  24.010  -4.969  0.00  0.00     0.053 A 
HETATM    3  C   UNK N   1      25.699  24.657  -5.833  0.00  0.00     0.070 A 
HETATM    4  C   UNK N   1      25.353  25.992  -5.603  0.00  0.00     0.043 A 
HETATM    5  C   UNK N   1      25.890  26.668  -4.505  0.00  0.00    -0.058 A 
HETATM    6  C   UNK N   1      25.541  28.093  -4.263  0.00  0.00     0.048 C 
HETATM    7  C   UNK N   1      26.764  26.006  -3.638  0.00  0.00     0.024 A 
ENDROOT
BRANCH   3   8
HETATM    8  O   UNK N   1      25.183  23.989  -6.879  0.00  0.00    -0.349 OA
BRANCH   8   9
HETATM    9  C   UNK N   1      25.950  23.739  -7.992  0.00  0.00     0.200 C 
BRANCH   9  10
HETATM   10  C   UNK N   1      26.176  22.247  -8.214  0.00  0.00     0.102 C 
HETATM   11  C   UNK N   1      25.043  21.436  -7.600  0.00  0.00     0.034 C 
BRANCH  10  12
HETATM   12  N   UNK N   1      27.457  21.820  -7.684  0.00  0.00    -0.384 N 
HETATM   13  H   UNK N   1      27.753  22.176  -6.815  0.00  0.00     0.160 HD
BRANCH  12  14
HETATM   14  C   UNK N   1      28.301  20.904  -8.375  0.00  0.00     0.030 A 
HETATM   15  C   UNK N   1      28.526  21.065  -9.746  0.00  0.00     0.046 A 
HETATM   16  C   UNK N   1      29.327  20.141 -10.426  0.00  0.00     0.089 A 
HETATM   17  N   UNK N   1      29.878  19.090  -9.760  0.00  0.00    -0.375 N 
HETATM   18  C   UNK N   1      29.673  18.910  -8.428  0.00  0.00     0.089 A 
ATOM     19  HN  UNK N   1      30.458  18.423 -10.270  1.00  0.00     0.164 HD
HETATM   20  C   UNK N   1      28.881  19.811  -7.715  0.00  0.00     0.046 A 
ENDBRANCH  12  14
ENDBRANCH  10  12
ENDBRANCH   9  10
ENDBRANCH   8   9
ENDBRANCH   3   8
BRANCH   1  21
HETATM   21  C   UNK N   1      28.067  23.888  -2.976  0.00  0.00     0.254 C 
HETATM   22  O   UNK N   1      27.561  23.285  -2.038  0.00  0.00    -0.267 OA
HETATM   23  N   UNK N   1      29.442  23.821  -3.131  0.00  0.00    -0.344 N 
BRANCH  23  24
HETATM   24  C   UNK N   1      30.179  23.009  -2.163  0.00  0.00     0.122 C 
HETATM   25  C   UNK N   1      31.226  22.083  -2.776  0.00  0.00     0.026 C 
ENDBRANCH  23  24
BRANCH  23  26
HETATM   26  C   UNK N   1      30.204  24.537  -4.147  0.00  0.00     0.079 C 
HETATM   27  C   UNK N   1      29.856  24.139  -5.572  0.00  0.00     0.032 C 
HETATM   28  C   UNK N   1      30.274  26.038  -3.906  0.00  0.00     0.032 C 
ENDBRANCH  23  26
ENDBRANCH   1  21
TORSDOF 8
ENDMDL
MODEL 8
REMARK VINA RESULT:      -6.5     17.625     21.401
REMARK  8 active torsions:
REMARK  status: ('A' for Active; 'I' for Inactive)
REMARK       I    between atoms: C_2  and  N_3 
REMARK    1  A    between atoms: C_2  and  C_9 
REMARK    2  A    between atoms: N_3  and  C_4 
REMARK    3  A    between atoms: N_3  and  C_6 
REMARK    4  A    between atoms: C_11  and  O_16 
REMARK    5  A    between atoms: O_16  and  C_17 
REMARK    6  A    between atoms: C_17  and  C_18 
REMARK    7  A    between atoms: C_18  and  N_20 
REMARK    8  A    between atoms: N_20  and  C_21 
ROOT
HETATM    1  C   UNK N   1      27.841  23.756  -5.192  0.00  0.00     0.035 A 
HETATM    2  C   UNK N   1      28.286  22.827  -6.147  0.00  0.00     0.053 A 
HETATM    3  C   UNK N   1      29.376  21.995  -5.894  0.00  0.00     0.070 A 
HETATM    4  C   UNK N   1      30.036  22.066  -4.664  0.00  0.00     0.043 A 
HETATM    5  C   UNK N   1      29.601  22.974  -3.695  0.00  0.00    -0.058 A 
HETATM    6  C   UNK N   1      30.286  23.043  -2.377  0.00  0.00     0.048 C 
HETATM    7  C   UNK N   1      28.515  23.812  -3.963  0.00  0.00     0.024 A 
ENDROOT
BRANCH   3   8
HETATM    8  O   UNK N   1      29.788  21.134  -6.841  0.00  0.00    -0.349 OA
BRANCH   8   9
HETATM    9  C   UNK N   1      29.697  21.469  -8.171  0.00  0.00     0.200 C 
BRANCH   9  10
HETATM   10  C   UNK N   1      28.972  20.402  -8.986  0.00  0.00     0.102 C 
HETATM   11  C   UNK N   1      29.948  19.661  -9.889  0.00  0.00     0.034 C 
BRANCH  10  12
HETATM   12  N   UNK N   1      27.889  20.974  -9.763  0.00  0.00    -0.384 N 
HETATM   13  H   UNK N   1      27.914  20.892 -10.744  0.00  0.00     0.160 HD
BRANCH  12  14
HETATM   14  C   UNK N   1      26.791  21.650  -9.158  0.00  0.00     0.030 A 
HETATM   15  C   UNK N   1      25.927  20.950  -8.311  0.00  0.00     0.046 A 
HETATM   16  C   UNK N   1      24.829  21.610  -7.748  0.00  0.00     0.089 A 
HETATM   17  N   UNK N   1      24.600  22.922  -8.029  0.00  0.00    -0.375 N 
HETATM   18  C   UNK N   1      25.424  23.624  -8.851  0.00  0.00     0.089 A 
ATOM     19  HN  UNK N   1      23.794  23.389  -7.612  1.00  0.00     0.164 HD
HETATM   20  C   UNK N   1      26.530  23.001  -9.431  0.00  0.00     0.046 A 
ENDBRANCH  12  14
ENDBRANCH  10  12
ENDBRANCH   9  10
ENDBRANCH   8   9
ENDBRANCH   3   8
BRANCH   1  21
HETATM   21  C   UNK N   1      26.656  24.612  -5.553  0.00  0.00     0.254 C 
HETATM   22  O   UNK N   1      25.553  24.117  -5.361  0.00  0.00    -0.267 OA
HETATM   23  N   UNK N   1      26.715  25.885  -6.097  0.00  0.00    -0.344 N 
BRANCH  23  24
HETATM   24  C   UNK N   1      25.442  26.545  -6.380  0.00  0.00     0.122 C 
HETATM   25  C   UNK N   1      24.947  27.474  -5.276  0.00  0.00     0.026 C 
ENDBRANCH  23  24
BRANCH  23  26
HETATM   26  C   UNK N   1      27.944  26.583  -6.454  0.00  0.00     0.079 C 
HETATM   27  C   UNK N   1      27.840  27.403  -7.730  0.00  0.00     0.032 C 
HETATM   28  C   UNK N   1      28.590  27.310  -5.284  0.00  0.00     0.032 C 
ENDBRANCH  23  26
ENDBRANCH   1  21
TORSDOF 8
ENDMDL
MODEL 9
REMARK VINA RESULT:      -6.4      1.619      2.231
REMARK  8 active torsions:
REMARK  status: ('A' for Active; 'I' for Inactive)
REMARK       I    between atoms: C_2  and  N_3 
REMARK    1  A    between atoms: C_2  and  C_9 
REMARK    2  A    between atoms: N_3  and  C_4 
REMARK    3  A    between atoms: N_3  and  C_6 
REMARK    4  A    between atoms: C_11  and  O_16 
REMARK    5  A    between atoms: O_16  and  C_17 
REMARK    6  A    between atoms: C_17  and  C_18 
REMARK    7  A    between atoms: C_18  and  N_20 
REMARK    8  A    between atoms: N_20  and  C_21 
ROOT
HETATM    1  C   UNK N   1      35.502  12.640  12.094  0.00  0.00     0.035 A 
HETATM    2  C   UNK N   1      34.734  13.743  11.684  0.00  0.00     0.053 A 
HETATM    3  C   UNK N   1      35.256  14.709  10.826  0.00  0.00     0.070 A 
HETATM    4  C   UNK N   1      36.562  14.580  10.343  0.00  0.00     0.043 A 
HETATM    5  C   UNK N   1      37.337  13.484  10.727  0.00  0.00    -0.058 A 
HETATM    6  C   UNK N   1      38.721  13.329  10.204  0.00  0.00     0.048 C 
HETATM    7  C   UNK N   1      36.809  12.527  11.598  0.00  0.00     0.024 A 
ENDROOT
BRANCH   3   8
HETATM    8  O   UNK N   1      34.499  15.764  10.474  0.00  0.00    -0.349 OA
BRANCH   8   9
HETATM    9  C   UNK N   1      35.042  16.796   9.746  0.00  0.00     0.200 C 
BRANCH   9  10
HETATM   10  C   UNK N   1      34.109  17.271   8.635  0.00  0.00     0.102 C 
HETATM   11  C   UNK N   1      34.563  18.619   8.094  0.00  0.00     0.034 C 
BRANCH  10  12
HETATM   12  N   UNK N   1      32.734  17.338   9.091  0.00  0.00    -0.384 N 
HETATM   13  H   UNK N   1      32.557  17.407  10.057  0.00  0.00     0.160 HD
BRANCH  12  14
HETATM   14  C   UNK N   1      31.631  17.308   8.190  0.00  0.00     0.030 A 
HETATM   15  C   UNK N   1      30.404  17.854   8.578  0.00  0.00     0.046 A 
HETATM   16  C   UNK N   1      29.313  17.790   7.702  0.00  0.00     0.089 A 
HETATM   17  N   UNK N   1      29.446  17.194   6.485  0.00  0.00    -0.375 N 
HETATM   18  C   UNK N   1      30.627  16.654   6.086  0.00  0.00     0.089 A 
ATOM     19  HN  UNK N   1      28.641  17.153   5.859  1.00  0.00     0.164 HD
HETATM   20  C   UNK N   1      31.737  16.699   6.931  0.00  0.00     0.046 A 
ENDBRANCH  12  14
ENDBRANCH  10  12
ENDBRANCH   9  10
ENDBRANCH   8   9
ENDBRANCH   3   8
BRANCH   1  21
HETATM   21  C   UNK N   1      34.854  11.646  13.022  0.00  0.00     0.254 C 
HETATM   22  O   UNK N   1      34.344  10.666  12.494  0.00  0.00    -0.267 OA
HETATM   23  N   UNK N   1      34.770  11.765  14.400  0.00  0.00    -0.344 N 
BRANCH  23  24
HETATM   24  C   UNK N   1      34.092  10.687  15.118  0.00  0.00     0.122 C 
HETATM   25  C   UNK N   1      35.022   9.627  15.702  0.00  0.00     0.026 C 
ENDBRANCH  23  24
BRANCH  23  26
HETATM   26  C   UNK N   1      35.259  12.902  15.171  0.00  0.00     0.079 C 
HETATM   27  C   UNK N   1      34.487  13.153  16.455  0.00  0.00     0.032 C 
HETATM   28  C   UNK N   1      36.772  12.925  15.325  0.00  0.00     0.032 C 
ENDBRANCH  23  26
ENDBRANCH   1  21
TORSDOF 8
ENDMDL
