MODEL 1
REMARK VINA RESULT:      -7.0      0.000      0.000
REMARK  7 active torsions:
REMARK  status: ('A' for Active; 'I' for Inactive)
REMARK    1  A    between atoms: C_4  and  C_28 
REMARK    2  A    between atoms: C_5  and  C_9 
REMARK    3  A    between atoms: C_6  and  N_33 
REMARK    4  A    between atoms: C_12  and  N_30 
REMARK    5  A    between atoms: C_18  and  N_27 
REMARK    6  A    between atoms: C_21  and  C_29 
REMARK    7  A    between atoms: C_28  and  C_29 
ROOT
HETATM    1  C   UNK N   1      20.794  20.610   1.509  0.00  0.00     0.183 A 
HETATM    2  N   UNK N   1      22.001  20.552   2.083  0.00  0.00    -0.345 N 
ATOM      3  HN  UNK N   1      22.729  21.211   1.807  1.00  0.00     0.167 HD
HETATM    4  C   UNK N   1      22.252  19.632   3.017  0.00  0.00     0.090 A 
HETATM    5  C   UNK N   1      21.307  18.632   3.351  0.00  0.00     0.052 A 
HETATM    6  C   UNK N   1      20.063  18.729   2.743  0.00  0.00     0.113 A 
HETATM    7  N   UNK N   1      19.833  19.726   1.862  0.00  0.00    -0.338 N 
ATOM      8  HN  UNK N   1      18.905  19.816   1.449  1.00  0.00     0.168 HD
ENDROOT
BRANCH   4   9
HETATM    9  C   UNK N   1      23.487  19.695   3.573  0.00  0.00    -0.125 C 
BRANCH   9  10
HETATM   10  C   UNK N   1      24.522  19.707   4.071  0.00  0.00     0.101 C 
BRANCH  10  11
HETATM   11  C   UNK N   1      25.491  19.146   4.763  0.00  0.00     0.057 C 
HETATM   12  C   UNK N   1      26.232  20.155   5.312  0.00  0.00     0.067 C 
HETATM   13  N   UNK N   1      27.560  20.066   5.280  0.00  0.00    -0.378 N 
HETATM   14  C   UNK N   1      28.156  18.922   4.855  0.00  0.00     0.202 C 
ATOM     15  HN  UNK N   1      28.132  20.858   5.577  1.00  0.00     0.161 HD
HETATM   16  C   UNK N   1      27.464  18.036   4.053  0.00  0.00     0.016 C 
HETATM   17  C   UNK N   1      26.113  18.131   4.057  0.00  0.00    -0.016 C 
BRANCH  14  18
HETATM   18  N   UNK N   1      28.824  18.258   5.865  0.00  0.00    -0.385 N 
HETATM   19  C   UNK N   1      28.181  18.286   7.160  0.00  0.00     0.145 C 
HETATM   20  C   UNK N   1      29.282  18.248   8.148  0.00  0.00     0.187 C 
HETATM   21  O   UNK N   1      29.958  17.032   7.952  0.00  0.00    -0.388 OA
HETATM   22  C   UNK N   1      30.658  17.095   6.725  0.00  0.00     0.187 C 
HETATM   23  C   UNK N   1      29.675  17.132   5.584  0.00  0.00     0.145 C 
ENDBRANCH  14  18
ENDBRANCH  10  11
ENDBRANCH   9  10
ENDBRANCH   4   9
BRANCH   5  24
HETATM   24  C   UNK N   1      21.666  17.418   4.085  0.00  0.00    -0.019 A 
HETATM   25  C   UNK N   1      21.547  17.589   5.436  0.00  0.00     0.014 A 
HETATM   26  C   UNK N   1      22.240  16.850   6.315  0.00  0.00     0.030 A 
HETATM   27  C   UNK N   1      23.099  15.875   5.870  0.00  0.00     0.029 A 
HETATM   28  C   UNK N   1      23.292  15.678   4.491  0.00  0.00     0.030 A 
HETATM   29  C   UNK N   1      22.584  16.469   3.596  0.00  0.00     0.014 A 
BRANCH  27  30
HETATM   30  N   UNK N   1      23.423  14.868   6.786  0.00  0.00    -0.390 N 
HETATM   31  C   UNK N   1      22.373  13.936   7.137  0.00  0.00     0.149 C 
HETATM   32  C   UNK N   1      24.767  14.376   6.817  0.00  0.00     0.149 C 
ENDBRANCH  27  30
ENDBRANCH   5  24
BRANCH   6  33
HETATM   33  N   UNK N   1      19.065  17.755   2.934  0.00  0.00    -0.385 N 
HETATM   34  H   UNK N   1      18.138  17.939   2.661  0.00  0.00     0.157 HD
HETATM   35  H   UNK N   1      19.295  16.888   3.342  0.00  0.00     0.157 HD
ENDBRANCH   6  33
TORSDOF 7
ENDMDL
MODEL 2
REMARK VINA RESULT:      -7.0      6.037      9.829
REMARK  7 active torsions:
REMARK  status: ('A' for Active; 'I' for Inactive)
REMARK    1  A    between atoms: C_4  and  C_28 
REMARK    2  A    between atoms: C_5  and  C_9 
REMARK    3  A    between atoms: C_6  and  N_33 
REMARK    4  A    between atoms: C_12  and  N_30 
REMARK    5  A    between atoms: C_18  and  N_27 
REMARK    6  A    between atoms: C_21  and  C_29 
REMARK    7  A    between atoms: C_28  and  C_29 
ROOT
HETATM    1  C   UNK N   1      28.352  18.690   8.534  0.00  0.00     0.183 A 
HETATM    2  N   UNK N   1      29.638  18.432   8.793  0.00  0.00    -0.345 N 
ATOM      3  HN  UNK N   1      30.084  18.837   9.616  1.00  0.00     0.167 HD
HETATM    4  C   UNK N   1      30.339  17.643   7.975  0.00  0.00     0.090 A 
HETATM    5  C   UNK N   1      29.790  17.149   6.767  0.00  0.00     0.052 A 
HETATM    6  C   UNK N   1      28.451  17.429   6.535  0.00  0.00     0.113 A 
HETATM    7  N   UNK N   1      27.764  18.167   7.433  0.00  0.00    -0.338 N 
ATOM      8  HN  UNK N   1      26.771  18.336   7.277  1.00  0.00     0.168 HD
ENDROOT
BRANCH   4   9
HETATM    9  C   UNK N   1      31.616  17.401   8.359  0.00  0.00    -0.125 C 
BRANCH   9  10
HETATM   10  C   UNK N   1      32.704  17.166   8.642  0.00  0.00     0.101 C 
BRANCH  10  11
HETATM   11  C   UNK N   1      33.669  16.340   8.990  0.00  0.00     0.057 C 
HETATM   12  C   UNK N   1      33.092  15.321   9.696  0.00  0.00     0.067 C 
HETATM   13  N   UNK N   1      33.689  14.892  10.807  0.00  0.00    -0.378 N 
HETATM   14  C   UNK N   1      34.923  15.353  11.137  0.00  0.00     0.202 C 
ATOM     15  HN  UNK N   1      33.219  14.216  11.410  1.00  0.00     0.161 HD
HETATM   16  C   UNK N   1      35.380  16.549  10.620  0.00  0.00     0.016 C 
HETATM   17  C   UNK N   1      34.765  17.009   9.504  0.00  0.00    -0.016 C 
BRANCH  14  18
HETATM   18  N   UNK N   1      35.897  14.377  11.061  0.00  0.00    -0.385 N 
HETATM   19  C   UNK N   1      35.605  13.149  11.767  0.00  0.00     0.145 C 
HETATM   20  C   UNK N   1      36.917  12.622  12.204  0.00  0.00     0.187 C 
HETATM   21  O   UNK N   1      37.656  12.363  11.036  0.00  0.00    -0.388 OA
HETATM   22  C   UNK N   1      38.010  13.596  10.441  0.00  0.00     0.187 C 
HETATM   23  C   UNK N   1      36.772  14.280   9.922  0.00  0.00     0.145 C 
ENDBRANCH  14  18
ENDBRANCH  10  11
ENDBRANCH   9  10
ENDBRANCH   4   9
BRANCH   5  24
HETATM   24  C   UNK N   1      30.615  16.597   5.691  0.00  0.00    -0.019 A 
HETATM   25  C   UNK N   1      30.901  15.276   5.898  0.00  0.00     0.014 A 
HETATM   26  C   UNK N   1      31.979  14.684   5.364  0.00  0.00     0.030 A 
HETATM   27  C   UNK N   1      32.838  15.404   4.570  0.00  0.00     0.029 A 
HETATM   28  C   UNK N   1      32.618  16.776   4.351  0.00  0.00     0.030 A 
HETATM   29  C   UNK N   1      31.510  17.376   4.933  0.00  0.00     0.014 A 
BRANCH  27  30
HETATM   30  N   UNK N   1      33.644  14.663   3.698  0.00  0.00    -0.390 N 
HETATM   31  C   UNK N   1      34.853  14.089   4.249  0.00  0.00     0.149 C 
HETATM   32  C   UNK N   1      33.020  13.956   2.621  0.00  0.00     0.149 C 
ENDBRANCH  27  30
ENDBRANCH   5  24
BRANCH   6  33
HETATM   33  N   UNK N   1      27.812  17.059   5.337  0.00  0.00    -0.385 N 
HETATM   34  H   UNK N   1      28.295  16.524   4.666  0.00  0.00     0.157 HD
HETATM   35  H   UNK N   1      26.882  17.334   5.169  0.00  0.00     0.157 HD
ENDBRANCH   6  33
TORSDOF 7
ENDMDL
MODEL 3
REMARK VINA RESULT:      -6.8      4.340      5.908
REMARK  7 active torsions:
REMARK  status: ('A' for Active; 'I' for Inactive)
REMARK    1  A    between atoms: C_4  and  C_28 
REMARK    2  A    between atoms: C_5  and  C_9 
REMARK    3  A    between atoms: C_6  and  N_33 
REMARK    4  A    between atoms: C_12  and  N_30 
REMARK    5  A    between atoms: C_18  and  N_27 
REMARK    6  A    between atoms: C_21  and  C_29 
REMARK    7  A    between atoms: C_28  and  C_29 
ROOT
HETATM    1  C   UNK N   1      20.920  19.757   2.257  0.00  0.00     0.183 A 
HETATM    2  N   UNK N   1      21.444  19.178   3.343  0.00  0.00    -0.345 N 
ATOM      3  HN  UNK N   1      22.018  19.725   3.985  1.00  0.00     0.167 HD
HETATM    4  C   UNK N   1      21.214  17.887   3.588  0.00  0.00     0.090 A 
HETATM    5  C   UNK N   1      20.515  17.068   2.669  0.00  0.00     0.052 A 
HETATM    6  C   UNK N   1      19.978  17.703   1.558  0.00  0.00     0.113 A 
HETATM    7  N   UNK N   1      20.173  19.029   1.395  0.00  0.00    -0.338 N 
ATOM      8  HN  UNK N   1      19.743  19.498   0.598  1.00  0.00     0.168 HD
ENDROOT
BRANCH   4   9
HETATM    9  C   UNK N   1      21.744  17.414   4.742  0.00  0.00    -0.125 C 
BRANCH   9  10
HETATM   10  C   UNK N   1      22.233  16.996   5.694  0.00  0.00     0.101 C 
BRANCH  10  11
HETATM   11  C   UNK N   1      22.242  16.222   6.759  0.00  0.00     0.057 C 
HETATM   12  C   UNK N   1      23.098  15.188   6.501  0.00  0.00     0.067 C 
HETATM   13  N   UNK N   1      22.734  13.954   6.843  0.00  0.00    -0.378 N 
HETATM   14  C   UNK N   1      21.608  13.755   7.575  0.00  0.00     0.202 C 
ATOM     15  HN  UNK N   1      23.302  13.156   6.555  1.00  0.00     0.161 HD
HETATM   16  C   UNK N   1      20.614  14.713   7.596  0.00  0.00     0.016 C 
HETATM   17  C   UNK N   1      20.965  15.968   7.227  0.00  0.00    -0.016 C 
BRANCH  14  18
HETATM   18  N   UNK N   1      21.873  13.288   8.848  0.00  0.00    -0.385 N 
HETATM   19  C   UNK N   1      23.273  13.172   9.190  0.00  0.00     0.145 C 
HETATM   20  C   UNK N   1      23.355  12.041  10.140  0.00  0.00     0.187 C 
HETATM   21  O   UNK N   1      22.594  12.403  11.265  0.00  0.00    -0.388 OA
HETATM   22  C   UNK N   1      21.226  12.396  10.908  0.00  0.00     0.187 C 
HETATM   23  C   UNK N   1      20.953  13.512   9.933  0.00  0.00     0.145 C 
ENDBRANCH  14  18
ENDBRANCH  10  11
ENDBRANCH   9  10
ENDBRANCH   4   9
BRANCH   5  24
HETATM   24  C   UNK N   1      20.555  15.605   2.722  0.00  0.00    -0.019 A 
HETATM   25  C   UNK N   1      19.607  15.103   3.570  0.00  0.00     0.014 A 
HETATM   26  C   UNK N   1      19.733  13.904   4.155  0.00  0.00     0.030 A 
HETATM   27  C   UNK N   1      20.838  13.127   3.906  0.00  0.00     0.029 A 
HETATM   28  C   UNK N   1      21.866  13.606   3.073  0.00  0.00     0.030 A 
HETATM   29  C   UNK N   1      21.728  14.861   2.495  0.00  0.00     0.014 A 
BRANCH  27  30
HETATM   30  N   UNK N   1      20.704  11.757   4.156  0.00  0.00    -0.390 N 
HETATM   31  C   UNK N   1      19.866  11.372   5.271  0.00  0.00     0.149 C 
HETATM   32  C   UNK N   1      20.776  10.849   3.051  0.00  0.00     0.149 C 
ENDBRANCH  27  30
ENDBRANCH   5  24
BRANCH   6  33
HETATM   33  N   UNK N   1      19.328  16.987   0.535  0.00  0.00    -0.385 N 
HETATM   34  H   UNK N   1      18.439  16.595   0.697  0.00  0.00     0.157 HD
HETATM   35  H   UNK N   1      19.761  16.877  -0.342  0.00  0.00     0.157 HD
ENDBRANCH   6  33
TORSDOF 7
ENDMDL
MODEL 4
REMARK VINA RESULT:      -6.8      3.784      8.267
REMARK  7 active torsions:
REMARK  status: ('A' for Active; 'I' for Inactive)
REMARK    1  A    between atoms: C_4  and  C_28 
REMARK    2  A    between atoms: C_5  and  C_9 
REMARK    3  A    between atoms: C_6  and  N_33 
REMARK    4  A    between atoms: C_12  and  N_30 
REMARK    5  A    between atoms: C_18  and  N_27 
REMARK    6  A    between atoms: C_21  and  C_29 
REMARK    7  A    between atoms: C_28  and  C_29 
ROOT
HETATM    1  C   UNK N   1      21.506  12.020  11.836  0.00  0.00     0.183 A 
HETATM    2  N   UNK N   1      21.037  12.512  10.684  0.00  0.00    -0.345 N 
ATOM      3  HN  UNK N   1      20.032  12.621  10.548  1.00  0.00     0.167 HD
HETATM    4  C   UNK N   1      21.883  12.861   9.713  0.00  0.00     0.090 A 
HETATM    5  C   UNK N   1      23.275  12.626   9.819  0.00  0.00     0.052 A 
HETATM    6  C   UNK N   1      23.727  12.123  11.031  0.00  0.00     0.113 A 
HETATM    7  N   UNK N   1      22.838  11.859  12.011  0.00  0.00    -0.338 N 
ATOM      8  HN  UNK N   1      23.180  11.527  12.913  1.00  0.00     0.168 HD
ENDROOT
BRANCH   4   9
HETATM    9  C   UNK N   1      21.308  13.400   8.611  0.00  0.00    -0.125 C 
BRANCH   9  10
HETATM   10  C   UNK N   1      20.822  13.902   7.699  0.00  0.00     0.101 C 
BRANCH  10  11
HETATM   11  C   UNK N   1      20.769  14.830   6.767  0.00  0.00     0.057 C 
HETATM   12  C   UNK N   1      21.012  14.216   5.570  0.00  0.00     0.067 C 
HETATM   13  N   UNK N   1      21.830  14.806   4.700  0.00  0.00    -0.378 N 
HETATM   14  C   UNK N   1      22.281  16.065   4.937  0.00  0.00     0.202 C 
ATOM     15  HN  UNK N   1      22.117  14.313   3.854  1.00  0.00     0.161 HD
HETATM   16  C   UNK N   1      22.287  16.571   6.222  0.00  0.00     0.016 C 
HETATM   17  C   UNK N   1      21.478  15.964   7.123  0.00  0.00    -0.016 C 
BRANCH  14  18
HETATM   18  N   UNK N   1      21.780  16.991   4.042  0.00  0.00    -0.385 N 
HETATM   19  C   UNK N   1      22.401  18.296   4.086  0.00  0.00     0.145 C 
HETATM   20  C   UNK N   1      21.338  19.252   3.702  0.00  0.00     0.187 C 
HETATM   21  O   UNK N   1      20.955  18.923   2.390  0.00  0.00    -0.388 OA
HETATM   22  C   UNK N   1      20.258  17.694   2.416  0.00  0.00     0.187 C 
HETATM   23  C   UNK N   1      21.206  16.583   2.787  0.00  0.00     0.145 C 
ENDBRANCH  14  18
ENDBRANCH  10  11
ENDBRANCH   9  10
ENDBRANCH   4   9
BRANCH   5  24
HETATM   24  C   UNK N   1      24.173  12.657   8.663  0.00  0.00    -0.019 A 
HETATM   25  C   UNK N   1      24.687  13.907   8.454  0.00  0.00     0.014 A 
HETATM   26  C   UNK N   1      25.119  14.311   7.251  0.00  0.00     0.030 A 
HETATM   27  C   UNK N   1      25.062  13.458   6.175  0.00  0.00     0.029 A 
HETATM   28  C   UNK N   1      24.508  12.173   6.320  0.00  0.00     0.030 A 
HETATM   29  C   UNK N   1      24.044  11.781   7.568  0.00  0.00     0.014 A 
BRANCH  27  30
HETATM   30  N   UNK N   1      25.917  13.750   5.106  0.00  0.00    -0.390 N 
HETATM   31  C   UNK N   1      25.299  14.013   3.824  0.00  0.00     0.149 C 
HETATM   32  C   UNK N   1      27.155  14.414   5.381  0.00  0.00     0.149 C 
ENDBRANCH  27  30
ENDBRANCH   5  24
BRANCH   6  33
HETATM   33  N   UNK N   1      25.077  11.777  11.233  0.00  0.00    -0.385 N 
HETATM   34  H   UNK N   1      25.308  11.015  11.813  0.00  0.00     0.157 HD
HETATM   35  H   UNK N   1      25.790  12.295  10.796  0.00  0.00     0.157 HD
ENDBRANCH   6  33
TORSDOF 7
ENDMDL
MODEL 5
REMARK VINA RESULT:      -6.7      5.743      9.671
REMARK  7 active torsions:
REMARK  status: ('A' for Active; 'I' for Inactive)
REMARK    1  A    between atoms: C_4  and  C_28 
REMARK    2  A    between atoms: C_5  and  C_9 
REMARK    3  A    between atoms: C_6  and  N_33 
REMARK    4  A    between atoms: C_12  and  N_30 
REMARK    5  A    between atoms: C_18  and  N_27 
REMARK    6  A    between atoms: C_21  and  C_29 
REMARK    7  A    between atoms: C_28  and  C_29 
ROOT
HETATM    1  C   UNK N   1      28.215  18.376   5.329  0.00  0.00     0.183 A 
HETATM    2  N   UNK N   1      29.024  18.152   6.370  0.00  0.00    -0.345 N 
ATOM      3  HN  UNK N   1      28.831  18.592   7.270  1.00  0.00     0.167 HD
HETATM    4  C   UNK N   1      30.085  17.354   6.232  0.00  0.00     0.090 A 
HETATM    5  C   UNK N   1      30.449  16.812   4.975  0.00  0.00     0.052 A 
HETATM    6  C   UNK N   1      29.582  17.057   3.921  0.00  0.00     0.113 A 
HETATM    7  N   UNK N   1      28.479  17.808   4.131  0.00  0.00    -0.338 N 
ATOM      8  HN  UNK N   1      27.826  17.951   3.361  1.00  0.00     0.168 HD
ENDROOT
BRANCH   4   9
HETATM    9  C   UNK N   1      30.807  17.150   7.360  0.00  0.00    -0.125 C 
BRANCH   9  10
HETATM   10  C   UNK N   1      31.426  17.029   8.321  0.00  0.00     0.101 C 
BRANCH  10  11
HETATM   11  C   UNK N   1      32.304  16.399   9.073  0.00  0.00     0.057 C 
HETATM   12  C   UNK N   1      33.506  17.026   8.902  0.00  0.00     0.067 C 
HETATM   13  N   UNK N   1      34.601  16.284   8.751  0.00  0.00    -0.378 N 
HETATM   14  C   UNK N   1      34.540  14.938   8.924  0.00  0.00     0.202 C 
ATOM     15  HN  UNK N   1      35.488  16.726   8.506  1.00  0.00     0.161 HD
HETATM   16  C   UNK N   1      33.333  14.277   8.811  0.00  0.00     0.016 C 
HETATM   17  C   UNK N   1      32.211  15.025   8.938  0.00  0.00    -0.016 C 
BRANCH  14  18
HETATM   18  N   UNK N   1      35.238  14.508  10.035  0.00  0.00    -0.385 N 
HETATM   19  C   UNK N   1      36.679  14.545   9.918  0.00  0.00     0.145 C 
HETATM   20  C   UNK N   1      37.172  13.434  10.761  0.00  0.00     0.187 C 
HETATM   21  O   UNK N   1      36.770  13.717  12.078  0.00  0.00    -0.388 OA
HETATM   22  C   UNK N   1      35.368  13.562  12.167  0.00  0.00     0.187 C 
HETATM   23  C   UNK N   1      34.688  14.637  11.359  0.00  0.00     0.145 C 
ENDBRANCH  14  18
ENDBRANCH  10  11
ENDBRANCH   9  10
ENDBRANCH   4   9
BRANCH   5  24
HETATM   24  C   UNK N   1      31.773  16.245   4.712  0.00  0.00    -0.019 A 
HETATM   25  C   UNK N   1      31.787  14.888   4.887  0.00  0.00     0.014 A 
HETATM   26  C   UNK N   1      32.909  14.216   5.178  0.00  0.00     0.030 A 
HETATM   27  C   UNK N   1      34.102  14.885   5.304  0.00  0.00     0.029 A 
HETATM   28  C   UNK N   1      34.145  16.285   5.174  0.00  0.00     0.030 A 
HETATM   29  C   UNK N   1      32.968  16.967   4.896  0.00  0.00     0.014 A 
BRANCH  27  30
HETATM   30  N   UNK N   1      35.263  14.119   5.148  0.00  0.00    -0.390 N 
HETATM   31  C   UNK N   1      36.451  14.581   5.833  0.00  0.00     0.149 C 
HETATM   32  C   UNK N   1      35.131  12.707   4.955  0.00  0.00     0.149 C 
ENDBRANCH  27  30
ENDBRANCH   5  24
BRANCH   6  33
HETATM   33  N   UNK N   1      29.872  16.637   2.608  0.00  0.00    -0.385 N 
HETATM   34  H   UNK N   1      30.616  16.014   2.444  0.00  0.00     0.157 HD
HETATM   35  H   UNK N   1      29.330  16.965   1.855  0.00  0.00     0.157 HD
ENDBRANCH   6  33
TORSDOF 7
ENDMDL
MODEL 6
REMARK VINA RESULT:      -6.5      5.810      9.021
REMARK  7 active torsions:
REMARK  status: ('A' for Active; 'I' for Inactive)
REMARK    1  A    between atoms: C_4  and  C_28 
REMARK    2  A    between atoms: C_5  and  C_9 
REMARK    3  A    between atoms: C_6  and  N_33 
REMARK    4  A    between atoms: C_12  and  N_30 
REMARK    5  A    between atoms: C_18  and  N_27 
REMARK    6  A    between atoms: C_21  and  C_29 
REMARK    7  A    between atoms: C_28  and  C_29 
ROOT
HETATM    1  C   UNK N   1      27.951  19.365   7.214  0.00  0.00     0.183 A 
HETATM    2  N   UNK N   1      28.897  18.698   7.884  0.00  0.00    -0.345 N 
ATOM      3  HN  UNK N   1      29.049  18.888   8.875  1.00  0.00     0.167 HD
HETATM    4  C   UNK N   1      29.640  17.784   7.258  0.00  0.00     0.090 A 
HETATM    5  C   UNK N   1      29.535  17.567   5.863  0.00  0.00     0.052 A 
HETATM    6  C   UNK N   1      28.537  18.270   5.202  0.00  0.00     0.113 A 
HETATM    7  N   UNK N   1      27.759  19.127   5.896  0.00  0.00    -0.338 N 
ATOM      8  HN  UNK N   1      27.003  19.610   5.413  1.00  0.00     0.168 HD
ENDROOT
BRANCH   4   9
HETATM    9  C   UNK N   1      30.531  17.128   8.041  0.00  0.00    -0.125 C 
BRANCH   9  10
HETATM   10  C   UNK N   1      31.249  16.538   8.717  0.00  0.00     0.101 C 
BRANCH  10  11
HETATM   11  C   UNK N   1      32.411  15.976   8.978  0.00  0.00     0.057 C 
HETATM   12  C   UNK N   1      33.381  16.810   8.495  0.00  0.00     0.067 C 
HETATM   13  N   UNK N   1      34.407  16.283   7.831  0.00  0.00    -0.378 N 
HETATM   14  C   UNK N   1      34.563  14.935   7.777  0.00  0.00     0.202 C 
ATOM     15  HN  UNK N   1      35.079  16.893   7.363  1.00  0.00     0.161 HD
HETATM   16  C   UNK N   1      33.484  14.102   7.995  0.00  0.00     0.016 C 
HETATM   17  C   UNK N   1      32.422  14.632   8.648  0.00  0.00    -0.016 C 
BRANCH  14  18
HETATM   18  N   UNK N   1      35.676  14.496   8.467  0.00  0.00    -0.385 N 
HETATM   19  C   UNK N   1      35.626  14.668   9.902  0.00  0.00     0.145 C 
HETATM   20  C   UNK N   1      37.028  14.878  10.324  0.00  0.00     0.187 C 
HETATM   21  O   UNK N   1      37.731  13.709   9.984  0.00  0.00    -0.388 OA
HETATM   22  C   UNK N   1      37.848  13.643   8.577  0.00  0.00     0.187 C 
HETATM   23  C   UNK N   1      36.488  13.417   7.968  0.00  0.00     0.145 C 
ENDBRANCH  14  18
ENDBRANCH  10  11
ENDBRANCH   9  10
ENDBRANCH   4   9
BRANCH   5  24
HETATM   24  C   UNK N   1      30.556  16.855   5.093  0.00  0.00    -0.019 A 
HETATM   25  C   UNK N   1      30.402  15.498   5.181  0.00  0.00     0.014 A 
HETATM   26  C   UNK N   1      31.422  14.649   4.995  0.00  0.00     0.030 A 
HETATM   27  C   UNK N   1      32.674  15.128   4.696  0.00  0.00     0.029 A 
HETATM   28  C   UNK N   1      32.903  16.515   4.631  0.00  0.00     0.030 A 
HETATM   29  C   UNK N   1      31.839  17.380   4.851  0.00  0.00     0.014 A 
BRANCH  27  30
HETATM   30  N   UNK N   1      33.551  14.231   4.078  0.00  0.00    -0.390 N 
HETATM   31  C   UNK N   1      33.388  12.828   4.396  0.00  0.00     0.149 C 
HETATM   32  C   UNK N   1      34.050  14.549   2.774  0.00  0.00     0.149 C 
ENDBRANCH  27  30
ENDBRANCH   5  24
BRANCH   6  33
HETATM   33  N   UNK N   1      28.381  18.198   3.804  0.00  0.00    -0.385 N 
HETATM   34  H   UNK N   1      28.390  17.324   3.352  0.00  0.00     0.157 HD
HETATM   35  H   UNK N   1      28.262  19.022   3.279  0.00  0.00     0.157 HD
ENDBRANCH   6  33
TORSDOF 7
ENDMDL
MODEL 7
REMARK VINA RESULT:      -6.5     14.793     17.176
REMARK  7 active torsions:
REMARK  status: ('A' for Active; 'I' for Inactive)
REMARK    1  A    between atoms: C_4  and  C_28 
REMARK    2  A    between atoms: C_5  and  C_9 
REMARK    3  A    between atoms: C_6  and  N_33 
REMARK    4  A    between atoms: C_12  and  N_30 
REMARK    5  A    between atoms: C_18  and  N_27 
REMARK    6  A    between atoms: C_21  and  C_29 
REMARK    7  A    between atoms: C_28  and  C_29 
ROOT
HETATM    1  C   UNK N   1      35.340  14.256  18.459  0.00  0.00     0.183 A 
HETATM    2  N   UNK N   1      34.807  13.289  17.705  0.00  0.00    -0.345 N 
ATOM      3  HN  UNK N   1      34.140  12.634  18.113  1.00  0.00     0.167 HD
HETATM    4  C   UNK N   1      35.147  13.181  16.419  0.00  0.00     0.090 A 
HETATM    5  C   UNK N   1      36.148  14.000  15.842  0.00  0.00     0.052 A 
HETATM    6  C   UNK N   1      36.672  14.998  16.651  0.00  0.00     0.113 A 
HETATM    7  N   UNK N   1      36.238  15.116  17.924  0.00  0.00    -0.338 N 
ATOM      8  HN  UNK N   1      36.598  15.876  18.501  1.00  0.00     0.168 HD
ENDROOT
BRANCH   4   9
HETATM    9  C   UNK N   1      34.508  12.203  15.732  0.00  0.00    -0.125 C 
BRANCH   9  10
HETATM   10  C   UNK N   1      33.989  11.339  15.180  0.00  0.00     0.101 C 
BRANCH  10  11
HETATM   11  C   UNK N   1      34.004  10.219  14.489  0.00  0.00     0.057 C 
HETATM   12  C   UNK N   1      35.077   9.491  14.921  0.00  0.00     0.067 C 
HETATM   13  N   UNK N   1      35.845   8.883  14.019  0.00  0.00    -0.378 N 
HETATM   14  C   UNK N   1      35.471   8.858  12.714  0.00  0.00     0.202 C 
ATOM     15  HN  UNK N   1      36.714   8.434  14.309  1.00  0.00     0.161 HD
HETATM   16  C   UNK N   1      34.583   9.796  12.228  0.00  0.00     0.016 C 
HETATM   17  C   UNK N   1      33.813  10.440  13.137  0.00  0.00    -0.016 C 
BRANCH  14  18
HETATM   18  N   UNK N   1      35.143   7.590  12.275  0.00  0.00    -0.385 N 
HETATM   19  C   UNK N   1      34.678   7.507  10.908  0.00  0.00     0.145 C 
HETATM   20  C   UNK N   1      33.726   6.374  10.883  0.00  0.00     0.187 C 
HETATM   21  O   UNK N   1      34.458   5.226  11.234  0.00  0.00    -0.388 OA
HETATM   22  C   UNK N   1      34.796   5.304  12.604  0.00  0.00     0.187 C 
HETATM   23  C   UNK N   1      35.784   6.421  12.817  0.00  0.00     0.145 C 
ENDBRANCH  14  18
ENDBRANCH  10  11
ENDBRANCH   9  10
ENDBRANCH   4   9
BRANCH   5  24
HETATM   24  C   UNK N   1      36.794  13.681  14.568  0.00  0.00    -0.019 A 
HETATM   25  C   UNK N   1      36.197  14.328  13.521  0.00  0.00     0.014 A 
HETATM   26  C   UNK N   1      36.262  13.866  12.265  0.00  0.00     0.030 A 
HETATM   27  C   UNK N   1      36.952  12.712  11.988  0.00  0.00     0.029 A 
HETATM   28  C   UNK N   1      37.555  11.982  13.029  0.00  0.00     0.030 A 
HETATM   29  C   UNK N   1      37.456  12.463  14.327  0.00  0.00     0.014 A 
BRANCH  27  30
HETATM   30  N   UNK N   1      37.366  12.538  10.663  0.00  0.00    -0.390 N 
HETATM   31  C   UNK N   1      36.339  12.573   9.644  0.00  0.00     0.149 C 
HETATM   32  C   UNK N   1      38.671  12.991  10.288  0.00  0.00     0.149 C 
ENDBRANCH  27  30
ENDBRANCH   5  24
BRANCH   6  33
HETATM   33  N   UNK N   1      37.725  15.828  16.219  0.00  0.00    -0.385 N 
HETATM   34  H   UNK N   1      38.619  15.740  16.623  0.00  0.00     0.157 HD
HETATM   35  H   UNK N   1      37.568  16.496  15.514  0.00  0.00     0.157 HD
ENDBRANCH   6  33
TORSDOF 7
ENDMDL
MODEL 8
REMARK VINA RESULT:      -6.5      6.664     11.604
REMARK  7 active torsions:
REMARK  status: ('A' for Active; 'I' for Inactive)
REMARK    1  A    between atoms: C_4  and  C_28 
REMARK    2  A    between atoms: C_5  and  C_9 
REMARK    3  A    between atoms: C_6  and  N_33 
REMARK    4  A    between atoms: C_12  and  N_30 
REMARK    5  A    between atoms: C_18  and  N_27 
REMARK    6  A    between atoms: C_21  and  C_29 
REMARK    7  A    between atoms: C_28  and  C_29 
ROOT
HETATM    1  C   UNK N   1      37.792  14.082   9.407  0.00  0.00     0.183 A 
HETATM    2  N   UNK N   1      37.144  14.188   8.242  0.00  0.00    -0.345 N 
ATOM      3  HN  UNK N   1      37.585  13.860   7.382  1.00  0.00     0.167 HD
HETATM    4  C   UNK N   1      35.922  14.722   8.204  0.00  0.00     0.090 A 
HETATM    5  C   UNK N   1      35.320  15.287   9.354  0.00  0.00     0.052 A 
HETATM    6  C   UNK N   1      36.016  15.151  10.547  0.00  0.00     0.113 A 
HETATM    7  N   UNK N   1      37.216  14.532  10.546  0.00  0.00    -0.338 N 
ATOM      8  HN  UNK N   1      37.704  14.400  11.431  1.00  0.00     0.168 HD
ENDROOT
BRANCH   4   9
HETATM    9  C   UNK N   1      35.333  14.732   6.983  0.00  0.00    -0.125 C 
BRANCH   9  10
HETATM   10  C   UNK N   1      34.821  14.692   5.955  0.00  0.00     0.101 C 
BRANCH  10  11
HETATM   11  C   UNK N   1      33.760  14.596   5.182  0.00  0.00     0.057 C 
HETATM   12  C   UNK N   1      33.423  15.865   4.800  0.00  0.00     0.067 C 
HETATM   13  N   UNK N   1      32.140  16.220   4.816  0.00  0.00    -0.378 N 
HETATM   14  C   UNK N   1      31.179  15.290   5.053  0.00  0.00     0.202 C 
ATOM     15  HN  UNK N   1      31.877  17.192   4.648  1.00  0.00     0.161 HD
HETATM   16  C   UNK N   1      31.496  14.115   5.705  0.00  0.00     0.016 C 
HETATM   17  C   UNK N   1      32.801  13.754   5.718  0.00  0.00    -0.016 C 
BRANCH  14  18
HETATM   18  N   UNK N   1      30.385  15.046   3.950  0.00  0.00    -0.385 N 
HETATM   19  C   UNK N   1      29.941  16.220   3.232  0.00  0.00     0.145 C 
HETATM   20  C   UNK N   1      28.621  15.861   2.666  0.00  0.00     0.187 C 
HETATM   21  O   UNK N   1      28.838  14.787   1.785  0.00  0.00    -0.388 OA
HETATM   22  C   UNK N   1      29.162  13.638   2.543  0.00  0.00     0.187 C 
HETATM   23  C   UNK N   1      30.507  13.827   3.195  0.00  0.00     0.145 C 
ENDBRANCH  14  18
ENDBRANCH  10  11
ENDBRANCH   9  10
ENDBRANCH   4   9
BRANCH   5  24
HETATM   24  C   UNK N   1      34.166  16.186   9.284  0.00  0.00    -0.019 A 
HETATM   25  C   UNK N   1      32.985  15.499   9.337  0.00  0.00     0.014 A 
HETATM   26  C   UNK N   1      31.847  15.991   8.827  0.00  0.00     0.030 A 
HETATM   27  C   UNK N   1      31.836  17.228   8.231  0.00  0.00     0.029 A 
HETATM   28  C   UNK N   1      33.028  17.966   8.111  0.00  0.00     0.030 A 
HETATM   29  C   UNK N   1      34.202  17.429   8.624  0.00  0.00     0.014 A 
BRANCH  27  30
HETATM   30  N   UNK N   1      30.593  17.863   8.142  0.00  0.00    -0.390 N 
HETATM   31  C   UNK N   1      29.556  17.178   7.401  0.00  0.00     0.149 C 
HETATM   32  C   UNK N   1      30.173  18.702   9.225  0.00  0.00     0.149 C 
ENDBRANCH  27  30
ENDBRANCH   5  24
BRANCH   6  33
HETATM   33  N   UNK N   1      35.560  15.735  11.744  0.00  0.00    -0.385 N 
HETATM   34  H   UNK N   1      36.205  16.014  12.433  0.00  0.00     0.157 HD
HETATM   35  H   UNK N   1      34.595  15.864  11.892  0.00  0.00     0.157 HD
ENDBRANCH   6  33
TORSDOF 7
ENDMDL
MODEL 9
REMARK VINA RESULT:      -6.4     11.553     14.330
REMARK  7 active torsions:
REMARK  status: ('A' for Active; 'I' for Inactive)
REMARK    1  A    between atoms: C_4  and  C_28 
REMARK    2  A    between atoms: C_5  and  C_9 
REMARK    3  A    between atoms: C_6  and  N_33 
REMARK    4  A    between atoms: C_12  and  N_30 
REMARK    5  A    between atoms: C_18  and  N_27 
REMARK    6  A    between atoms: C_21  and  C_29 
REMARK    7  A    between atoms: C_28  and  C_29 
ROOT
HETATM    1  C   UNK N   1      33.895  19.793  -3.749  0.00  0.00     0.183 A 
HETATM    2  N   UNK N   1      32.954  20.597  -3.241  0.00  0.00    -0.345 N 
ATOM      3  HN  UNK N   1      32.852  20.687  -2.230  1.00  0.00     0.167 HD
HETATM    4  C   UNK N   1      32.150  21.282  -4.057  0.00  0.00     0.090 A 
HETATM    5  C   UNK N   1      32.188  21.104  -5.461  0.00  0.00     0.052 A 
HETATM    6  C   UNK N   1      33.182  20.270  -5.952  0.00  0.00     0.113 A 
HETATM    7  N   UNK N   1      34.021  19.660  -5.089  0.00  0.00    -0.338 N 
ATOM      8  HN  UNK N   1      34.774  19.080  -5.458  1.00  0.00     0.168 HD
ENDROOT
BRANCH   4   9
HETATM    9  C   UNK N   1      31.270  22.108  -3.441  0.00  0.00    -0.125 C 
BRANCH   9  10
HETATM   10  C   UNK N   1      30.530  22.842  -2.958  0.00  0.00     0.101 C 
BRANCH  10  11
HETATM   11  C   UNK N   1      29.866  23.979  -2.923  0.00  0.00     0.057 C 
HETATM   12  C   UNK N   1      28.552  23.687  -3.162  0.00  0.00     0.067 C 
HETATM   13  N   UNK N   1      27.863  24.468  -3.992  0.00  0.00    -0.378 N 
HETATM   14  C   UNK N   1      28.414  25.617  -4.461  0.00  0.00     0.202 C 
ATOM     15  HN  UNK N   1      26.919  24.203  -4.276  1.00  0.00     0.161 HD
HETATM   16  C   UNK N   1      29.786  25.777  -4.468  0.00  0.00     0.016 C 
HETATM   17  C   UNK N   1      30.501  24.973  -3.647  0.00  0.00    -0.016 C 
BRANCH  14  18
HETATM   18  N   UNK N   1      27.786  26.748  -3.978  0.00  0.00    -0.385 N 
HETATM   19  C   UNK N   1      26.488  26.531  -3.378  0.00  0.00     0.145 C 
HETATM   20  C   UNK N   1      25.722  27.771  -3.635  0.00  0.00     0.187 C 
HETATM   21  O   UNK N   1      26.407  28.811  -2.983  0.00  0.00    -0.388 OA
HETATM   22  C   UNK N   1      27.617  29.058  -3.671  0.00  0.00     0.187 C 
HETATM   23  C   UNK N   1      28.541  27.879  -3.506  0.00  0.00     0.145 C 
ENDBRANCH  14  18
ENDBRANCH  10  11
ENDBRANCH   9  10
ENDBRANCH   4   9
BRANCH   5  24
HETATM   24  C   UNK N   1      31.108  21.549  -6.344  0.00  0.00    -0.019 A 
HETATM   25  C   UNK N   1      31.298  22.835  -6.769  0.00  0.00     0.014 A 
HETATM   26  C   UNK N   1      30.282  23.616  -7.161  0.00  0.00     0.030 A 
HETATM   27  C   UNK N   1      28.996  23.133  -7.153  0.00  0.00     0.029 A 
HETATM   28  C   UNK N   1      28.733  21.831  -6.690  0.00  0.00     0.030 A 
HETATM   29  C   UNK N   1      29.796  21.044  -6.266  0.00  0.00     0.014 A 
BRANCH  27  30
HETATM   30  N   UNK N   1      28.079  23.796  -7.976  0.00  0.00    -0.390 N 
HETATM   31  C   UNK N   1      28.223  23.609  -9.404  0.00  0.00     0.149 C 
HETATM   32  C   UNK N   1      26.756  24.027  -7.479  0.00  0.00     0.149 C 
ENDBRANCH  27  30
ENDBRANCH   5  24
BRANCH   6  33
HETATM   33  N   UNK N   1      33.275  19.954  -7.321  0.00  0.00    -0.385 N 
HETATM   34  H   UNK N   1      32.458  19.830  -7.855  0.00  0.00     0.157 HD
HETATM   35  H   UNK N   1      34.158  19.856  -7.745  0.00  0.00     0.157 HD
ENDBRANCH   6  33
TORSDOF 7
ENDMDL
