MODEL 1
REMARK VINA RESULT:      -5.7      0.000      0.000
REMARK  4 active torsions:
REMARK  status: ('A' for Active; 'I' for Inactive)
REMARK    1  A    between atoms: N_1  and  C_2 
REMARK    2  A    between atoms: C_8  and  N_9 
REMARK    3  A    between atoms: N_9  and  C_10 
REMARK    4  A    between atoms: C_10  and  C_11 
ROOT
HETATM    1  C   UNK N   1      36.392  14.421  13.652  0.00  0.00     0.125 A 
HETATM    2  N   UNK N   1      36.185  15.337  12.667  0.00  0.00    -0.351 N 
ATOM      3  HN  UNK N   1      36.590  16.268  12.765  1.00  0.00     0.166 HD
HETATM    4  C   UNK N   1      35.457  15.051  11.558  0.00  0.00     0.090 A 
HETATM    5  C   UNK N   1      34.893  13.786  11.399  0.00  0.00     0.019 A 
HETATM    6  C   UNK N   1      35.084  12.822  12.389  0.00  0.00     0.034 A 
HETATM    7  C   UNK N   1      35.834  13.118  13.531  0.00  0.00     0.072 A 
ENDROOT
BRANCH   7   8
HETATM    8  N   UNK N   1      36.003  12.098  14.517  0.00  0.00    -0.383 N 
HETATM    9  H   UNK N   1      36.892  11.691  14.626  0.00  0.00     0.160 HD
BRANCH   8  10
HETATM   10  C   UNK N   1      34.925  11.639  15.360  0.00  0.00     0.158 C 
BRANCH  10  11
HETATM   11  C   UNK N   1      35.067  11.999  16.805  0.00  0.00    -0.041 A 
HETATM   12  C   UNK N   1      35.003  13.323  17.266  0.00  0.00     0.009 A 
HETATM   13  C   UNK N   1      35.145  13.594  18.633  0.00  0.00     0.001 A 
HETATM   14  C   UNK N   1      35.350  12.547  19.538  0.00  0.00     0.000 A 
HETATM   15  C   UNK N   1      35.413  11.230  19.080  0.00  0.00     0.001 A 
HETATM   16  C   UNK N   1      35.272  10.960  17.718  0.00  0.00     0.009 A 
ENDBRANCH  10  11
ENDBRANCH   8  10
ENDBRANCH   7   8
BRANCH   1  17
HETATM   17  N   UNK N   1      37.160  14.798  14.772  0.00  0.00    -0.384 N 
HETATM   18  H   UNK N   1      38.111  15.026  14.663  0.00  0.00     0.157 HD
HETATM   19  H   UNK N   1      36.745  14.833  15.664  0.00  0.00     0.157 HD
ENDBRANCH   1  17
TORSDOF 4
ENDMDL
MODEL 2
REMARK VINA RESULT:      -5.7      9.901     11.985
REMARK  4 active torsions:
REMARK  status: ('A' for Active; 'I' for Inactive)
REMARK    1  A    between atoms: N_1  and  C_2 
REMARK    2  A    between atoms: C_8  and  N_9 
REMARK    3  A    between atoms: N_9  and  C_10 
REMARK    4  A    between atoms: C_10  and  C_11 
ROOT
HETATM    1  C   UNK N   1      27.783  19.069   7.503  0.00  0.00     0.125 A 
HETATM    2  N   UNK N   1      27.247  20.265   7.138  0.00  0.00    -0.351 N 
ATOM      3  HN  UNK N   1      26.824  20.857   7.853  1.00  0.00     0.166 HD
HETATM    4  C   UNK N   1      27.258  20.697   5.851  0.00  0.00     0.090 A 
HETATM    5  C   UNK N   1      27.830  19.908   4.854  0.00  0.00     0.019 A 
HETATM    6  C   UNK N   1      28.389  18.675   5.193  0.00  0.00     0.034 A 
HETATM    7  C   UNK N   1      28.377  18.232   6.518  0.00  0.00     0.072 A 
ENDROOT
BRANCH   7   8
HETATM    8  N   UNK N   1      28.961  16.963   6.816  0.00  0.00    -0.383 N 
HETATM    9  H   UNK N   1      28.552  16.410   7.521  0.00  0.00     0.160 HD
BRANCH   8  10
HETATM   10  C   UNK N   1      30.124  16.456   6.129  0.00  0.00     0.158 C 
BRANCH  10  11
HETATM   11  C   UNK N   1      31.428  16.983   6.638  0.00  0.00    -0.041 A 
HETATM   12  C   UNK N   1      31.609  17.404   7.965  0.00  0.00     0.009 A 
HETATM   13  C   UNK N   1      32.856  17.888   8.380  0.00  0.00     0.001 A 
HETATM   14  C   UNK N   1      33.920  17.953   7.474  0.00  0.00     0.000 A 
HETATM   15  C   UNK N   1      33.741  17.535   6.154  0.00  0.00     0.001 A 
HETATM   16  C   UNK N   1      32.498  17.052   5.740  0.00  0.00     0.009 A 
ENDBRANCH  10  11
ENDBRANCH   8  10
ENDBRANCH   7   8
BRANCH   1  17
HETATM   17  N   UNK N   1      27.730  18.694   8.861  0.00  0.00    -0.384 N 
HETATM   18  H   UNK N   1      26.863  18.634   9.323  0.00  0.00     0.157 HD
HETATM   19  H   UNK N   1      28.562  18.493   9.349  0.00  0.00     0.157 HD
ENDBRANCH   1  17
TORSDOF 4
ENDMDL
MODEL 3
REMARK VINA RESULT:      -5.6      5.264      9.339
REMARK  4 active torsions:
REMARK  status: ('A' for Active; 'I' for Inactive)
REMARK    1  A    between atoms: N_1  and  C_2 
REMARK    2  A    between atoms: C_8  and  N_9 
REMARK    3  A    between atoms: N_9  and  C_10 
REMARK    4  A    between atoms: C_10  and  C_11 
ROOT
HETATM    1  C   UNK N   1      33.799  14.896  10.478  0.00  0.00     0.125 A 
HETATM    2  N   UNK N   1      34.302  13.709  10.916  0.00  0.00    -0.351 N 
ATOM      3  HN  UNK N   1      33.658  12.942  11.113  1.00  0.00     0.166 HD
HETATM    4  C   UNK N   1      35.632  13.513  11.098  0.00  0.00     0.090 A 
HETATM    5  C   UNK N   1      36.533  14.544  10.836  0.00  0.00     0.019 A 
HETATM    6  C   UNK N   1      36.053  15.775  10.386  0.00  0.00     0.034 A 
HETATM    7  C   UNK N   1      34.683  15.975  10.199  0.00  0.00     0.072 A 
ENDROOT
BRANCH   7   8
HETATM    8  N   UNK N   1      34.239  17.252   9.737  0.00  0.00    -0.383 N 
HETATM    9  H   UNK N   1      33.712  17.816  10.347  0.00  0.00     0.160 HD
BRANCH   8  10
HETATM   10  C   UNK N   1      34.530  17.750   8.414  0.00  0.00     0.158 C 
BRANCH  10  11
HETATM   11  C   UNK N   1      33.435  17.545   7.416  0.00  0.00    -0.041 A 
HETATM   12  C   UNK N   1      32.086  17.423   7.785  0.00  0.00     0.009 A 
HETATM   13  C   UNK N   1      31.108  17.232   6.802  0.00  0.00     0.001 A 
HETATM   14  C   UNK N   1      31.473  17.162   5.452  0.00  0.00     0.000 A 
HETATM   15  C   UNK N   1      32.815  17.283   5.085  0.00  0.00     0.001 A 
HETATM   16  C   UNK N   1      33.790  17.474   6.065  0.00  0.00     0.009 A 
ENDBRANCH  10  11
ENDBRANCH   8  10
ENDBRANCH   7   8
BRANCH   1  17
HETATM   17  N   UNK N   1      32.404  15.017  10.315  0.00  0.00    -0.384 N 
HETATM   18  H   UNK N   1      31.995  14.850   9.436  0.00  0.00     0.157 HD
HETATM   19  H   UNK N   1      31.839  15.270  11.081  0.00  0.00     0.157 HD
ENDBRANCH   1  17
TORSDOF 4
ENDMDL
MODEL 4
REMARK VINA RESULT:      -5.6      1.638      2.668
REMARK  4 active torsions:
REMARK  status: ('A' for Active; 'I' for Inactive)
REMARK    1  A    between atoms: N_1  and  C_2 
REMARK    2  A    between atoms: C_8  and  N_9 
REMARK    3  A    between atoms: N_9  and  C_10 
REMARK    4  A    between atoms: C_10  and  C_11 
ROOT
HETATM    1  C   UNK N   1      34.844  13.532  11.855  0.00  0.00     0.125 A 
HETATM    2  N   UNK N   1      34.000  13.979  10.885  0.00  0.00    -0.351 N 
ATOM      3  HN  UNK N   1      33.259  13.362  10.551  1.00  0.00     0.166 HD
HETATM    4  C   UNK N   1      34.113  15.219  10.346  0.00  0.00     0.090 A 
HETATM    5  C   UNK N   1      35.117  16.082  10.784  0.00  0.00     0.019 A 
HETATM    6  C   UNK N   1      36.000  15.658  11.778  0.00  0.00     0.034 A 
HETATM    7  C   UNK N   1      35.882  14.380  12.331  0.00  0.00     0.072 A 
ENDROOT
BRANCH   7   8
HETATM    8  N   UNK N   1      36.809  13.990  13.346  0.00  0.00    -0.383 N 
HETATM    9  H   UNK N   1      37.591  13.451  13.088  0.00  0.00     0.160 HD
BRANCH   8  10
HETATM   10  C   UNK N   1      36.649  14.353  14.734  0.00  0.00     0.158 C 
BRANCH  10  11
HETATM   11  C   UNK N   1      36.278  13.219  15.635  0.00  0.00    -0.041 A 
HETATM   12  C   UNK N   1      35.479  13.387  16.776  0.00  0.00     0.009 A 
HETATM   13  C   UNK N   1      35.168  12.284  17.580  0.00  0.00     0.001 A 
HETATM   14  C   UNK N   1      35.653  11.014  17.247  0.00  0.00     0.000 A 
HETATM   15  C   UNK N   1      36.449  10.846  16.112  0.00  0.00     0.001 A 
HETATM   16  C   UNK N   1      36.759  11.946  15.311  0.00  0.00     0.009 A 
ENDBRANCH  10  11
ENDBRANCH   8  10
ENDBRANCH   7   8
BRANCH   1  17
HETATM   17  N   UNK N   1      34.658  12.230  12.362  0.00  0.00    -0.384 N 
HETATM   18  H   UNK N   1      33.963  12.059  13.037  0.00  0.00     0.157 HD
HETATM   19  H   UNK N   1      35.223  11.491  12.040  0.00  0.00     0.157 HD
ENDBRANCH   1  17
TORSDOF 4
ENDMDL
MODEL 5
REMARK VINA RESULT:      -5.3      1.770      2.446
REMARK  4 active torsions:
REMARK  status: ('A' for Active; 'I' for Inactive)
REMARK    1  A    between atoms: N_1  and  C_2 
REMARK    2  A    between atoms: C_8  and  N_9 
REMARK    3  A    between atoms: N_9  and  C_10 
REMARK    4  A    between atoms: C_10  and  C_11 
ROOT
HETATM    1  C   UNK N   1      37.160  13.539  11.140  0.00  0.00     0.125 A 
HETATM    2  N   UNK N   1      36.582  13.822   9.940  0.00  0.00    -0.351 N 
ATOM      3  HN  UNK N   1      37.139  13.732   9.090  1.00  0.00     0.166 HD
HETATM    4  C   UNK N   1      35.289  14.220   9.839  0.00  0.00     0.090 A 
HETATM    5  C   UNK N   1      34.506  14.351  10.985  0.00  0.00     0.019 A 
HETATM    6  C   UNK N   1      35.065  14.069  12.232  0.00  0.00     0.034 A 
HETATM    7  C   UNK N   1      36.397  13.660  12.335  0.00  0.00     0.072 A 
ENDROOT
BRANCH   7   8
HETATM    8  N   UNK N   1      36.926  13.383  13.633  0.00  0.00    -0.383 N 
HETATM    9  H   UNK N   1      37.695  12.773  13.708  0.00  0.00     0.160 HD
BRANCH   8  10
HETATM   10  C   UNK N   1      36.381  13.959  14.839  0.00  0.00     0.158 C 
BRANCH  10  11
HETATM   11  C   UNK N   1      36.066  12.969  15.915  0.00  0.00    -0.041 A 
HETATM   12  C   UNK N   1      36.359  11.602  15.797  0.00  0.00     0.009 A 
HETATM   13  C   UNK N   1      36.038  10.726  16.841  0.00  0.00     0.001 A 
HETATM   14  C   UNK N   1      35.425  11.212  18.001  0.00  0.00     0.000 A 
HETATM   15  C   UNK N   1      35.132  12.573  18.120  0.00  0.00     0.001 A 
HETATM   16  C   UNK N   1      35.453  13.446  17.078  0.00  0.00     0.009 A 
ENDBRANCH  10  11
ENDBRANCH   8  10
ENDBRANCH   7   8
BRANCH   1  17
HETATM   17  N   UNK N   1      38.509  13.132  11.158  0.00  0.00    -0.384 N 
HETATM   18  H   UNK N   1      38.987  12.971  10.313  0.00  0.00     0.157 HD
HETATM   19  H   UNK N   1      38.975  13.009  12.017  0.00  0.00     0.157 HD
ENDBRANCH   1  17
TORSDOF 4
ENDMDL
MODEL 6
REMARK VINA RESULT:      -5.2     10.969     12.865
REMARK  4 active torsions:
REMARK  status: ('A' for Active; 'I' for Inactive)
REMARK    1  A    between atoms: N_1  and  C_2 
REMARK    2  A    between atoms: C_8  and  N_9 
REMARK    3  A    between atoms: N_9  and  C_10 
REMARK    4  A    between atoms: C_10  and  C_11 
ROOT
HETATM    1  C   UNK N   1      27.663  19.083   7.877  0.00  0.00     0.125 A 
HETATM    2  N   UNK N   1      26.919  20.222   7.857  0.00  0.00    -0.351 N 
ATOM      3  HN  UNK N   1      26.489  20.547   8.724  1.00  0.00     0.166 HD
HETATM    4  C   UNK N   1      26.732  20.941   6.722  0.00  0.00     0.090 A 
HETATM    5  C   UNK N   1      27.308  20.520   5.525  0.00  0.00     0.019 A 
HETATM    6  C   UNK N   1      28.077  19.355   5.507  0.00  0.00     0.034 A 
HETATM    7  C   UNK N   1      28.269  18.616   6.677  0.00  0.00     0.072 A 
ENDROOT
BRANCH   7   8
HETATM    8  N   UNK N   1      29.064  17.431   6.610  0.00  0.00    -0.383 N 
HETATM    9  H   UNK N   1      28.638  16.595   6.315  0.00  0.00     0.160 HD
BRANCH   8  10
HETATM   10  C   UNK N   1      30.465  17.408   6.957  0.00  0.00     0.158 C 
BRANCH  10  11
HETATM   11  C   UNK N   1      31.386  17.128   5.812  0.00  0.00    -0.041 A 
HETATM   12  C   UNK N   1      31.056  17.431   4.482  0.00  0.00     0.009 A 
HETATM   13  C   UNK N   1      31.962  17.144   3.454  0.00  0.00     0.001 A 
HETATM   14  C   UNK N   1      33.197  16.556   3.752  0.00  0.00     0.000 A 
HETATM   15  C   UNK N   1      33.526  16.254   5.075  0.00  0.00     0.001 A 
HETATM   16  C   UNK N   1      32.622  16.540   6.099  0.00  0.00     0.009 A 
ENDBRANCH  10  11
ENDBRANCH   8  10
ENDBRANCH   7   8
BRANCH   1  17
HETATM   17  N   UNK N   1      27.809  18.394   9.098  0.00  0.00    -0.384 N 
HETATM   18  H   UNK N   1      28.333  17.562   9.135  0.00  0.00     0.157 HD
HETATM   19  H   UNK N   1      27.387  18.746   9.915  0.00  0.00     0.157 HD
ENDBRANCH   1  17
TORSDOF 4
ENDMDL
MODEL 7
REMARK VINA RESULT:      -5.1     13.805     16.009
REMARK  4 active torsions:
REMARK  status: ('A' for Active; 'I' for Inactive)
REMARK    1  A    between atoms: N_1  and  C_2 
REMARK    2  A    between atoms: C_8  and  N_9 
REMARK    3  A    between atoms: N_9  and  C_10 
REMARK    4  A    between atoms: C_10  and  C_11 
ROOT
HETATM    1  C   UNK N   1      21.624  12.285  11.145  0.00  0.00     0.125 A 
HETATM    2  N   UNK N   1      22.559  11.774  11.992  0.00  0.00    -0.351 N 
ATOM      3  HN  UNK N   1      22.251  11.325  12.855  1.00  0.00     0.166 HD
HETATM    4  C   UNK N   1      23.887  11.843  11.726  0.00  0.00     0.090 A 
HETATM    5  C   UNK N   1      24.334  12.451  10.554  0.00  0.00     0.019 A 
HETATM    6  C   UNK N   1      23.404  12.986   9.661  0.00  0.00     0.034 A 
HETATM    7  C   UNK N   1      22.036  12.914   9.937  0.00  0.00     0.072 A 
ENDROOT
BRANCH   7   8
HETATM    8  N   UNK N   1      21.122  13.475   8.994  0.00  0.00    -0.383 N 
HETATM    9  H   UNK N   1      20.815  12.916   8.245  0.00  0.00     0.160 HD
BRANCH   8  10
HETATM   10  C   UNK N   1      20.629  14.828   9.092  0.00  0.00     0.158 C 
BRANCH  10  11
HETATM   11  C   UNK N   1      21.095  15.742   8.004  0.00  0.00    -0.041 A 
HETATM   12  C   UNK N   1      20.526  17.005   7.778  0.00  0.00     0.009 A 
HETATM   13  C   UNK N   1      21.008  17.813   6.741  0.00  0.00     0.001 A 
HETATM   14  C   UNK N   1      22.057  17.363   5.930  0.00  0.00     0.000 A 
HETATM   15  C   UNK N   1      22.623  16.106   6.154  0.00  0.00     0.001 A 
HETATM   16  C   UNK N   1      22.142  15.301   7.188  0.00  0.00     0.009 A 
ENDBRANCH  10  11
ENDBRANCH   8  10
ENDBRANCH   7   8
BRANCH   1  17
HETATM   17  N   UNK N   1      20.263  12.172  11.496  0.00  0.00    -0.384 N 
HETATM   18  H   UNK N   1      19.956  11.410  12.037  0.00  0.00     0.157 HD
HETATM   19  H   UNK N   1      19.620  12.857  11.200  0.00  0.00     0.157 HD
ENDBRANCH   1  17
TORSDOF 4
ENDMDL
MODEL 8
REMARK VINA RESULT:      -5.1     16.884     19.433
REMARK  4 active torsions:
REMARK  status: ('A' for Active; 'I' for Inactive)
REMARK    1  A    between atoms: N_1  and  C_2 
REMARK    2  A    between atoms: C_8  and  N_9 
REMARK    3  A    between atoms: N_9  and  C_10 
REMARK    4  A    between atoms: C_10  and  C_11 
ROOT
HETATM    1  C   UNK N   1      44.535  23.602   2.713  0.00  0.00     0.125 A 
HETATM    2  N   UNK N   1      45.393  22.837   3.442  0.00  0.00    -0.351 N 
ATOM      3  HN  UNK N   1      46.345  23.171   3.596  1.00  0.00     0.166 HD
HETATM    4  C   UNK N   1      45.023  21.642   3.969  0.00  0.00     0.090 A 
HETATM    5  C   UNK N   1      43.730  21.162   3.773  0.00  0.00     0.019 A 
HETATM    6  C   UNK N   1      42.823  21.920   3.031  0.00  0.00     0.034 A 
HETATM    7  C   UNK N   1      43.205  23.150   2.488  0.00  0.00     0.072 A 
ENDROOT
BRANCH   7   8
HETATM    8  N   UNK N   1      42.243  23.890   1.736  0.00  0.00    -0.383 N 
HETATM    9  H   UNK N   1      42.369  24.861   1.635  0.00  0.00     0.160 HD
BRANCH   8  10
HETATM   10  C   UNK N   1      41.093  23.276   1.116  0.00  0.00     0.158 C 
BRANCH  10  11
HETATM   11  C   UNK N   1      40.327  24.173   0.196  0.00  0.00    -0.041 A 
HETATM   12  C   UNK N   1      40.301  25.568   0.345  0.00  0.00     0.009 A 
HETATM   13  C   UNK N   1      39.564  26.352  -0.551  0.00  0.00     0.001 A 
HETATM   14  C   UNK N   1      38.855  25.747  -1.594  0.00  0.00     0.000 A 
HETATM   15  C   UNK N   1      38.881  24.359  -1.744  0.00  0.00     0.001 A 
HETATM   16  C   UNK N   1      39.616  23.577  -0.850  0.00  0.00     0.009 A 
ENDBRANCH  10  11
ENDBRANCH   8  10
ENDBRANCH   7   8
BRANCH   1  17
HETATM   17  N   UNK N   1      44.999  24.830   2.200  0.00  0.00    -0.384 N 
HETATM   18  H   UNK N   1      45.839  25.218   2.534  0.00  0.00     0.157 HD
HETATM   19  H   UNK N   1      44.481  25.301   1.507  0.00  0.00     0.157 HD
ENDBRANCH   1  17
TORSDOF 4
ENDMDL
MODEL 9
REMARK VINA RESULT:      -4.9     21.315     24.380
REMARK  4 active torsions:
REMARK  status: ('A' for Active; 'I' for Inactive)
REMARK    1  A    between atoms: N_1  and  C_2 
REMARK    2  A    between atoms: C_8  and  N_9 
REMARK    3  A    between atoms: N_9  and  C_10 
REMARK    4  A    between atoms: C_10  and  C_11 
ROOT
HETATM    1  C   UNK N   1      30.247  23.055  -5.174  0.00  0.00     0.125 A 
HETATM    2  N   UNK N   1      31.468  22.675  -4.709  0.00  0.00    -0.351 N 
ATOM      3  HN  UNK N   1      32.209  22.467  -5.379  1.00  0.00     0.166 HD
HETATM    4  C   UNK N   1      31.732  22.566  -3.382  0.00  0.00     0.090 A 
HETATM    5  C   UNK N   1      30.738  22.845  -2.447  0.00  0.00     0.019 A 
HETATM    6  C   UNK N   1      29.473  23.237  -2.887  0.00  0.00     0.034 A 
HETATM    7  C   UNK N   1      29.203  23.349  -4.254  0.00  0.00     0.072 A 
ENDROOT
BRANCH   7   8
HETATM    8  N   UNK N   1      27.893  23.754  -4.657  0.00  0.00    -0.383 N 
HETATM    9  H   UNK N   1      27.651  23.684  -5.608  0.00  0.00     0.160 HD
BRANCH   8  10
HETATM   10  C   UNK N   1      26.910  24.260  -3.730  0.00  0.00     0.158 C 
BRANCH  10  11
HETATM   11  C   UNK N   1      26.256  25.538  -4.151  0.00  0.00    -0.041 A 
HETATM   12  C   UNK N   1      25.556  25.668  -5.360  0.00  0.00     0.009 A 
HETATM   13  C   UNK N   1      24.966  26.893  -5.697  0.00  0.00     0.001 A 
HETATM   14  C   UNK N   1      25.074  27.986  -4.830  0.00  0.00     0.000 A 
HETATM   15  C   UNK N   1      25.770  27.857  -3.627  0.00  0.00     0.001 A 
HETATM   16  C   UNK N   1      26.359  26.636  -3.291  0.00  0.00     0.009 A 
ENDBRANCH  10  11
ENDBRANCH   8  10
ENDBRANCH   7   8
BRANCH   1  17
HETATM   17  N   UNK N   1      30.055  23.144  -6.568  0.00  0.00    -0.384 N 
HETATM   18  H   UNK N   1      29.163  23.348  -6.930  0.00  0.00     0.157 HD
HETATM   19  H   UNK N   1      30.813  23.002  -7.179  0.00  0.00     0.157 HD
ENDBRANCH   1  17
TORSDOF 4
ENDMDL
