REMARK  7 active torsions:
REMARK  status: ('A' for Active; 'I' for Inactive)
REMARK    1  A    between atoms: O_2  and  C_3 
REMARK    2  A    between atoms: C_8  and  C_9 
REMARK    3  A    between atoms: N_10  and  O_12 
REMARK    4  A    between atoms: O_12  and  C_13 
REMARK    5  A    between atoms: C_13  and  C_14 
REMARK    6  A    between atoms: C_14  and  C_15 
REMARK    7  A    between atoms: C_15  and  O_16 
ROOT
HETATM    1  C   UNK N   1      -1.821  -1.198   0.307  0.00  0.00     0.128 C 
HETATM    2  N   UNK N   1      -0.791  -1.944   0.089  0.00  0.00    -0.277 N 
ATOM      3  HN  UNK N   1      -0.822  -2.925   0.369  1.00  0.00     0.193 HD
ENDROOT
BRANCH   1   4
HETATM    4  C   UNK N   1      -1.882   0.284   0.149  0.00  0.00     0.015 A 
HETATM    5  C   UNK N   1      -0.776   1.164   0.327  0.00  0.00     0.079 A 
HETATM    6  C   UNK N   1      -0.969   2.549   0.165  0.00  0.00     0.037 A 
HETATM    7  C   UNK N   1      -2.226   3.064  -0.146  0.00  0.00     0.003 A 
HETATM    8  C   UNK N   1      -3.313   2.205  -0.286  0.00  0.00     0.001 A 
HETATM    9  C   UNK N   1      -3.140   0.828  -0.137  0.00  0.00     0.015 A 
BRANCH   5  10
HETATM   10  O   UNK N   1       0.439   0.687   0.686  0.00  0.00    -0.355 OA
HETATM   11  C   UNK N   1       1.546   1.484   0.885  0.00  0.00     0.210 C 
ENDBRANCH   5  10
ENDBRANCH   1   4
BRANCH   2  12
HETATM   12  O   UNK N   1       0.297  -1.480  -0.485  0.00  0.00    -0.280 OA
BRANCH  12  13
HETATM   13  C   UNK N   1       1.496  -2.125  -0.336  0.00  0.00     0.211 C 
BRANCH  13  14
HETATM   14  C   UNK N   1       2.577  -1.288  -0.996  0.00  0.00     0.138 C 
BRANCH  14  15
HETATM   15  C   UNK N   1       3.890  -1.481  -0.315  0.00  0.00     0.141 C 
HETATM   16  O   UNK N   1       4.452  -0.529   0.201  0.00  0.00    -0.650 OA
BRANCH  15  17
HETATM   17  O   UNK N   1       4.468  -2.697  -0.288  0.00  0.00    -0.776 OA
HETATM   18  H   UNK N   1       3.936  -3.468  -0.269  0.00  0.00     0.167 HD
ENDBRANCH  15  17
ENDBRANCH  14  15
ENDBRANCH  13  14
ENDBRANCH  12  13
ENDBRANCH   2  12
TORSDOF 7
