MODEL 1
REMARK VINA RESULT:      -5.7      0.000      0.000
REMARK  7 active torsions:
REMARK  status: ('A' for Active; 'I' for Inactive)
REMARK    1  A    between atoms: O_2  and  C_3 
REMARK    2  A    between atoms: C_8  and  C_9 
REMARK    3  A    between atoms: N_10  and  O_12 
REMARK    4  A    between atoms: O_12  and  C_13 
REMARK    5  A    between atoms: C_13  and  C_14 
REMARK    6  A    between atoms: C_14  and  C_15 
REMARK    7  A    between atoms: C_15  and  O_16 
ROOT
HETATM    1  C   UNK N   1      26.910  24.230  -3.294  0.00  0.00     0.128 C 
HETATM    2  N   UNK N   1      28.169  23.946  -3.311  0.00  0.00    -0.277 N 
ATOM      3  HN  UNK N   1      28.516  23.199  -2.708  1.00  0.00     0.193 HD
ENDROOT
BRANCH   1   4
HETATM    4  C   UNK N   1      26.266  25.405  -3.949  0.00  0.00     0.015 A 
HETATM    5  C   UNK N   1      25.622  25.372  -5.219  0.00  0.00     0.079 A 
HETATM    6  C   UNK N   1      25.066  26.557  -5.737  0.00  0.00     0.037 A 
HETATM    7  C   UNK N   1      25.157  27.756  -5.034  0.00  0.00     0.003 A 
HETATM    8  C   UNK N   1      25.817  27.794  -3.808  0.00  0.00     0.001 A 
HETATM    9  C   UNK N   1      26.368  26.628  -3.274  0.00  0.00     0.015 A 
BRANCH   5  10
HETATM   10  O   UNK N   1      25.574  24.229  -5.943  0.00  0.00    -0.355 OA
HETATM   11  C   UNK N   1      25.852  24.165  -7.292  0.00  0.00     0.210 C 
ENDBRANCH   5  10
ENDBRANCH   1   4
BRANCH   2  12
HETATM   12  O   UNK N   1      29.018  24.586  -4.083  0.00  0.00    -0.280 OA
BRANCH  12  13
HETATM   13  C   UNK N   1      30.349  24.641  -3.764  0.00  0.00     0.211 C 
BRANCH  13  14
HETATM   14  C   UNK N   1      30.922  23.237  -3.851  0.00  0.00     0.138 C 
BRANCH  14  15
HETATM   15  C   UNK N   1      31.114  22.655  -2.491  0.00  0.00     0.141 C 
HETATM   16  O   UNK N   1      31.984  21.821  -2.306  0.00  0.00    -0.650 OA
BRANCH  15  17
HETATM   17  O   UNK N   1      30.315  23.030  -1.474  0.00  0.00    -0.776 OA
HETATM   18  H   UNK N   1      29.395  23.139  -1.616  0.00  0.00     0.167 HD
ENDBRANCH  15  17
ENDBRANCH  14  15
ENDBRANCH  13  14
ENDBRANCH  12  13
ENDBRANCH   2  12
TORSDOF 7
ENDMDL
MODEL 2
REMARK VINA RESULT:      -5.6     19.714     23.449
REMARK  7 active torsions:
REMARK  status: ('A' for Active; 'I' for Inactive)
REMARK    1  A    between atoms: O_2  and  C_3 
REMARK    2  A    between atoms: C_8  and  C_9 
REMARK    3  A    between atoms: N_10  and  O_12 
REMARK    4  A    between atoms: O_12  and  C_13 
REMARK    5  A    between atoms: C_13  and  C_14 
REMARK    6  A    between atoms: C_14  and  C_15 
REMARK    7  A    between atoms: C_15  and  O_16 
ROOT
HETATM    1  C   UNK N   1      36.898  14.456  14.842  0.00  0.00     0.128 C 
HETATM    2  N   UNK N   1      36.377  14.835  13.725  0.00  0.00    -0.277 N 
ATOM      3  HN  UNK N   1      36.738  15.674  13.269  1.00  0.00     0.193 HD
ENDROOT
BRANCH   1   4
HETATM    4  C   UNK N   1      36.374  13.384  15.738  0.00  0.00     0.015 A 
HETATM    5  C   UNK N   1      36.511  11.987  15.495  0.00  0.00     0.079 A 
HETATM    6  C   UNK N   1      35.955  11.074  16.412  0.00  0.00     0.037 A 
HETATM    7  C   UNK N   1      35.260  11.522  17.534  0.00  0.00     0.003 A 
HETATM    8  C   UNK N   1      35.098  12.888  17.751  0.00  0.00     0.001 A 
HETATM    9  C   UNK N   1      35.649  13.808  16.858  0.00  0.00     0.015 A 
BRANCH   5  10
HETATM   10  O   UNK N   1      37.132  11.534  14.381  0.00  0.00    -0.355 OA
HETATM   11  C   UNK N   1      38.200  10.663  14.400  0.00  0.00     0.210 C 
ENDBRANCH   5  10
ENDBRANCH   1   4
BRANCH   2  12
HETATM   12  O   UNK N   1      35.396  14.172  13.152  0.00  0.00    -0.280 OA
BRANCH  12  13
HETATM   13  C   UNK N   1      35.359  14.014  11.792  0.00  0.00     0.211 C 
BRANCH  13  14
HETATM   14  C   UNK N   1      34.634  15.205  11.190  0.00  0.00     0.138 C 
BRANCH  14  15
HETATM   15  C   UNK N   1      35.597  16.282  10.819  0.00  0.00     0.141 C 
HETATM   16  O   UNK N   1      35.183  17.335  10.363  0.00  0.00    -0.650 OA
BRANCH  15  17
HETATM   17  O   UNK N   1      36.922  16.087  10.963  0.00  0.00    -0.776 OA
HETATM   18  H   UNK N   1      37.508  16.818  10.938  0.00  0.00     0.167 HD
ENDBRANCH  15  17
ENDBRANCH  14  15
ENDBRANCH  13  14
ENDBRANCH  12  13
ENDBRANCH   2  12
TORSDOF 7
ENDMDL
MODEL 3
REMARK VINA RESULT:      -5.3     11.380     13.069
REMARK  7 active torsions:
REMARK  status: ('A' for Active; 'I' for Inactive)
REMARK    1  A    between atoms: O_2  and  C_3 
REMARK    2  A    between atoms: C_8  and  C_9 
REMARK    3  A    between atoms: N_10  and  O_12 
REMARK    4  A    between atoms: O_12  and  C_13 
REMARK    5  A    between atoms: C_13  and  C_14 
REMARK    6  A    between atoms: C_14  and  C_15 
REMARK    7  A    between atoms: C_15  and  O_16 
ROOT
HETATM    1  C   UNK N   1      29.355  17.229   7.923  0.00  0.00     0.128 C 
HETATM    2  N   UNK N   1      30.609  17.090   8.192  0.00  0.00    -0.277 N 
ATOM      3  HN  UNK N   1      30.883  16.520   8.993  1.00  0.00     0.193 HD
ENDROOT
BRANCH   1   4
HETATM    4  C   UNK N   1      28.769  18.173   6.927  0.00  0.00     0.015 A 
HETATM    5  C   UNK N   1      28.852  18.013   5.514  0.00  0.00     0.079 A 
HETATM    6  C   UNK N   1      28.270  18.986   4.679  0.00  0.00     0.037 A 
HETATM    7  C   UNK N   1      27.637  20.104   5.218  0.00  0.00     0.003 A 
HETATM    8  C   UNK N   1      27.587  20.275   6.599  0.00  0.00     0.001 A 
HETATM    9  C   UNK N   1      28.151  19.318   7.443  0.00  0.00     0.015 A 
BRANCH   5  10
HETATM   10  O   UNK N   1      29.513  16.963   4.972  0.00  0.00    -0.355 OA
HETATM   11  C   UNK N   1      29.497  16.659   3.628  0.00  0.00     0.210 C 
ENDBRANCH   5  10
ENDBRANCH   1   4
BRANCH   2  12
HETATM   12  O   UNK N   1      31.545  17.658   7.465  0.00  0.00    -0.280 OA
BRANCH  12  13
HETATM   13  C   UNK N   1      32.537  16.908   6.892  0.00  0.00     0.211 C 
BRANCH  13  14
HETATM   14  C   UNK N   1      33.804  17.743   6.841  0.00  0.00     0.138 C 
BRANCH  14  15
HETATM   15  C   UNK N   1      34.191  18.205   8.206  0.00  0.00     0.141 C 
HETATM   16  O   UNK N   1      35.012  19.098   8.334  0.00  0.00    -0.650 OA
BRANCH  15  17
HETATM   17  O   UNK N   1      33.656  17.624   9.296  0.00  0.00    -0.776 OA
HETATM   18  H   UNK N   1      32.734  17.681   9.452  0.00  0.00     0.167 HD
ENDBRANCH  15  17
ENDBRANCH  14  15
ENDBRANCH  13  14
ENDBRANCH  12  13
ENDBRANCH   2  12
TORSDOF 7
ENDMDL
MODEL 4
REMARK VINA RESULT:      -5.3      1.225      2.380
REMARK  7 active torsions:
REMARK  status: ('A' for Active; 'I' for Inactive)
REMARK    1  A    between atoms: O_2  and  C_3 
REMARK    2  A    between atoms: C_8  and  C_9 
REMARK    3  A    between atoms: N_10  and  O_12 
REMARK    4  A    between atoms: O_12  and  C_13 
REMARK    5  A    between atoms: C_13  and  C_14 
REMARK    6  A    between atoms: C_14  and  C_15 
REMARK    7  A    between atoms: C_15  and  O_16 
ROOT
HETATM    1  C   UNK N   1      26.993  24.496  -3.292  0.00  0.00     0.128 C 
HETATM    2  N   UNK N   1      28.256  24.307  -3.109  0.00  0.00    -0.277 N 
ATOM      3  HN  UNK N   1      28.562  23.741  -2.317  1.00  0.00     0.193 HD
ENDROOT
BRANCH   1   4
HETATM    4  C   UNK N   1      26.378  25.446  -4.264  0.00  0.00     0.015 A 
HETATM    5  C   UNK N   1      26.115  26.820  -3.998  0.00  0.00     0.079 A 
HETATM    6  C   UNK N   1      25.513  27.609  -4.997  0.00  0.00     0.037 A 
HETATM    7  C   UNK N   1      25.158  27.056  -6.227  0.00  0.00     0.003 A 
HETATM    8  C   UNK N   1      25.385  25.704  -6.472  0.00  0.00     0.001 A 
HETATM    9  C   UNK N   1      25.987  24.908  -5.496  0.00  0.00     0.015 A 
BRANCH   5  10
HETATM   10  O   UNK N   1      26.400  27.360  -2.790  0.00  0.00    -0.355 OA
HETATM   11  C   UNK N   1      27.168  28.492  -2.619  0.00  0.00     0.210 C 
ENDBRANCH   5  10
ENDBRANCH   1   4
BRANCH   2  12
HETATM   12  O   UNK N   1      29.161  24.821  -3.912  0.00  0.00    -0.280 OA
BRANCH  12  13
HETATM   13  C   UNK N   1      30.485  24.826  -3.561  0.00  0.00     0.211 C 
BRANCH  13  14
HETATM   14  C   UNK N   1      31.042  23.429  -3.768  0.00  0.00     0.138 C 
BRANCH  14  15
HETATM   15  C   UNK N   1      31.148  22.700  -2.471  0.00  0.00     0.141 C 
HETATM   16  O   UNK N   1      31.975  21.813  -2.339  0.00  0.00    -0.650 OA
BRANCH  15  17
HETATM   17  O   UNK N   1      30.318  23.002  -1.454  0.00  0.00    -0.776 OA
HETATM   18  H   UNK N   1      30.601  23.583  -0.776  0.00  0.00     0.167 HD
ENDBRANCH  15  17
ENDBRANCH  14  15
ENDBRANCH  13  14
ENDBRANCH  12  13
ENDBRANCH   2  12
TORSDOF 7
ENDMDL
MODEL 5
REMARK VINA RESULT:      -5.2     11.715     13.281
REMARK  7 active torsions:
REMARK  status: ('A' for Active; 'I' for Inactive)
REMARK    1  A    between atoms: O_2  and  C_3 
REMARK    2  A    between atoms: C_8  and  C_9 
REMARK    3  A    between atoms: N_10  and  O_12 
REMARK    4  A    between atoms: O_12  and  C_13 
REMARK    5  A    between atoms: C_13  and  C_14 
REMARK    6  A    between atoms: C_14  and  C_15 
REMARK    7  A    between atoms: C_15  and  O_16 
ROOT
HETATM    1  C   UNK N   1      19.609  16.692  -0.042  0.00  0.00     0.128 C 
HETATM    2  N   UNK N   1      19.899  17.664   0.755  0.00  0.00    -0.277 N 
ATOM      3  HN  UNK N   1      20.047  18.596   0.366  1.00  0.00     0.193 HD
ENDROOT
BRANCH   1   4
HETATM    4  C   UNK N   1      19.556  15.246   0.319  0.00  0.00     0.015 A 
HETATM    5  C   UNK N   1      20.668  14.485   0.783  0.00  0.00     0.079 A 
HETATM    6  C   UNK N   1      20.490  13.120   1.075  0.00  0.00     0.037 A 
HETATM    7  C   UNK N   1      19.252  12.506   0.897  0.00  0.00     0.003 A 
HETATM    8  C   UNK N   1      18.175  13.243   0.411  0.00  0.00     0.001 A 
HETATM    9  C   UNK N   1      18.329  14.600   0.123  0.00  0.00     0.015 A 
BRANCH   5  10
HETATM   10  O   UNK N   1      21.892  15.050   0.907  0.00  0.00    -0.355 OA
HETATM   11  C   UNK N   1      23.068  14.333   0.923  0.00  0.00     0.210 C 
ENDBRANCH   5  10
ENDBRANCH   1   4
BRANCH   2  12
HETATM   12  O   UNK N   1      20.007  17.493   2.054  0.00  0.00    -0.280 OA
BRANCH  12  13
HETATM   13  C   UNK N   1      20.772  18.340   2.810  0.00  0.00     0.211 C 
BRANCH  13  14
HETATM   14  C   UNK N   1      20.186  19.737   2.707  0.00  0.00     0.138 C 
BRANCH  14  15
HETATM   15  C   UNK N   1      21.130  20.661   2.015  0.00  0.00     0.141 C 
HETATM   16  O   UNK N   1      21.329  20.540   0.817  0.00  0.00    -0.650 OA
BRANCH  15  17
HETATM   17  O   UNK N   1      21.782  21.612   2.711  0.00  0.00    -0.776 OA
HETATM   18  H   UNK N   1      21.631  21.705   3.631  0.00  0.00     0.167 HD
ENDBRANCH  15  17
ENDBRANCH  14  15
ENDBRANCH  13  14
ENDBRANCH  12  13
ENDBRANCH   2  12
TORSDOF 7
ENDMDL
MODEL 6
REMARK VINA RESULT:      -5.0     11.321     13.262
REMARK  7 active torsions:
REMARK  status: ('A' for Active; 'I' for Inactive)
REMARK    1  A    between atoms: O_2  and  C_3 
REMARK    2  A    between atoms: C_8  and  C_9 
REMARK    3  A    between atoms: N_10  and  O_12 
REMARK    4  A    between atoms: O_12  and  C_13 
REMARK    5  A    between atoms: C_13  and  C_14 
REMARK    6  A    between atoms: C_14  and  C_15 
REMARK    7  A    between atoms: C_15  and  O_16 
ROOT
HETATM    1  C   UNK N   1      28.741  16.797   6.297  0.00  0.00     0.128 C 
HETATM    2  N   UNK N   1      29.938  16.385   6.545  0.00  0.00    -0.277 N 
ATOM      3  HN  UNK N   1      30.085  15.401   6.775  1.00  0.00     0.193 HD
ENDROOT
BRANCH   1   4
HETATM    4  C   UNK N   1      28.315  18.218   6.141  0.00  0.00     0.015 A 
HETATM    5  C   UNK N   1      27.970  19.083   7.219  0.00  0.00     0.079 A 
HETATM    6  C   UNK N   1      27.567  20.402   6.937  0.00  0.00     0.037 A 
HETATM    7  C   UNK N   1      27.484  20.859   5.623  0.00  0.00     0.003 A 
HETATM    8  C   UNK N   1      27.789  20.002   4.569  0.00  0.00     0.001 A 
HETATM    9  C   UNK N   1      28.199  18.693   4.829  0.00  0.00     0.015 A 
BRANCH   5  10
HETATM   10  O   UNK N   1      27.988  18.639   8.498  0.00  0.00    -0.355 OA
HETATM   11  C   UNK N   1      29.114  18.644   9.294  0.00  0.00     0.210 C 
ENDBRANCH   5  10
ENDBRANCH   1   4
BRANCH   2  12
HETATM   12  O   UNK N   1      30.975  17.193   6.510  0.00  0.00    -0.280 OA
BRANCH  12  13
HETATM   13  C   UNK N   1      32.191  16.792   6.996  0.00  0.00     0.211 C 
BRANCH  13  14
HETATM   14  C   UNK N   1      32.556  17.684   8.169  0.00  0.00     0.138 C 
BRANCH  14  15
HETATM   15  C   UNK N   1      34.030  17.910   8.227  0.00  0.00     0.141 C 
HETATM   16  O   UNK N   1      34.623  17.776   9.284  0.00  0.00    -0.650 OA
BRANCH  15  17
HETATM   17  O   UNK N   1      34.702  18.284   7.122  0.00  0.00    -0.776 OA
HETATM   18  H   UNK N   1      35.588  18.582   7.192  0.00  0.00     0.167 HD
ENDBRANCH  15  17
ENDBRANCH  14  15
ENDBRANCH  13  14
ENDBRANCH  12  13
ENDBRANCH   2  12
TORSDOF 7
ENDMDL
MODEL 7
REMARK VINA RESULT:      -5.0     12.424     13.828
REMARK  7 active torsions:
REMARK  status: ('A' for Active; 'I' for Inactive)
REMARK    1  A    between atoms: O_2  and  C_3 
REMARK    2  A    between atoms: C_8  and  C_9 
REMARK    3  A    between atoms: N_10  and  O_12 
REMARK    4  A    between atoms: O_12  and  C_13 
REMARK    5  A    between atoms: C_13  and  C_14 
REMARK    6  A    between atoms: C_14  and  C_15 
REMARK    7  A    between atoms: C_15  and  O_16 
ROOT
HETATM    1  C   UNK N   1      30.753  17.057   8.738  0.00  0.00     0.128 C 
HETATM    2  N   UNK N   1      31.955  17.446   9.000  0.00  0.00    -0.277 N 
ATOM      3  HN  UNK N   1      32.422  17.083   9.832  1.00  0.00     0.193 HD
ENDROOT
BRANCH   1   4
HETATM    4  C   UNK N   1      29.854  17.626   7.692  0.00  0.00     0.015 A 
HETATM    5  C   UNK N   1      29.939  17.329   6.302  0.00  0.00     0.079 A 
HETATM    6  C   UNK N   1      29.039  17.947   5.413  0.00  0.00     0.037 A 
HETATM    7  C   UNK N   1      28.086  18.853   5.875  0.00  0.00     0.003 A 
HETATM    8  C   UNK N   1      28.027  19.168   7.230  0.00  0.00     0.001 A 
HETATM    9  C   UNK N   1      28.905  18.560   8.128  0.00  0.00     0.015 A 
BRANCH   5  10
HETATM   10  O   UNK N   1      30.895  16.496   5.828  0.00  0.00    -0.355 OA
HETATM   11  C   UNK N   1      30.679  15.164   5.549  0.00  0.00     0.210 C 
ENDBRANCH   5  10
ENDBRANCH   1   4
BRANCH   2  12
HETATM   12  O   UNK N   1      32.597  18.294   8.229  0.00  0.00    -0.280 OA
BRANCH  12  13
HETATM   13  C   UNK N   1      33.965  18.284   8.165  0.00  0.00     0.211 C 
BRANCH  13  14
HETATM   14  C   UNK N   1      34.412  16.923   7.662  0.00  0.00     0.138 C 
BRANCH  14  15
HETATM   15  C   UNK N   1      34.302  16.841   6.177  0.00  0.00     0.141 C 
HETATM   16  O   UNK N   1      34.870  15.945   5.575  0.00  0.00    -0.650 OA
BRANCH  15  17
HETATM   17  O   UNK N   1      33.598  17.766   5.497  0.00  0.00    -0.776 OA
HETATM   18  H   UNK N   1      32.668  17.682   5.419  0.00  0.00     0.167 HD
ENDBRANCH  15  17
ENDBRANCH  14  15
ENDBRANCH  13  14
ENDBRANCH  12  13
ENDBRANCH   2  12
TORSDOF 7
ENDMDL
MODEL 8
REMARK VINA RESULT:      -4.8      9.312     11.704
REMARK  7 active torsions:
REMARK  status: ('A' for Active; 'I' for Inactive)
REMARK    1  A    between atoms: O_2  and  C_3 
REMARK    2  A    between atoms: C_8  and  C_9 
REMARK    3  A    between atoms: N_10  and  O_12 
REMARK    4  A    between atoms: O_12  and  C_13 
REMARK    5  A    between atoms: C_13  and  C_14 
REMARK    6  A    between atoms: C_14  and  C_15 
REMARK    7  A    between atoms: C_15  and  O_16 
ROOT
HETATM    1  C   UNK N   1      25.172  20.271   2.841  0.00  0.00     0.128 C 
HETATM    2  N   UNK N   1      23.911  20.539   2.891  0.00  0.00    -0.277 N 
ATOM      3  HN  UNK N   1      23.537  21.272   2.288  1.00  0.00     0.193 HD
ENDROOT
BRANCH   1   4
HETATM    4  C   UNK N   1      25.919  19.382   3.778  0.00  0.00     0.015 A 
HETATM    5  C   UNK N   1      26.435  19.788   5.042  0.00  0.00     0.079 A 
HETATM    6  C   UNK N   1      27.139  18.855   5.827  0.00  0.00     0.037 A 
HETATM    7  C   UNK N   1      27.351  17.555   5.374  0.00  0.00     0.003 A 
HETATM    8  C   UNK N   1      26.875  17.170   4.123  0.00  0.00     0.001 A 
HETATM    9  C   UNK N   1      26.168  18.078   3.334  0.00  0.00     0.015 A 
BRANCH   5  10
HETATM   10  O   UNK N   1      26.289  21.063   5.474  0.00  0.00    -0.355 OA
HETATM   11  C   UNK N   1      26.646  21.490   6.735  0.00  0.00     0.210 C 
ENDBRANCH   5  10
ENDBRANCH   1   4
BRANCH   2  12
HETATM   12  O   UNK N   1      23.092  19.894   3.692  0.00  0.00    -0.280 OA
BRANCH  12  13
HETATM   13  C   UNK N   1      21.773  19.734   3.362  0.00  0.00     0.211 C 
BRANCH  13  14
HETATM   14  C   UNK N   1      21.423  20.737   2.278  0.00  0.00     0.138 C 
BRANCH  14  15
HETATM   15  C   UNK N   1      20.802  20.058   1.104  0.00  0.00     0.141 C 
HETATM   16  O   UNK N   1      20.502  18.878   1.174  0.00  0.00    -0.650 OA
BRANCH  15  17
HETATM   17  O   UNK N   1      20.594  20.736  -0.040  0.00  0.00    -0.776 OA
HETATM   18  H   UNK N   1      20.127  21.549  -0.025  0.00  0.00     0.167 HD
ENDBRANCH  15  17
ENDBRANCH  14  15
ENDBRANCH  13  14
ENDBRANCH  12  13
ENDBRANCH   2  12
TORSDOF 7
ENDMDL
MODEL 9
REMARK VINA RESULT:      -4.8     16.290     18.269
REMARK  7 active torsions:
REMARK  status: ('A' for Active; 'I' for Inactive)
REMARK    1  A    between atoms: O_2  and  C_3 
REMARK    2  A    between atoms: C_8  and  C_9 
REMARK    3  A    between atoms: N_10  and  O_12 
REMARK    4  A    between atoms: O_12  and  C_13 
REMARK    5  A    between atoms: C_13  and  C_14 
REMARK    6  A    between atoms: C_14  and  C_15 
REMARK    7  A    between atoms: C_15  and  O_16 
ROOT
HETATM    1  C   UNK N   1      21.442  12.656   8.287  0.00  0.00     0.128 C 
HETATM    2  N   UNK N   1      21.234  13.762   7.657  0.00  0.00    -0.277 N 
ATOM      3  HN  UNK N   1      20.683  13.746   6.798  1.00  0.00     0.193 HD
ENDROOT
BRANCH   1   4
HETATM    4  C   UNK N   1      22.377  12.459   9.433  0.00  0.00     0.015 A 
HETATM    5  C   UNK N   1      23.797  12.498   9.335  0.00  0.00     0.079 A 
HETATM    6  C   UNK N   1      24.570  12.280  10.492  0.00  0.00     0.037 A 
HETATM    7  C   UNK N   1      23.963  12.009  11.717  0.00  0.00     0.003 A 
HETATM    8  C   UNK N   1      22.575  11.938  11.803  0.00  0.00     0.001 A 
HETATM    9  C   UNK N   1      21.792  12.159  10.669  0.00  0.00     0.015 A 
BRANCH   5  10
HETATM   10  O   UNK N   1      24.405  12.702   8.143  0.00  0.00    -0.355 OA
HETATM   11  C   UNK N   1      25.170  13.812   7.854  0.00  0.00     0.210 C 
ENDBRANCH   5  10
ENDBRANCH   1   4
BRANCH   2  12
HETATM   12  O   UNK N   1      21.707  14.910   8.089  0.00  0.00    -0.280 OA
BRANCH  12  13
HETATM   13  C   UNK N   1      20.960  16.054   7.997  0.00  0.00     0.211 C 
BRANCH  13  14
HETATM   14  C   UNK N   1      21.074  16.590   6.581  0.00  0.00     0.138 C 
BRANCH  14  15
HETATM   15  C   UNK N   1      21.062  18.081   6.574  0.00  0.00     0.141 C 
HETATM   16  O   UNK N   1      20.687  18.691   7.562  0.00  0.00    -0.650 OA
BRANCH  15  17
HETATM   17  O   UNK N   1      21.442  18.757   5.473  0.00  0.00    -0.776 OA
HETATM   18  H   UNK N   1      20.939  19.489   5.176  0.00  0.00     0.167 HD
ENDBRANCH  15  17
ENDBRANCH  14  15
ENDBRANCH  13  14
ENDBRANCH  12  13
ENDBRANCH   2  12
TORSDOF 7
ENDMDL
