MODEL 1
REMARK VINA RESULT:      -7.3      0.000      0.000
REMARK  4 active torsions:
REMARK  status: ('A' for Active; 'I' for Inactive)
REMARK    1  A    between atoms: C_2  and  C_4 
REMARK    2  A    between atoms: O_3  and  C_2 
REMARK    3  A    between atoms: C_17  and  N_15 
REMARK    4  A    between atoms: C_18  and  C_17 
ROOT
HETATM    1  C   UNK N   1      29.451  17.765   8.282  0.00  0.00     0.065 A 
HETATM    2  C   UNK N   1      30.571  18.069   9.091  0.00  0.00     0.021 A 
HETATM    3  C   UNK N   1      31.888  17.929   8.623  0.00  0.00     0.002 A 
HETATM    4  C   UNK N   1      32.129  17.473   7.326  0.00  0.00     0.014 A 
HETATM    5  C   UNK N   1      31.033  17.181   6.525  0.00  0.00     0.000 A 
HETATM    6  C   UNK N   1      31.011  16.747   5.226  0.00  0.00    -0.023 A 
HETATM    7  C   UNK N   1      32.162  16.447   4.318  0.00  0.00     0.041 C 
HETATM    8  C   UNK N   1      31.680  15.633   3.110  0.00  0.00     0.005 C 
HETATM    9  C   UNK N   1      30.410  16.233   2.496  0.00  0.00     0.006 C 
HETATM   10  C   UNK N   1      29.234  16.257   3.488  0.00  0.00     0.058 C 
HETATM   11  C   UNK N   1      29.685  16.650   4.868  0.00  0.00     0.019 A 
HETATM   12  N   UNK N   1      28.883  16.980   5.915  0.00  0.00    -0.344 N 
HETATM   13  C   UNK N   1      29.720  17.314   6.950  0.00  0.00     0.063 A 
ENDROOT
BRANCH  12  14
HETATM   14  C   UNK N   1      27.421  17.060   5.851  0.00  0.00     0.167 C 
BRANCH  14  15
HETATM   15  C   UNK N   1      26.842  18.189   5.037  0.00  0.00    -0.040 A 
HETATM   16  C   UNK N   1      25.843  17.999   4.069  0.00  0.00     0.009 A 
HETATM   17  C   UNK N   1      25.389  19.079   3.304  0.00  0.00     0.001 A 
HETATM   18  C   UNK N   1      25.923  20.356   3.506  0.00  0.00     0.000 A 
HETATM   19  C   UNK N   1      26.908  20.553   4.477  0.00  0.00     0.001 A 
HETATM   20  C   UNK N   1      27.366  19.473   5.236  0.00  0.00     0.009 A 
ENDBRANCH  14  15
ENDBRANCH  12  14
BRANCH   1  21
HETATM   21  C   UNK N   1      28.118  17.939   8.924  0.00  0.00     0.178 C 
HETATM   22  O   UNK N   1      27.616  17.072   9.613  0.00  0.00    -0.646 OA
BRANCH  21  23
HETATM   23  O   UNK N   1      27.456  19.103   8.769  0.00  0.00    -0.773 OA
HETATM   24  H   UNK N   1      27.058  19.318   7.948  0.00  0.00     0.167 HD
ENDBRANCH  21  23
ENDBRANCH   1  21
TORSDOF 4
ENDMDL
MODEL 2
REMARK VINA RESULT:      -7.1      2.397      4.331
REMARK  4 active torsions:
REMARK  status: ('A' for Active; 'I' for Inactive)
REMARK    1  A    between atoms: C_2  and  C_4 
REMARK    2  A    between atoms: O_3  and  C_2 
REMARK    3  A    between atoms: C_17  and  N_15 
REMARK    4  A    between atoms: C_18  and  C_17 
ROOT
HETATM    1  C   UNK N   1      31.392  16.496   4.419  0.00  0.00     0.065 A 
HETATM    2  C   UNK N   1      32.806  16.532   4.424  0.00  0.00     0.021 A 
HETATM    3  C   UNK N   1      33.537  16.954   5.547  0.00  0.00     0.002 A 
HETATM    4  C   UNK N   1      32.872  17.362   6.705  0.00  0.00     0.014 A 
HETATM    5  C   UNK N   1      31.484  17.321   6.708  0.00  0.00     0.000 A 
HETATM    6  C   UNK N   1      30.618  17.643   7.720  0.00  0.00    -0.023 A 
HETATM    7  C   UNK N   1      30.928  18.148   9.094  0.00  0.00     0.041 C 
HETATM    8  C   UNK N   1      29.663  18.733   9.736  0.00  0.00     0.005 C 
HETATM    9  C   UNK N   1      28.459  17.800   9.560  0.00  0.00     0.006 C 
HETATM   10  C   UNK N   1      28.112  17.560   8.081  0.00  0.00     0.058 C 
HETATM   11  C   UNK N   1      29.351  17.389   7.245  0.00  0.00     0.019 A 
HETATM   12  N   UNK N   1      29.402  16.948   5.960  0.00  0.00    -0.344 N 
HETATM   13  C   UNK N   1      30.731  16.903   5.622  0.00  0.00     0.063 A 
ENDROOT
BRANCH  12  14
HETATM   14  C   UNK N   1      28.239  16.511   5.183  0.00  0.00     0.167 C 
BRANCH  14  15
HETATM   15  C   UNK N   1      27.420  17.593   4.528  0.00  0.00    -0.040 A 
HETATM   16  C   UNK N   1      27.895  18.901   4.336  0.00  0.00     0.009 A 
HETATM   17  C   UNK N   1      27.065  19.877   3.775  0.00  0.00     0.001 A 
HETATM   18  C   UNK N   1      25.759  19.552   3.395  0.00  0.00     0.000 A 
HETATM   19  C   UNK N   1      25.285  18.250   3.571  0.00  0.00     0.001 A 
HETATM   20  C   UNK N   1      26.112  17.277   4.137  0.00  0.00     0.009 A 
ENDBRANCH  14  15
ENDBRANCH  12  14
BRANCH   1  21
HETATM   21  C   UNK N   1      30.757  16.049   3.147  0.00  0.00     0.178 C 
HETATM   22  O   UNK N   1      30.696  14.876   2.834  0.00  0.00    -0.646 OA
BRANCH  21  23
HETATM   23  O   UNK N   1      30.200  16.965   2.329  0.00  0.00    -0.773 OA
HETATM   24  H   UNK N   1      29.295  16.906   2.096  0.00  0.00     0.167 HD
ENDBRANCH  21  23
ENDBRANCH   1  21
TORSDOF 4
ENDMDL
MODEL 3
REMARK VINA RESULT:      -7.0      2.347      5.818
REMARK  4 active torsions:
REMARK  status: ('A' for Active; 'I' for Inactive)
REMARK    1  A    between atoms: C_2  and  C_4 
REMARK    2  A    between atoms: O_3  and  C_2 
REMARK    3  A    between atoms: C_17  and  N_15 
REMARK    4  A    between atoms: C_18  and  C_17 
ROOT
HETATM    1  C   UNK N   1      29.253  17.400   8.370  0.00  0.00     0.065 A 
HETATM    2  C   UNK N   1      27.898  17.118   8.079  0.00  0.00     0.021 A 
HETATM    3  C   UNK N   1      27.469  16.776   6.786  0.00  0.00     0.002 A 
HETATM    4  C   UNK N   1      28.387  16.709   5.736  0.00  0.00     0.014 A 
HETATM    5  C   UNK N   1      29.720  16.976   6.018  0.00  0.00     0.000 A 
HETATM    6  C   UNK N   1      30.798  16.951   5.174  0.00  0.00    -0.023 A 
HETATM    7  C   UNK N   1      30.834  16.650   3.708  0.00  0.00     0.041 C 
HETATM    8  C   UNK N   1      32.169  17.113   3.110  0.00  0.00     0.005 C 
HETATM    9  C   UNK N   1      33.357  16.669   3.971  0.00  0.00     0.006 C 
HETATM   10  C   UNK N   1      33.304  17.254   5.392  0.00  0.00     0.058 C 
HETATM   11  C   UNK N   1      31.904  17.241   5.941  0.00  0.00     0.019 A 
HETATM   12  N   UNK N   1      31.541  17.475   7.231  0.00  0.00    -0.344 N 
HETATM   13  C   UNK N   1      30.180  17.310   7.283  0.00  0.00     0.063 A 
ENDROOT
BRANCH  12  14
HETATM   14  C   UNK N   1      32.480  17.733   8.325  0.00  0.00     0.167 C 
BRANCH  14  15
HETATM   15  C   UNK N   1      33.263  16.549   8.835  0.00  0.00    -0.040 A 
HETATM   16  C   UNK N   1      32.725  15.255   8.916  0.00  0.00     0.009 A 
HETATM   17  C   UNK N   1      33.483  14.209   9.454  0.00  0.00     0.001 A 
HETATM   18  C   UNK N   1      34.784  14.447   9.906  0.00  0.00     0.000 A 
HETATM   19  C   UNK N   1      35.330  15.730   9.816  0.00  0.00     0.001 A 
HETATM   20  C   UNK N   1      34.570  16.775   9.284  0.00  0.00     0.009 A 
ENDBRANCH  14  15
ENDBRANCH  12  14
BRANCH   1  21
HETATM   21  C   UNK N   1      29.551  17.772   9.782  0.00  0.00     0.178 C 
HETATM   22  O   UNK N   1      29.636  18.931  10.140  0.00  0.00    -0.646 OA
BRANCH  21  23
HETATM   23  O   UNK N   1      29.699  16.800  10.705  0.00  0.00    -0.773 OA
HETATM   24  H   UNK N   1      30.495  16.308  10.753  0.00  0.00     0.167 HD
ENDBRANCH  21  23
ENDBRANCH   1  21
TORSDOF 4
ENDMDL
MODEL 4
REMARK VINA RESULT:      -6.8     11.822     14.363
REMARK  4 active torsions:
REMARK  status: ('A' for Active; 'I' for Inactive)
REMARK    1  A    between atoms: C_2  and  C_4 
REMARK    2  A    between atoms: O_3  and  C_2 
REMARK    3  A    between atoms: C_17  and  N_15 
REMARK    4  A    between atoms: C_18  and  C_17 
ROOT
HETATM    1  C   UNK N   1      26.610  22.442  -7.924  0.00  0.00     0.065 A 
HETATM    2  C   UNK N   1      27.067  21.402  -8.767  0.00  0.00     0.021 A 
HETATM    3  C   UNK N   1      28.278  20.731  -8.531  0.00  0.00     0.002 A 
HETATM    4  C   UNK N   1      29.077  21.083  -7.443  0.00  0.00     0.014 A 
HETATM    5  C   UNK N   1      28.629  22.098  -6.607  0.00  0.00     0.000 A 
HETATM    6  C   UNK N   1      29.215  22.601  -5.476  0.00  0.00    -0.023 A 
HETATM    7  C   UNK N   1      30.511  22.210  -4.839  0.00  0.00     0.041 C 
HETATM    8  C   UNK N   1      30.947  23.284  -3.833  0.00  0.00     0.005 C 
HETATM    9  C   UNK N   1      29.789  23.705  -2.921  0.00  0.00     0.006 C 
HETATM   10  C   UNK N   1      28.614  24.311  -3.706  0.00  0.00     0.058 C 
HETATM   11  C   UNK N   1      28.357  23.559  -4.983  0.00  0.00     0.019 A 
HETATM   12  N   UNK N   1      27.271  23.688  -5.791  0.00  0.00    -0.344 N 
HETATM   13  C   UNK N   1      27.436  22.778  -6.804  0.00  0.00     0.063 A 
ENDROOT
BRANCH  12  14
HETATM   14  C   UNK N   1      26.128  24.561  -5.515  0.00  0.00     0.167 C 
BRANCH  14  15
HETATM   15  C   UNK N   1      26.381  26.045  -5.580  0.00  0.00    -0.040 A 
HETATM   16  C   UNK N   1      27.097  26.653  -6.625  0.00  0.00     0.009 A 
HETATM   17  C   UNK N   1      27.351  28.029  -6.598  0.00  0.00     0.001 A 
HETATM   18  C   UNK N   1      26.885  28.807  -5.534  0.00  0.00     0.000 A 
HETATM   19  C   UNK N   1      26.161  28.210  -4.499  0.00  0.00     0.001 A 
HETATM   20  C   UNK N   1      25.913  26.836  -4.523  0.00  0.00     0.009 A 
ENDBRANCH  14  15
ENDBRANCH  12  14
BRANCH   1  21
HETATM   21  C   UNK N   1      25.319  23.077  -8.316  0.00  0.00     0.178 C 
HETATM   22  O   UNK N   1      25.271  24.180  -8.824  0.00  0.00    -0.646 OA
BRANCH  21  23
HETATM   23  O   UNK N   1      24.168  22.398  -8.136  0.00  0.00    -0.773 OA
HETATM   24  H   UNK N   1      24.181  21.511  -7.836  0.00  0.00     0.167 HD
ENDBRANCH  21  23
ENDBRANCH   1  21
TORSDOF 4
ENDMDL
MODEL 5
REMARK VINA RESULT:      -6.7      5.602      8.044
REMARK  4 active torsions:
REMARK  status: ('A' for Active; 'I' for Inactive)
REMARK    1  A    between atoms: C_2  and  C_4 
REMARK    2  A    between atoms: O_3  and  C_2 
REMARK    3  A    between atoms: C_17  and  N_15 
REMARK    4  A    between atoms: C_18  and  C_17 
ROOT
HETATM    1  C   UNK N   1      22.917  20.003   3.061  0.00  0.00     0.065 A 
HETATM    2  C   UNK N   1      24.110  20.709   2.781  0.00  0.00     0.021 A 
HETATM    3  C   UNK N   1      25.365  20.253   3.218  0.00  0.00     0.002 A 
HETATM    4  C   UNK N   1      25.466  19.074   3.957  0.00  0.00     0.014 A 
HETATM    5  C   UNK N   1      24.299  18.372   4.227  0.00  0.00     0.000 A 
HETATM    6  C   UNK N   1      24.143  17.191   4.903  0.00  0.00    -0.023 A 
HETATM    7  C   UNK N   1      25.187  16.341   5.556  0.00  0.00     0.041 C 
HETATM    8  C   UNK N   1      24.526  15.337   6.509  0.00  0.00     0.005 C 
HETATM    9  C   UNK N   1      23.330  14.639   5.852  0.00  0.00     0.006 C 
HETATM   10  C   UNK N   1      22.225  15.627   5.444  0.00  0.00     0.058 C 
HETATM   11  C   UNK N   1      22.801  16.888   4.859  0.00  0.00     0.019 A 
HETATM   12  N   UNK N   1      22.114  17.861   4.203  0.00  0.00    -0.344 N 
HETATM   13  C   UNK N   1      23.044  18.787   3.806  0.00  0.00     0.063 A 
ENDROOT
BRANCH  12  14
HETATM   14  C   UNK N   1      20.679  17.811   3.908  0.00  0.00     0.167 C 
BRANCH  14  15
HETATM   15  C   UNK N   1      20.258  16.939   2.754  0.00  0.00    -0.040 A 
HETATM   16  C   UNK N   1      19.991  15.566   2.891  0.00  0.00     0.009 A 
HETATM   17  C   UNK N   1      19.662  14.797   1.769  0.00  0.00     0.001 A 
HETATM   18  C   UNK N   1      19.589  15.394   0.507  0.00  0.00     0.000 A 
HETATM   19  C   UNK N   1      19.840  16.761   0.367  0.00  0.00     0.001 A 
HETATM   20  C   UNK N   1      20.175  17.527   1.486  0.00  0.00     0.009 A 
ENDBRANCH  14  15
ENDBRANCH  12  14
BRANCH   1  21
HETATM   21  C   UNK N   1      21.660  20.623   2.554  0.00  0.00     0.178 C 
HETATM   22  O   UNK N   1      21.414  20.704   1.366  0.00  0.00    -0.646 OA
BRANCH  21  23
HETATM   23  O   UNK N   1      20.746  21.080   3.434  0.00  0.00    -0.773 OA
HETATM   24  H   UNK N   1      21.017  21.529   4.210  0.00  0.00     0.167 HD
ENDBRANCH  21  23
ENDBRANCH   1  21
TORSDOF 4
ENDMDL
MODEL 6
REMARK VINA RESULT:      -6.7     11.176     13.268
REMARK  4 active torsions:
REMARK  status: ('A' for Active; 'I' for Inactive)
REMARK    1  A    between atoms: C_2  and  C_4 
REMARK    2  A    between atoms: O_3  and  C_2 
REMARK    3  A    between atoms: C_17  and  N_15 
REMARK    4  A    between atoms: C_18  and  C_17 
ROOT
HETATM    1  C   UNK N   1      30.402  23.008  -4.158  0.00  0.00     0.065 A 
HETATM    2  C   UNK N   1      31.516  22.234  -4.558  0.00  0.00     0.021 A 
HETATM    3  C   UNK N   1      31.497  21.448  -5.722  0.00  0.00     0.002 A 
HETATM    4  C   UNK N   1      30.357  21.408  -6.525  0.00  0.00     0.014 A 
HETATM    5  C   UNK N   1      29.263  22.173  -6.141  0.00  0.00     0.000 A 
HETATM    6  C   UNK N   1      28.053  22.317  -6.768  0.00  0.00    -0.023 A 
HETATM    7  C   UNK N   1      27.568  21.672  -8.028  0.00  0.00     0.041 C 
HETATM    8  C   UNK N   1      26.045  21.817  -8.139  0.00  0.00     0.005 C 
HETATM    9  C   UNK N   1      25.591  23.250  -7.836  0.00  0.00     0.006 C 
HETATM   10  C   UNK N   1      25.956  23.691  -6.409  0.00  0.00     0.058 C 
HETATM   11  C   UNK N   1      27.329  23.217  -6.019  0.00  0.00     0.019 A 
HETATM   12  N   UNK N   1      28.040  23.613  -4.930  0.00  0.00    -0.344 N 
HETATM   13  C   UNK N   1      29.248  22.965  -5.003  0.00  0.00     0.063 A 
ENDROOT
BRANCH  12  14
HETATM   14  C   UNK N   1      27.595  24.626  -3.969  0.00  0.00     0.167 C 
BRANCH  14  15
HETATM   15  C   UNK N   1      27.382  26.018  -4.506  0.00  0.00    -0.040 A 
HETATM   16  C   UNK N   1      28.348  26.701  -5.263  0.00  0.00     0.009 A 
HETATM   17  C   UNK N   1      28.113  28.015  -5.683  0.00  0.00     0.001 A 
HETATM   18  C   UNK N   1      26.912  28.652  -5.357  0.00  0.00     0.000 A 
HETATM   19  C   UNK N   1      25.942  27.972  -4.616  0.00  0.00     0.001 A 
HETATM   20  C   UNK N   1      26.179  26.663  -4.192  0.00  0.00     0.009 A 
ENDBRANCH  14  15
ENDBRANCH  12  14
BRANCH   1  21
HETATM   21  C   UNK N   1      30.562  23.770  -2.887  0.00  0.00     0.178 C 
HETATM   22  O   UNK N   1      30.734  24.974  -2.873  0.00  0.00    -0.646 OA
BRANCH  21  23
HETATM   23  O   UNK N   1      30.480  23.117  -1.710  0.00  0.00    -0.773 OA
HETATM   24  H   UNK N   1      31.181  22.567  -1.422  0.00  0.00     0.167 HD
ENDBRANCH  21  23
ENDBRANCH   1  21
TORSDOF 4
ENDMDL
MODEL 7
REMARK VINA RESULT:      -6.5     13.479     16.093
REMARK  4 active torsions:
REMARK  status: ('A' for Active; 'I' for Inactive)
REMARK    1  A    between atoms: C_2  and  C_4 
REMARK    2  A    between atoms: O_3  and  C_2 
REMARK    3  A    between atoms: C_17  and  N_15 
REMARK    4  A    between atoms: C_18  and  C_17 
ROOT
HETATM    1  C   UNK N   1      35.354  12.435  18.311  0.00  0.00     0.065 A 
HETATM    2  C   UNK N   1      35.267  13.528  17.417  0.00  0.00     0.021 A 
HETATM    3  C   UNK N   1      35.337  13.359  16.025  0.00  0.00     0.002 A 
HETATM    4  C   UNK N   1      35.501  12.085  15.479  0.00  0.00     0.014 A 
HETATM    5  C   UNK N   1      35.578  11.008  16.351  0.00  0.00     0.000 A 
HETATM    6  C   UNK N   1      35.713   9.675  16.060  0.00  0.00    -0.023 A 
HETATM    7  C   UNK N   1      35.837   9.016  14.723  0.00  0.00     0.041 C 
HETATM    8  C   UNK N   1      36.349   7.580  14.891  0.00  0.00     0.005 C 
HETATM    9  C   UNK N   1      35.594   6.837  15.999  0.00  0.00     0.006 C 
HETATM   10  C   UNK N   1      35.756   7.509  17.373  0.00  0.00     0.058 C 
HETATM   11  C   UNK N   1      35.692   9.008  17.264  0.00  0.00     0.019 A 
HETATM   12  N   UNK N   1      35.579   9.888  18.295  0.00  0.00    -0.344 N 
HETATM   13  C   UNK N   1      35.506  11.135  17.730  0.00  0.00     0.063 A 
ENDROOT
BRANCH  12  14
HETATM   14  C   UNK N   1      35.446   9.505  19.703  0.00  0.00     0.167 C 
BRANCH  14  15
HETATM   15  C   UNK N   1      34.045   9.437  20.255  0.00  0.00    -0.040 A 
HETATM   16  C   UNK N   1      33.673  10.032  21.472  0.00  0.00     0.009 A 
HETATM   17  C   UNK N   1      32.370   9.882  21.960  0.00  0.00     0.001 A 
HETATM   18  C   UNK N   1      31.430   9.145  21.233  0.00  0.00     0.000 A 
HETATM   19  C   UNK N   1      31.791   8.562  20.016  0.00  0.00     0.001 A 
HETATM   20  C   UNK N   1      33.093   8.707  19.532  0.00  0.00     0.009 A 
ENDBRANCH  14  15
ENDBRANCH  12  14
BRANCH   1  21
HETATM   21  C   UNK N   1      35.289  12.773  19.761  0.00  0.00     0.178 C 
HETATM   22  O   UNK N   1      34.363  13.399  20.237  0.00  0.00    -0.646 OA
BRANCH  21  23
HETATM   23  O   UNK N   1      36.269  12.345  20.583  0.00  0.00    -0.773 OA
HETATM   24  H   UNK N   1      36.550  12.874  21.302  0.00  0.00     0.167 HD
ENDBRANCH  21  23
ENDBRANCH   1  21
TORSDOF 4
ENDMDL
MODEL 8
REMARK VINA RESULT:      -6.4     11.661     14.477
REMARK  4 active torsions:
REMARK  status: ('A' for Active; 'I' for Inactive)
REMARK    1  A    between atoms: C_2  and  C_4 
REMARK    2  A    between atoms: O_3  and  C_2 
REMARK    3  A    between atoms: C_17  and  N_15 
REMARK    4  A    between atoms: C_18  and  C_17 
ROOT
HETATM    1  C   UNK N   1      35.919  13.143  16.550  0.00  0.00     0.065 A 
HETATM    2  C   UNK N   1      35.596  14.065  17.573  0.00  0.00     0.021 A 
HETATM    3  C   UNK N   1      35.109  13.649  18.824  0.00  0.00     0.002 A 
HETATM    4  C   UNK N   1      34.924  12.292  19.090  0.00  0.00     0.014 A 
HETATM    5  C   UNK N   1      35.247  11.382  18.092  0.00  0.00     0.000 A 
HETATM    6  C   UNK N   1      35.177  10.014  18.121  0.00  0.00    -0.023 A 
HETATM    7  C   UNK N   1      34.712   9.123  19.230  0.00  0.00     0.041 C 
HETATM    8  C   UNK N   1      34.442   7.712  18.692  0.00  0.00     0.005 C 
HETATM    9  C   UNK N   1      35.587   7.221  17.798  0.00  0.00     0.006 C 
HETATM   10  C   UNK N   1      35.793   8.114  16.563  0.00  0.00     0.058 C 
HETATM   11  C   UNK N   1      35.652   9.572  16.907  0.00  0.00     0.019 A 
HETATM   12  N   UNK N   1      35.986  10.624  16.114  0.00  0.00    -0.344 N 
HETATM   13  C   UNK N   1      35.737  11.755  16.849  0.00  0.00     0.063 A 
ENDROOT
BRANCH  12  14
HETATM   14  C   UNK N   1      36.599  10.505  14.788  0.00  0.00     0.167 C 
BRANCH  14  15
HETATM   15  C   UNK N   1      35.702  10.038  13.670  0.00  0.00    -0.040 A 
HETATM   16  C   UNK N   1      34.462  10.634  13.386  0.00  0.00     0.009 A 
HETATM   17  C   UNK N   1      33.648  10.116  12.373  0.00  0.00     0.001 A 
HETATM   18  C   UNK N   1      34.069   9.007  11.632  0.00  0.00     0.000 A 
HETATM   19  C   UNK N   1      35.307   8.419  11.901  0.00  0.00     0.001 A 
HETATM   20  C   UNK N   1      36.117   8.932  12.917  0.00  0.00     0.009 A 
ENDBRANCH  14  15
ENDBRANCH  12  14
BRANCH   1  21
HETATM   21  C   UNK N   1      36.400  13.734  15.269  0.00  0.00     0.178 C 
HETATM   22  O   UNK N   1      35.689  13.812  14.287  0.00  0.00    -0.646 OA
BRANCH  21  23
HETATM   23  O   UNK N   1      37.652  14.232  15.201  0.00  0.00    -0.773 OA
HETATM   24  H   UNK N   1      37.996  14.540  14.386  0.00  0.00     0.167 HD
ENDBRANCH  21  23
ENDBRANCH   1  21
TORSDOF 4
ENDMDL
MODEL 9
REMARK VINA RESULT:      -6.3      4.622      7.122
REMARK  4 active torsions:
REMARK  status: ('A' for Active; 'I' for Inactive)
REMARK    1  A    between atoms: C_2  and  C_4 
REMARK    2  A    between atoms: O_3  and  C_2 
REMARK    3  A    between atoms: C_17  and  N_15 
REMARK    4  A    between atoms: C_18  and  C_17 
ROOT
HETATM    1  C   UNK N   1      22.927  19.305   3.540  0.00  0.00     0.065 A 
HETATM    2  C   UNK N   1      23.542  20.430   2.944  0.00  0.00     0.021 A 
HETATM    3  C   UNK N   1      24.930  20.642   3.009  0.00  0.00     0.002 A 
HETATM    4  C   UNK N   1      25.748  19.732   3.680  0.00  0.00     0.014 A 
HETATM    5  C   UNK N   1      25.150  18.621   4.260  0.00  0.00     0.000 A 
HETATM    6  C   UNK N   1      25.736  17.588   4.942  0.00  0.00    -0.023 A 
HETATM    7  C   UNK N   1      27.182  17.382   5.271  0.00  0.00     0.041 C 
HETATM    8  C   UNK N   1      27.325  16.314   6.362  0.00  0.00     0.005 C 
HETATM    9  C   UNK N   1      26.467  15.080   6.059  0.00  0.00     0.006 C 
HETATM   10  C   UNK N   1      24.968  15.411   5.984  0.00  0.00     0.058 C 
HETATM   11  C   UNK N   1      24.725  16.714   5.273  0.00  0.00     0.019 A 
HETATM   12  N   UNK N   1      23.526  17.188   4.843  0.00  0.00    -0.344 N 
HETATM   13  C   UNK N   1      23.786  18.376   4.209  0.00  0.00     0.063 A 
ENDROOT
BRANCH  12  14
HETATM   14  C   UNK N   1      22.256  16.466   4.960  0.00  0.00     0.167 C 
BRANCH  14  15
HETATM   15  C   UNK N   1      21.604  16.464   6.319  0.00  0.00    -0.040 A 
HETATM   16  C   UNK N   1      21.589  15.337   7.158  0.00  0.00     0.009 A 
HETATM   17  C   UNK N   1      20.915  15.381   8.384  0.00  0.00     0.001 A 
HETATM   18  C   UNK N   1      20.258  16.549   8.782  0.00  0.00     0.000 A 
HETATM   19  C   UNK N   1      20.281  17.676   7.958  0.00  0.00     0.001 A 
HETATM   20  C   UNK N   1      20.949  17.631   6.731  0.00  0.00     0.009 A 
ENDBRANCH  14  15
ENDBRANCH  12  14
BRANCH   1  21
HETATM   21  C   UNK N   1      21.444  19.229   3.409  0.00  0.00     0.178 C 
HETATM   22  O   UNK N   1      20.902  18.460   2.639  0.00  0.00    -0.646 OA
BRANCH  21  23
HETATM   23  O   UNK N   1      20.671  20.011   4.190  0.00  0.00    -0.773 OA
HETATM   24  H   UNK N   1      21.022  20.404   4.964  0.00  0.00     0.167 HD
ENDBRANCH  21  23
ENDBRANCH   1  21
TORSDOF 4
ENDMDL
