REMARK  4 active torsions:
REMARK  status: ('A' for Active; 'I' for Inactive)
REMARK    1  A    between atoms: C_2  and  C_4 
REMARK    2  A    between atoms: O_3  and  C_2 
REMARK    3  A    between atoms: C_17  and  N_15 
REMARK    4  A    between atoms: C_18  and  C_17 
ROOT
HETATM    1  C   UNK N   1      -2.768   0.002   0.046  0.00  0.00     0.065 A 
HETATM    2  C   UNK N   1      -3.703   0.990   0.433  0.00  0.00     0.021 A 
HETATM    3  C   UNK N   1      -3.327   2.325   0.656  0.00  0.00     0.002 A 
HETATM    4  C   UNK N   1      -1.996   2.715   0.503  0.00  0.00     0.014 A 
HETATM    5  C   UNK N   1      -1.075   1.751   0.115  0.00  0.00     0.000 A 
HETATM    6  C   UNK N   1       0.267   1.891  -0.122  0.00  0.00    -0.023 A 
HETATM    7  C   UNK N   1       1.116   3.118  -0.007  0.00  0.00     0.041 C 
HETATM    8  C   UNK N   1       2.600   2.730   0.011  0.00  0.00     0.005 C 
HETATM    9  C   UNK N   1       2.932   1.719  -1.093  0.00  0.00     0.006 C 
HETATM   10  C   UNK N   1       2.148   0.405  -0.941  0.00  0.00     0.058 C 
HETATM   11  C   UNK N   1       0.724   0.657  -0.527  0.00  0.00     0.019 A 
HETATM   12  N   UNK N   1      -0.287  -0.252  -0.519  0.00  0.00    -0.344 N 
HETATM   13  C   UNK N   1      -1.411   0.426  -0.121  0.00  0.00     0.063 A 
ENDROOT
BRANCH  12  14
HETATM   14  C   UNK N   1      -0.161  -1.640  -0.972  0.00  0.00     0.167 C 
BRANCH  14  15
HETATM   15  C   UNK N   1       0.856  -2.493  -0.258  0.00  0.00    -0.040 A 
HETATM   16  C   UNK N   1       1.639  -2.018   0.807  0.00  0.00     0.009 A 
HETATM   17  C   UNK N   1       2.609  -2.841   1.390  0.00  0.00     0.001 A 
HETATM   18  C   UNK N   1       2.798  -4.144   0.919  0.00  0.00     0.000 A 
HETATM   19  C   UNK N   1       2.013  -4.626  -0.131  0.00  0.00     0.001 A 
HETATM   20  C   UNK N   1       1.049  -3.802  -0.717  0.00  0.00     0.009 A 
ENDBRANCH  14  15
ENDBRANCH  12  14
BRANCH   1  21
HETATM   21  C   UNK N   1      -3.311  -1.375  -0.129  0.00  0.00     0.178 C 
HETATM   22  O   UNK N   1      -2.595  -2.323  -0.386  0.00  0.00    -0.646 OA
BRANCH  21  23
HETATM   23  O   UNK N   1      -4.632  -1.590   0.035  0.00  0.00    -0.773 OA
HETATM   24  H   UNK N   1      -5.220  -0.870   0.149  0.00  0.00     0.167 HD
ENDBRANCH  21  23
ENDBRANCH   1  21
TORSDOF 4
