MODEL 1
REMARK VINA RESULT:      -6.9      0.000      0.000
REMARK  5 active torsions:
REMARK  status: ('A' for Active; 'I' for Inactive)
REMARK    1  A    between atoms: N_1  and  C_2 
REMARK    2  A    between atoms: C_8  and  N_9 
REMARK    3  A    between atoms: N_9  and  C_10 
REMARK    4  A    between atoms: C_10  and  C_11 
REMARK    5  A    between atoms: C_15  and  C_17 
ROOT
HETATM    1  C   UNK N   1      35.604  11.616  18.934  0.00  0.00    -0.040 A 
HETATM    2  C   UNK N   1      35.427  12.942  19.339  0.00  0.00     0.009 A 
HETATM    3  C   UNK N   1      35.068  13.917  18.403  0.00  0.00     0.001 A 
HETATM    4  C   UNK N   1      34.891  13.567  17.059  0.00  0.00     0.012 A 
HETATM    5  C   UNK N   1      35.054  12.233  16.647  0.00  0.00    -0.024 A 
HETATM    6  C   UNK N   1      35.417  11.268  17.595  0.00  0.00     0.021 A 
ENDROOT
BRANCH   1   7
HETATM    7  C   UNK N   1      36.066  10.588  19.907  0.00  0.00     0.158 C 
BRANCH   7   8
HETATM    8  N   UNK N   1      35.140  10.464  21.007  0.00  0.00    -0.383 N 
HETATM    9  H   UNK N   1      35.415  10.828  21.880  0.00  0.00     0.160 HD
BRANCH   8  10
HETATM   10  C   UNK N   1      33.860   9.854  20.920  0.00  0.00     0.072 A 
HETATM   11  C   UNK N   1      32.783  10.167  21.785  0.00  0.00     0.125 A 
HETATM   12  N   UNK N   1      31.596   9.518  21.648  0.00  0.00    -0.351 N 
HETATM   13  C   UNK N   1      31.405   8.564  20.697  0.00  0.00     0.090 A 
ATOM     14  HN  UNK N   1      30.828   9.753  22.276  1.00  0.00     0.166 HD
HETATM   15  C   UNK N   1      32.436   8.233  19.822  0.00  0.00     0.019 A 
HETATM   16  C   UNK N   1      33.662   8.882  19.935  0.00  0.00     0.034 A 
BRANCH  11  17
HETATM   17  N   UNK N   1      32.909  11.151  22.789  0.00  0.00    -0.384 N 
HETATM   18  H   UNK N   1      32.804  12.106  22.568  0.00  0.00     0.157 HD
HETATM   19  H   UNK N   1      33.102  10.883  23.716  0.00  0.00     0.157 HD
ENDBRANCH  11  17
ENDBRANCH   8  10
ENDBRANCH   7   8
ENDBRANCH   1   7
BRANCH   5  20
HETATM   20  C   UNK N   1      34.864  11.837  15.234  0.00  0.00    -0.011 A 
HETATM   21  C   UNK N   1      35.497  12.555  14.207  0.00  0.00     0.099 A 
HETATM   22  N   UNK N   1      35.323  12.197  12.907  0.00  0.00    -0.374 N 
HETATM   23  C   UNK N   1      34.527  11.150  12.561  0.00  0.00     0.087 A 
ATOM     24  HN  UNK N   1      35.801  12.724  12.176  1.00  0.00     0.164 HD
HETATM   25  C   UNK N   1      33.873  10.411  13.547  0.00  0.00     0.018 A 
HETATM   26  C   UNK N   1      34.048  10.753  14.889  0.00  0.00     0.015 A 
ENDBRANCH   5  20
TORSDOF 5
ENDMDL
MODEL 2
REMARK VINA RESULT:      -6.9      9.757     14.370
REMARK  5 active torsions:
REMARK  status: ('A' for Active; 'I' for Inactive)
REMARK    1  A    between atoms: N_1  and  C_2 
REMARK    2  A    between atoms: C_8  and  N_9 
REMARK    3  A    between atoms: N_9  and  C_10 
REMARK    4  A    between atoms: C_10  and  C_11 
REMARK    5  A    between atoms: C_15  and  C_17 
ROOT
HETATM    1  C   UNK N   1      30.962  16.567   5.795  0.00  0.00    -0.040 A 
HETATM    2  C   UNK N   1      31.703  17.246   4.825  0.00  0.00     0.009 A 
HETATM    3  C   UNK N   1      33.031  17.602   5.082  0.00  0.00     0.001 A 
HETATM    4  C   UNK N   1      33.617  17.281   6.313  0.00  0.00     0.012 A 
HETATM    5  C   UNK N   1      32.881  16.587   7.287  0.00  0.00    -0.024 A 
HETATM    6  C   UNK N   1      31.552  16.241   7.018  0.00  0.00     0.021 A 
ENDROOT
BRANCH   1   7
HETATM    7  C   UNK N   1      29.524  16.258   5.562  0.00  0.00     0.158 C 
BRANCH   7   8
HETATM    8  N   UNK N   1      28.679  17.038   6.434  0.00  0.00    -0.383 N 
HETATM    9  H   UNK N   1      28.395  16.628   7.283  0.00  0.00     0.160 HD
BRANCH   8  10
HETATM   10  C   UNK N   1      28.227  18.356   6.153  0.00  0.00     0.072 A 
HETATM   11  C   UNK N   1      27.764  19.253   7.147  0.00  0.00     0.125 A 
HETATM   12  N   UNK N   1      27.327  20.489   6.789  0.00  0.00    -0.351 N 
HETATM   13  C   UNK N   1      27.315  20.900   5.492  0.00  0.00     0.090 A 
ATOM     14  HN  UNK N   1      26.997  21.127   7.513  1.00  0.00     0.166 HD
HETATM   15  C   UNK N   1      27.769  20.050   4.486  0.00  0.00     0.019 A 
HETATM   16  C   UNK N   1      28.227  18.780   4.821  0.00  0.00     0.034 A 
BRANCH  11  17
HETATM   17  N   UNK N   1      27.755  18.896   8.512  0.00  0.00    -0.384 N 
HETATM   18  H   UNK N   1      28.046  19.541   9.198  0.00  0.00     0.157 HD
HETATM   19  H   UNK N   1      27.457  17.998   8.781  0.00  0.00     0.157 HD
ENDBRANCH  11  17
ENDBRANCH   8  10
ENDBRANCH   7   8
ENDBRANCH   1   7
BRANCH   5  20
HETATM   20  C   UNK N   1      33.481  16.229   8.592  0.00  0.00    -0.011 A 
HETATM   21  C   UNK N   1      32.899  15.230   9.388  0.00  0.00     0.099 A 
HETATM   22  N   UNK N   1      33.445  14.899  10.588  0.00  0.00    -0.374 N 
HETATM   23  C   UNK N   1      34.555  15.528  11.060  0.00  0.00     0.087 A 
ATOM     24  HN  UNK N   1      33.014  14.163  11.147  1.00  0.00     0.164 HD
HETATM   25  C   UNK N   1      35.165  16.532  10.306  0.00  0.00     0.018 A 
HETATM   26  C   UNK N   1      34.629  16.878   9.064  0.00  0.00     0.015 A 
ENDBRANCH   5  20
TORSDOF 5
ENDMDL
MODEL 3
REMARK VINA RESULT:      -6.7     14.336     17.854
REMARK  5 active torsions:
REMARK  status: ('A' for Active; 'I' for Inactive)
REMARK    1  A    between atoms: N_1  and  C_2 
REMARK    2  A    between atoms: C_8  and  N_9 
REMARK    3  A    between atoms: N_9  and  C_10 
REMARK    4  A    between atoms: C_10  and  C_11 
REMARK    5  A    between atoms: C_15  and  C_17 
ROOT
HETATM    1  C   UNK N   1      26.239  18.388   4.401  0.00  0.00    -0.040 A 
HETATM    2  C   UNK N   1      27.033  19.427   3.908  0.00  0.00     0.009 A 
HETATM    3  C   UNK N   1      26.442  20.495   3.226  0.00  0.00     0.001 A 
HETATM    4  C   UNK N   1      25.056  20.522   3.032  0.00  0.00     0.012 A 
HETATM    5  C   UNK N   1      24.250  19.487   3.536  0.00  0.00    -0.024 A 
HETATM    6  C   UNK N   1      24.856  18.422   4.214  0.00  0.00     0.021 A 
ENDROOT
BRANCH   1   7
HETATM    7  C   UNK N   1      26.868  17.207   5.056  0.00  0.00     0.158 C 
BRANCH   7   8
HETATM    8  N   UNK N   1      27.121  17.464   6.453  0.00  0.00    -0.383 N 
HETATM    9  H   UNK N   1      26.346  17.638   7.034  0.00  0.00     0.160 HD
BRANCH   8  10
HETATM   10  C   UNK N   1      28.411  17.483   7.049  0.00  0.00     0.072 A 
HETATM   11  C   UNK N   1      28.670  18.013   8.337  0.00  0.00     0.125 A 
HETATM   12  N   UNK N   1      29.940  18.014   8.823  0.00  0.00    -0.351 N 
HETATM   13  C   UNK N   1      30.984  17.519   8.106  0.00  0.00     0.090 A 
ATOM     14  HN  UNK N   1      30.113  18.396   9.752  1.00  0.00     0.166 HD
HETATM   15  C   UNK N   1      30.770  16.982   6.838  0.00  0.00     0.019 A 
HETATM   16  C   UNK N   1      29.481  16.964   6.315  0.00  0.00     0.034 A 
BRANCH  11  17
HETATM   17  N   UNK N   1      27.633  18.535   9.139  0.00  0.00    -0.384 N 
HETATM   18  H   UNK N   1      26.802  18.025   9.275  0.00  0.00     0.157 HD
HETATM   19  H   UNK N   1      27.742  19.415   9.567  0.00  0.00     0.157 HD
ENDBRANCH  11  17
ENDBRANCH   8  10
ENDBRANCH   7   8
ENDBRANCH   1   7
BRANCH   5  20
HETATM   20  C   UNK N   1      22.782  19.498   3.351  0.00  0.00    -0.011 A 
HETATM   21  C   UNK N   1      22.163  20.555   2.666  0.00  0.00     0.099 A 
HETATM   22  N   UNK N   1      20.815  20.571   2.495  0.00  0.00    -0.374 N 
HETATM   23  C   UNK N   1      20.026  19.580   2.990  0.00  0.00     0.087 A 
ATOM     24  HN  UNK N   1      20.385  21.343   1.984  1.00  0.00     0.164 HD
HETATM   25  C   UNK N   1      20.596  18.511   3.684  0.00  0.00     0.018 A 
HETATM   26  C   UNK N   1      21.980  18.468   3.859  0.00  0.00     0.015 A 
ENDBRANCH   5  20
TORSDOF 5
ENDMDL
MODEL 4
REMARK VINA RESULT:      -6.7      9.820     13.653
REMARK  5 active torsions:
REMARK  status: ('A' for Active; 'I' for Inactive)
REMARK    1  A    between atoms: N_1  and  C_2 
REMARK    2  A    between atoms: C_8  and  N_9 
REMARK    3  A    between atoms: N_9  and  C_10 
REMARK    4  A    between atoms: C_10  and  C_11 
REMARK    5  A    between atoms: C_15  and  C_17 
ROOT
HETATM    1  C   UNK N   1      30.373  16.852   7.866  0.00  0.00    -0.040 A 
HETATM    2  C   UNK N   1      30.069  17.111   9.205  0.00  0.00     0.009 A 
HETATM    3  C   UNK N   1      29.070  18.034   9.528  0.00  0.00     0.001 A 
HETATM    4  C   UNK N   1      28.377  18.703   8.512  0.00  0.00     0.012 A 
HETATM    5  C   UNK N   1      28.669  18.438   7.164  0.00  0.00    -0.024 A 
HETATM    6  C   UNK N   1      29.674  17.514   6.854  0.00  0.00     0.021 A 
ENDROOT
BRANCH   1   7
HETATM    7  C   UNK N   1      31.490  15.933   7.513  0.00  0.00     0.158 C 
BRANCH   7   8
HETATM    8  N   UNK N   1      32.768  16.579   7.689  0.00  0.00    -0.383 N 
HETATM    9  H   UNK N   1      33.091  17.161   6.963  0.00  0.00     0.160 HD
BRANCH   8  10
HETATM   10  C   UNK N   1      33.593  16.436   8.837  0.00  0.00     0.072 A 
HETATM   11  C   UNK N   1      34.575  17.384   9.219  0.00  0.00     0.125 A 
HETATM   12  N   UNK N   1      35.340  17.157  10.319  0.00  0.00    -0.351 N 
HETATM   13  C   UNK N   1      35.195  16.036  11.076  0.00  0.00     0.090 A 
ATOM     14  HN  UNK N   1      36.042  17.847  10.585  1.00  0.00     0.166 HD
HETATM   15  C   UNK N   1      34.236  15.083  10.740  0.00  0.00     0.019 A 
HETATM   16  C   UNK N   1      33.436  15.288   9.620  0.00  0.00     0.034 A 
BRANCH  11  17
HETATM   17  N   UNK N   1      34.774  18.572   8.485  0.00  0.00    -0.384 N 
HETATM   18  H   UNK N   1      35.133  18.538   7.568  0.00  0.00     0.157 HD
HETATM   19  H   UNK N   1      34.552  19.441   8.891  0.00  0.00     0.157 HD
ENDBRANCH  11  17
ENDBRANCH   8  10
ENDBRANCH   7   8
ENDBRANCH   1   7
BRANCH   5  20
HETATM   20  C   UNK N   1      27.944  19.125   6.072  0.00  0.00    -0.011 A 
HETATM   21  C   UNK N   1      27.509  20.450   6.236  0.00  0.00     0.099 A 
HETATM   22  N   UNK N   1      26.842  21.086   5.237  0.00  0.00    -0.374 N 
HETATM   23  C   UNK N   1      26.563  20.462   4.062  0.00  0.00     0.087 A 
ATOM     24  HN  UNK N   1      26.544  22.052   5.372  1.00  0.00     0.164 HD
HETATM   25  C   UNK N   1      26.970  19.143   3.855  0.00  0.00     0.018 A 
HETATM   26  C   UNK N   1      27.669  18.476   4.863  0.00  0.00     0.015 A 
ENDBRANCH   5  20
TORSDOF 5
ENDMDL
MODEL 5
REMARK VINA RESULT:      -6.7      2.667      8.168
REMARK  5 active torsions:
REMARK  status: ('A' for Active; 'I' for Inactive)
REMARK    1  A    between atoms: N_1  and  C_2 
REMARK    2  A    between atoms: C_8  and  N_9 
REMARK    3  A    between atoms: N_9  and  C_10 
REMARK    4  A    between atoms: C_10  and  C_11 
REMARK    5  A    between atoms: C_15  and  C_17 
ROOT
HETATM    1  C   UNK N   1      36.173  11.259  13.230  0.00  0.00    -0.040 A 
HETATM    2  C   UNK N   1      35.017  10.674  12.705  0.00  0.00     0.009 A 
HETATM    3  C   UNK N   1      33.901  10.476  13.525  0.00  0.00     0.001 A 
HETATM    4  C   UNK N   1      33.942  10.858  14.871  0.00  0.00     0.012 A 
HETATM    5  C   UNK N   1      35.097  11.459  15.401  0.00  0.00    -0.024 A 
HETATM    6  C   UNK N   1      36.208  11.648  14.570  0.00  0.00     0.021 A 
ENDROOT
BRANCH   1   7
HETATM    7  C   UNK N   1      37.392  11.399  12.387  0.00  0.00     0.158 C 
BRANCH   7   8
HETATM    8  N   UNK N   1      37.646  12.783  12.069  0.00  0.00    -0.383 N 
HETATM    9  H   UNK N   1      38.533  13.148  12.290  0.00  0.00     0.160 HD
BRANCH   8  10
HETATM   10  C   UNK N   1      36.706  13.656  11.457  0.00  0.00     0.072 A 
HETATM   11  C   UNK N   1      36.118  14.761  12.120  0.00  0.00     0.125 A 
HETATM   12  N   UNK N   1      35.207  15.532  11.468  0.00  0.00    -0.351 N 
HETATM   13  C   UNK N   1      34.834  15.274  10.186  0.00  0.00     0.090 A 
ATOM     14  HN  UNK N   1      34.792  16.326  11.955  1.00  0.00     0.166 HD
HETATM   15  C   UNK N   1      35.394  14.202   9.497  0.00  0.00     0.019 A 
HETATM   16  C   UNK N   1      36.332  13.396  10.136  0.00  0.00     0.034 A 
BRANCH  11  17
HETATM   17  N   UNK N   1      36.464  15.091  13.447  0.00  0.00    -0.384 N 
HETATM   18  H   UNK N   1      35.840  14.907  14.187  0.00  0.00     0.157 HD
HETATM   19  H   UNK N   1      37.336  15.509  13.636  0.00  0.00     0.157 HD
ENDBRANCH  11  17
ENDBRANCH   8  10
ENDBRANCH   7   8
ENDBRANCH   1   7
BRANCH   5  20
HETATM   20  C   UNK N   1      35.161  11.879  16.818  0.00  0.00    -0.011 A 
HETATM   21  C   UNK N   1      35.230  10.918  17.839  0.00  0.00     0.099 A 
HETATM   22  N   UNK N   1      35.288  11.299  19.143  0.00  0.00    -0.374 N 
HETATM   23  C   UNK N   1      35.266  12.611  19.499  0.00  0.00     0.087 A 
ATOM     24  HN  UNK N   1      35.349  10.585  19.869  1.00  0.00     0.164 HD
HETATM   25  C   UNK N   1      35.193  13.602  18.519  0.00  0.00     0.018 A 
HETATM   26  C   UNK N   1      35.146  13.233  17.173  0.00  0.00     0.015 A 
ENDBRANCH   5  20
TORSDOF 5
ENDMDL
MODEL 6
REMARK VINA RESULT:      -6.6      3.244      9.038
REMARK  5 active torsions:
REMARK  status: ('A' for Active; 'I' for Inactive)
REMARK    1  A    between atoms: N_1  and  C_2 
REMARK    2  A    between atoms: C_8  and  N_9 
REMARK    3  A    between atoms: N_9  and  C_10 
REMARK    4  A    between atoms: C_10  and  C_11 
REMARK    5  A    between atoms: C_15  and  C_17 
ROOT
HETATM    1  C   UNK N   1      35.146  12.801  13.464  0.00  0.00    -0.040 A 
HETATM    2  C   UNK N   1      34.510  11.674  12.938  0.00  0.00     0.009 A 
HETATM    3  C   UNK N   1      34.051  10.667  13.794  0.00  0.00     0.001 A 
HETATM    4  C   UNK N   1      34.233  10.786  15.177  0.00  0.00     0.012 A 
HETATM    5  C   UNK N   1      34.859  11.923  15.713  0.00  0.00    -0.024 A 
HETATM    6  C   UNK N   1      35.317  12.922  14.845  0.00  0.00     0.021 A 
ENDROOT
BRANCH   1   7
HETATM    7  C   UNK N   1      35.709  13.838  12.557  0.00  0.00     0.158 C 
BRANCH   7   8
HETATM    8  N   UNK N   1      34.667  14.483  11.795  0.00  0.00    -0.383 N 
HETATM    9  H   UNK N   1      33.879  14.812  12.285  0.00  0.00     0.160 HD
BRANCH   8  10
HETATM   10  C   UNK N   1      34.697  14.676  10.388  0.00  0.00     0.072 A 
HETATM   11  C   UNK N   1      34.827  15.947   9.775  0.00  0.00     0.125 A 
HETATM   12  N   UNK N   1      34.823  16.045   8.419  0.00  0.00    -0.351 N 
HETATM   13  C   UNK N   1      34.694  14.952   7.619  0.00  0.00     0.090 A 
ATOM     14  HN  UNK N   1      34.919  16.965   7.990  1.00  0.00     0.166 HD
HETATM   15  C   UNK N   1      34.572  13.685   8.182  0.00  0.00     0.019 A 
HETATM   16  C   UNK N   1      34.576  13.550   9.568  0.00  0.00     0.034 A 
BRANCH  11  17
HETATM   17  N   UNK N   1      34.972  17.122  10.543  0.00  0.00    -0.384 N 
HETATM   18  H   UNK N   1      35.839  17.345  10.954  0.00  0.00     0.157 HD
HETATM   19  H   UNK N   1      34.202  17.723  10.668  0.00  0.00     0.157 HD
ENDBRANCH  11  17
ENDBRANCH   8  10
ENDBRANCH   7   8
ENDBRANCH   1   7
BRANCH   5  20
HETATM   20  C   UNK N   1      35.054  12.076  17.172  0.00  0.00    -0.011 A 
HETATM   21  C   UNK N   1      35.065  13.353  17.755  0.00  0.00     0.099 A 
HETATM   22  N   UNK N   1      35.246  13.499  19.094  0.00  0.00    -0.374 N 
HETATM   23  C   UNK N   1      35.435  12.424  19.905  0.00  0.00     0.087 A 
ATOM     24  HN  UNK N   1      35.240  14.435  19.500  1.00  0.00     0.164 HD
HETATM   25  C   UNK N   1      35.437  11.135  19.370  0.00  0.00     0.018 A 
HETATM   26  C   UNK N   1      35.239  10.961  17.999  0.00  0.00     0.015 A 
ENDBRANCH   5  20
TORSDOF 5
ENDMDL
MODEL 7
REMARK VINA RESULT:      -6.6     23.971     27.686
REMARK  5 active torsions:
REMARK  status: ('A' for Active; 'I' for Inactive)
REMARK    1  A    between atoms: N_1  and  C_2 
REMARK    2  A    between atoms: C_8  and  N_9 
REMARK    3  A    between atoms: N_9  and  C_10 
REMARK    4  A    between atoms: C_10  and  C_11 
REMARK    5  A    between atoms: C_15  and  C_17 
ROOT
HETATM    1  C   UNK N   1      27.412  22.716  -7.195  0.00  0.00    -0.040 A 
HETATM    2  C   UNK N   1      27.433  21.726  -8.180  0.00  0.00     0.009 A 
HETATM    3  C   UNK N   1      28.397  20.714  -8.134  0.00  0.00     0.001 A 
HETATM    4  C   UNK N   1      29.344  20.695  -7.103  0.00  0.00     0.012 A 
HETATM    5  C   UNK N   1      29.320  21.680  -6.102  0.00  0.00    -0.024 A 
HETATM    6  C   UNK N   1      28.352  22.689  -6.163  0.00  0.00     0.021 A 
ENDROOT
BRANCH   1   7
HETATM    7  C   UNK N   1      26.442  23.842  -7.282  0.00  0.00     0.158 C 
BRANCH   7   8
HETATM    8  N   UNK N   1      25.744  24.023  -6.032  0.00  0.00    -0.383 N 
HETATM    9  H   UNK N   1      25.217  23.267  -5.689  0.00  0.00     0.160 HD
BRANCH   8  10
HETATM   10  C   UNK N   1      25.766  25.217  -5.262  0.00  0.00     0.072 A 
HETATM   11  C   UNK N   1      26.349  25.307  -3.974  0.00  0.00     0.125 A 
HETATM   12  N   UNK N   1      26.305  26.483  -3.293  0.00  0.00    -0.351 N 
HETATM   13  C   UNK N   1      25.710  27.591  -3.812  0.00  0.00     0.090 A 
ATOM     14  HN  UNK N   1      26.730  26.536  -2.368  1.00  0.00     0.166 HD
HETATM   15  C   UNK N   1      25.131  27.547  -5.078  0.00  0.00     0.019 A 
HETATM   16  C   UNK N   1      25.164  26.358  -5.801  0.00  0.00     0.034 A 
BRANCH  11  17
HETATM   17  N   UNK N   1      26.990  24.200  -3.378  0.00  0.00    -0.384 N 
HETATM   18  H   UNK N   1      26.732  23.282  -3.625  0.00  0.00     0.157 HD
HETATM   19  H   UNK N   1      27.700  24.346  -2.711  0.00  0.00     0.157 HD
ENDBRANCH  11  17
ENDBRANCH   8  10
ENDBRANCH   7   8
ENDBRANCH   1   7
BRANCH   5  20
HETATM   20  C   UNK N   1      30.305  21.676  -4.997  0.00  0.00    -0.011 A 
HETATM   21  C   UNK N   1      31.142  20.566  -4.800  0.00  0.00     0.099 A 
HETATM   22  N   UNK N   1      32.047  20.557  -3.785  0.00  0.00    -0.374 N 
HETATM   23  C   UNK N   1      32.162  21.605  -2.928  0.00  0.00     0.087 A 
ATOM     24  HN  UNK N   1      32.654  19.745  -3.666  1.00  0.00     0.164 HD
HETATM   25  C   UNK N   1      31.347  22.728  -3.081  0.00  0.00     0.018 A 
HETATM   26  C   UNK N   1      30.420  22.765  -4.124  0.00  0.00     0.015 A 
ENDBRANCH   5  20
TORSDOF 5
ENDMDL
MODEL 8
REMARK VINA RESULT:      -6.6     15.973     19.493
REMARK  5 active torsions:
REMARK  status: ('A' for Active; 'I' for Inactive)
REMARK    1  A    between atoms: N_1  and  C_2 
REMARK    2  A    between atoms: C_8  and  N_9 
REMARK    3  A    between atoms: N_9  and  C_10 
REMARK    4  A    between atoms: C_10  and  C_11 
REMARK    5  A    between atoms: C_15  and  C_17 
ROOT
HETATM    1  C   UNK N   1      21.164  15.903   6.766  0.00  0.00    -0.040 A 
HETATM    2  C   UNK N   1      20.012  16.560   7.207  0.00  0.00     0.009 A 
HETATM    3  C   UNK N   1      19.456  16.237   8.450  0.00  0.00     0.001 A 
HETATM    4  C   UNK N   1      20.051  15.255   9.250  0.00  0.00     0.012 A 
HETATM    5  C   UNK N   1      21.218  14.601   8.818  0.00  0.00    -0.024 A 
HETATM    6  C   UNK N   1      21.760  14.930   7.571  0.00  0.00     0.021 A 
ENDROOT
BRANCH   1   7
HETATM    7  C   UNK N   1      21.714  16.181   5.411  0.00  0.00     0.158 C 
BRANCH   7   8
HETATM    8  N   UNK N   1      20.656  16.451   4.468  0.00  0.00    -0.383 N 
HETATM    9  H   UNK N   1      19.913  15.807   4.416  0.00  0.00     0.160 HD
BRANCH   8  10
HETATM   10  C   UNK N   1      20.610  17.582   3.609  0.00  0.00     0.072 A 
HETATM   11  C   UNK N   1      20.117  17.538   2.281  0.00  0.00     0.125 A 
HETATM   12  N   UNK N   1      20.132  18.662   1.518  0.00  0.00    -0.351 N 
HETATM   13  C   UNK N   1      20.611  19.845   1.989  0.00  0.00     0.090 A 
ATOM     14  HN  UNK N   1      19.772  18.618   0.565  1.00  0.00     0.166 HD
HETATM   15  C   UNK N   1      21.098  19.932   3.291  0.00  0.00     0.019 A 
HETATM   16  C   UNK N   1      21.093  18.799   4.099  0.00  0.00     0.034 A 
BRANCH  11  17
HETATM   17  N   UNK N   1      19.597  16.347   1.730  0.00  0.00    -0.384 N 
HETATM   18  H   UNK N   1      19.431  16.277   0.762  0.00  0.00     0.157 HD
HETATM   19  H   UNK N   1      19.400  15.582   2.317  0.00  0.00     0.157 HD
ENDBRANCH  11  17
ENDBRANCH   8  10
ENDBRANCH   7   8
ENDBRANCH   1   7
BRANCH   5  20
HETATM   20  C   UNK N   1      21.870  13.565   9.650  0.00  0.00    -0.011 A 
HETATM   21  C   UNK N   1      21.108  12.785  10.534  0.00  0.00     0.099 A 
HETATM   22  N   UNK N   1      21.702  11.834  11.303  0.00  0.00    -0.374 N 
HETATM   23  C   UNK N   1      23.044  11.618  11.251  0.00  0.00     0.087 A 
ATOM     24  HN  UNK N   1      21.129  11.270  11.931  1.00  0.00     0.164 HD
HETATM   25  C   UNK N   1      23.843  12.373  10.391  0.00  0.00     0.018 A 
HETATM   26  C   UNK N   1      23.251  13.346   9.584  0.00  0.00     0.015 A 
ENDBRANCH   5  20
TORSDOF 5
ENDMDL
MODEL 9
REMARK VINA RESULT:      -6.3      7.321     11.404
REMARK  5 active torsions:
REMARK  status: ('A' for Active; 'I' for Inactive)
REMARK    1  A    between atoms: N_1  and  C_2 
REMARK    2  A    between atoms: C_8  and  N_9 
REMARK    3  A    between atoms: N_9  and  C_10 
REMARK    4  A    between atoms: C_10  and  C_11 
REMARK    5  A    between atoms: C_15  and  C_17 
ROOT
HETATM    1  C   UNK N   1      34.022  15.747   7.414  0.00  0.00    -0.040 A 
HETATM    2  C   UNK N   1      34.392  16.110   6.116  0.00  0.00     0.009 A 
HETATM    3  C   UNK N   1      33.544  16.913   5.346  0.00  0.00     0.001 A 
HETATM    4  C   UNK N   1      32.323  17.349   5.873  0.00  0.00     0.012 A 
HETATM    5  C   UNK N   1      31.951  16.999   7.182  0.00  0.00    -0.024 A 
HETATM    6  C   UNK N   1      32.808  16.192   7.940  0.00  0.00     0.021 A 
ENDROOT
BRANCH   1   7
HETATM    7  C   UNK N   1      34.880  14.827   8.210  0.00  0.00     0.158 C 
BRANCH   7   8
HETATM    8  N   UNK N   1      34.268  14.517   9.480  0.00  0.00    -0.383 N 
HETATM    9  H   UNK N   1      33.296  14.363   9.494  0.00  0.00     0.160 HD
BRANCH   8  10
HETATM   10  C   UNK N   1      34.971  14.418  10.711  0.00  0.00     0.072 A 
HETATM   11  C   UNK N   1      35.435  15.541  11.440  0.00  0.00     0.125 A 
HETATM   12  N   UNK N   1      36.121  15.357  12.599  0.00  0.00    -0.351 N 
HETATM   13  C   UNK N   1      36.384  14.115  13.089  0.00  0.00     0.090 A 
ATOM     14  HN  UNK N   1      36.448  16.173  13.115  1.00  0.00     0.166 HD
HETATM   15  C   UNK N   1      35.939  12.986  12.406  0.00  0.00     0.019 A 
HETATM   16  C   UNK N   1      35.230  13.142  11.218  0.00  0.00     0.034 A 
BRANCH  11  17
HETATM   17  N   UNK N   1      35.191  16.858  10.995  0.00  0.00    -0.384 N 
HETATM   18  H   UNK N   1      35.049  17.043  10.038  0.00  0.00     0.157 HD
HETATM   19  H   UNK N   1      35.163  17.597  11.645  0.00  0.00     0.157 HD
ENDBRANCH  11  17
ENDBRANCH   8  10
ENDBRANCH   7   8
ENDBRANCH   1   7
BRANCH   5  20
HETATM   20  C   UNK N   1      30.669  17.456   7.764  0.00  0.00    -0.011 A 
HETATM   21  C   UNK N   1      29.460  17.196   7.101  0.00  0.00     0.099 A 
HETATM   22  N   UNK N   1      28.279  17.615   7.630  0.00  0.00    -0.374 N 
HETATM   23  C   UNK N   1      28.233  18.306   8.801  0.00  0.00     0.087 A 
ATOM     24  HN  UNK N   1      27.410  17.407   7.139  1.00  0.00     0.164 HD
HETATM   25  C   UNK N   1      29.411  18.592   9.492  0.00  0.00     0.018 A 
HETATM   26  C   UNK N   1      30.633  18.159   8.974  0.00  0.00     0.015 A 
ENDBRANCH   5  20
TORSDOF 5
ENDMDL
