MODEL 1
REMARK VINA RESULT:      -5.8      0.000      0.000
REMARK  7 active torsions:
REMARK  status: ('A' for Active; 'I' for Inactive)
REMARK    1  A    between atoms: O_2  and  C_3 
REMARK    2  A    between atoms: C_8  and  S_9 
REMARK    3  A    between atoms: C_12  and  S_9 
REMARK    4  A    between atoms: C_12  and  C_16 
REMARK    5  A    between atoms: C_12  and  C_13 
REMARK    6  A    between atoms: C_16  and  C_17 
REMARK    7  A    between atoms: C_17  and  O_19 
ROOT
HETATM    1  S   UNK N   1      31.649  16.220   7.316  0.00  0.00     0.185 S 
HETATM    2  O   UNK N   1      31.574  15.937   8.824  0.00  0.00    -0.222 OA
HETATM    3  O   UNK N   1      31.269  14.815   6.821  0.00  0.00    -0.222 OA
ENDROOT
BRANCH   1   4
HETATM    4  C   UNK N   1      30.217  17.251   6.984  0.00  0.00     0.060 A 
HETATM    5  C   UNK N   1      29.730  17.418   5.684  0.00  0.00     0.026 A 
HETATM    6  C   UNK N   1      28.632  18.257   5.448  0.00  0.00     0.038 A 
HETATM    7  C   UNK N   1      28.019  18.938   6.510  0.00  0.00     0.068 A 
HETATM    8  C   UNK N   1      28.512  18.763   7.814  0.00  0.00     0.038 A 
HETATM    9  C   UNK N   1      29.604  17.926   8.047  0.00  0.00     0.026 A 
BRANCH   7  10
HETATM   10  O   UNK N   1      26.969  19.754   6.254  0.00  0.00    -0.356 OA
HETATM   11  C   UNK N   1      27.103  21.107   6.028  0.00  0.00     0.210 C 
ENDBRANCH   7  10
ENDBRANCH   1   4
BRANCH   1  12
HETATM   12  C   UNK N   1      33.429  16.446   6.922  0.00  0.00     0.188 C 
BRANCH  12  13
HETATM   13  C   UNK N   1      33.823  17.922   7.060  0.00  0.00     0.136 C 
BRANCH  13  14
HETATM   14  C   UNK N   1      34.458  18.229   8.380  0.00  0.00     0.140 C 
HETATM   15  O   UNK N   1      35.291  19.114   8.467  0.00  0.00    -0.650 OA
BRANCH  14  16
HETATM   16  O   UNK N   1      34.138  17.498   9.464  0.00  0.00    -0.776 OA
HETATM   17  H   UNK N   1      33.675  17.512  10.278  0.00  0.00     0.167 HD
ENDBRANCH  14  16
ENDBRANCH  13  14
ENDBRANCH  12  13
BRANCH  12  18
HETATM   18  C   UNK N   1      33.711  15.983   5.496  0.00  0.00     0.372 C 
HETATM   19  F   UNK N   1      35.034  15.591   5.375  0.00  0.00    -0.213 F 
HETATM   20  F   UNK N   1      33.446  16.989   4.583  0.00  0.00    -0.213 F 
ENDBRANCH  12  18
ENDBRANCH   1  12
TORSDOF 7
ENDMDL
MODEL 2
REMARK VINA RESULT:      -5.8      9.848     10.854
REMARK  7 active torsions:
REMARK  status: ('A' for Active; 'I' for Inactive)
REMARK    1  A    between atoms: O_2  and  C_3 
REMARK    2  A    between atoms: C_8  and  S_9 
REMARK    3  A    between atoms: C_12  and  S_9 
REMARK    4  A    between atoms: C_12  and  C_16 
REMARK    5  A    between atoms: C_12  and  C_13 
REMARK    6  A    between atoms: C_16  and  C_17 
REMARK    7  A    between atoms: C_17  and  O_19 
ROOT
HETATM    1  S   UNK N   1      22.311  13.497   8.656  0.00  0.00     0.185 S 
HETATM    2  O   UNK N   1      21.608  12.429   7.803  0.00  0.00    -0.222 OA
HETATM    3  O   UNK N   1      23.760  13.124   8.306  0.00  0.00    -0.222 OA
ENDROOT
BRANCH   1   4
HETATM    4  C   UNK N   1      21.988  15.039   7.796  0.00  0.00     0.060 A 
HETATM    5  C   UNK N   1      20.917  15.861   8.161  0.00  0.00     0.026 A 
HETATM    6  C   UNK N   1      20.666  17.043   7.449  0.00  0.00     0.038 A 
HETATM    7  C   UNK N   1      21.478  17.405   6.366  0.00  0.00     0.068 A 
HETATM    8  C   UNK N   1      22.555  16.576   6.008  0.00  0.00     0.038 A 
HETATM    9  C   UNK N   1      22.804  15.401   6.718  0.00  0.00     0.026 A 
BRANCH   7  10
HETATM   10  O   UNK N   1      21.206  18.544   5.686  0.00  0.00    -0.356 OA
HETATM   11  C   UNK N   1      21.172  18.610   4.309  0.00  0.00     0.210 C 
ENDBRANCH   7  10
ENDBRANCH   1   4
BRANCH   1  12
HETATM   12  C   UNK N   1      22.057  13.004  10.408  0.00  0.00     0.188 C 
BRANCH  12  13
HETATM   13  C   UNK N   1      22.915  11.778  10.747  0.00  0.00     0.136 C 
BRANCH  13  14
HETATM   14  C   UNK N   1      23.951  12.067  11.787  0.00  0.00     0.140 C 
HETATM   15  O   UNK N   1      23.672  11.974  12.971  0.00  0.00    -0.650 OA
BRANCH  14  16
HETATM   16  O   UNK N   1      25.179  12.474  11.416  0.00  0.00    -0.776 OA
HETATM   17  H   UNK N   1      25.786  12.497  10.702  0.00  0.00     0.167 HD
ENDBRANCH  14  16
ENDBRANCH  13  14
ENDBRANCH  12  13
BRANCH  12  18
HETATM   18  C   UNK N   1      20.588  12.671  10.650  0.00  0.00     0.372 C 
HETATM   19  F   UNK N   1      19.802  13.786  10.415  0.00  0.00    -0.213 F 
HETATM   20  F   UNK N   1      20.383  12.229  11.945  0.00  0.00    -0.213 F 
ENDBRANCH  12  18
ENDBRANCH   1  12
TORSDOF 7
ENDMDL
MODEL 3
REMARK VINA RESULT:      -5.7     12.163     14.882
REMARK  7 active torsions:
REMARK  status: ('A' for Active; 'I' for Inactive)
REMARK    1  A    between atoms: O_2  and  C_3 
REMARK    2  A    between atoms: C_8  and  S_9 
REMARK    3  A    between atoms: C_12  and  S_9 
REMARK    4  A    between atoms: C_12  and  C_16 
REMARK    5  A    between atoms: C_12  and  C_13 
REMARK    6  A    between atoms: C_16  and  C_17 
REMARK    7  A    between atoms: C_17  and  O_19 
ROOT
HETATM    1  S   UNK N   1      27.189  24.772  -4.324  0.00  0.00     0.185 S 
HETATM    2  O   UNK N   1      26.846  24.018  -5.619  0.00  0.00    -0.222 OA
HETATM    3  O   UNK N   1      26.030  24.244  -3.463  0.00  0.00    -0.222 OA
ENDROOT
BRANCH   1   4
HETATM    4  C   UNK N   1      28.661  23.951  -3.707  0.00  0.00     0.060 A 
HETATM    5  C   UNK N   1      29.783  23.768  -4.522  0.00  0.00     0.026 A 
HETATM    6  C   UNK N   1      30.907  23.092  -4.026  0.00  0.00     0.038 A 
HETATM    7  C   UNK N   1      30.913  22.592  -2.716  0.00  0.00     0.068 A 
HETATM    8  C   UNK N   1      29.784  22.783  -1.902  0.00  0.00     0.038 A 
HETATM    9  C   UNK N   1      28.666  23.457  -2.397  0.00  0.00     0.026 A 
BRANCH   7  10
HETATM   10  O   UNK N   1      32.006  21.930  -2.265  0.00  0.00    -0.356 OA
HETATM   11  C   UNK N   1      32.900  21.295  -3.100  0.00  0.00     0.210 C 
ENDBRANCH   7  10
ENDBRANCH   1   4
BRANCH   1  12
HETATM   12  C   UNK N   1      26.829  26.544  -4.650  0.00  0.00     0.188 C 
BRANCH  12  13
HETATM   13  C   UNK N   1      26.031  27.149  -3.487  0.00  0.00     0.136 C 
BRANCH  13  14
HETATM   14  C   UNK N   1      26.433  28.558  -3.184  0.00  0.00     0.140 C 
HETATM   15  O   UNK N   1      27.225  28.788  -2.286  0.00  0.00    -0.650 OA
BRANCH  14  16
HETATM   16  O   UNK N   1      25.885  29.575  -3.875  0.00  0.00    -0.776 OA
HETATM   17  H   UNK N   1      25.722  29.904  -4.737  0.00  0.00     0.167 HD
ENDBRANCH  14  16
ENDBRANCH  13  14
ENDBRANCH  12  13
BRANCH  12  18
HETATM   18  C   UNK N   1      26.022  26.684  -5.938  0.00  0.00     0.372 C 
HETATM   19  F   UNK N   1      26.417  27.819  -6.626  0.00  0.00    -0.213 F 
HETATM   20  F   UNK N   1      24.666  26.759  -5.671  0.00  0.00    -0.213 F 
ENDBRANCH  12  18
ENDBRANCH   1  12
TORSDOF 7
ENDMDL
MODEL 4
REMARK VINA RESULT:      -5.6      3.245      4.111
REMARK  7 active torsions:
REMARK  status: ('A' for Active; 'I' for Inactive)
REMARK    1  A    between atoms: O_2  and  C_3 
REMARK    2  A    between atoms: C_8  and  S_9 
REMARK    3  A    between atoms: C_12  and  S_9 
REMARK    4  A    between atoms: C_12  and  C_16 
REMARK    5  A    between atoms: C_12  and  C_13 
REMARK    6  A    between atoms: C_16  and  C_17 
REMARK    7  A    between atoms: C_17  and  O_19 
ROOT
HETATM    1  S   UNK N   1      33.927  16.787   7.049  0.00  0.00     0.185 S 
HETATM    2  O   UNK N   1      35.140  16.046   6.467  0.00  0.00    -0.222 OA
HETATM    3  O   UNK N   1      34.525  18.204   7.041  0.00  0.00    -0.222 OA
ENDROOT
BRANCH   1   4
HETATM    4  C   UNK N   1      32.714  16.768   5.725  0.00  0.00     0.060 A 
HETATM    5  C   UNK N   1      31.343  16.791   5.999  0.00  0.00     0.026 A 
HETATM    6  C   UNK N   1      30.417  16.740   4.947  0.00  0.00     0.038 A 
HETATM    7  C   UNK N   1      30.857  16.658   3.618  0.00  0.00     0.068 A 
HETATM    8  C   UNK N   1      32.236  16.639   3.351  0.00  0.00     0.038 A 
HETATM    9  C   UNK N   1      33.156  16.692   4.399  0.00  0.00     0.026 A 
BRANCH   7  10
HETATM   10  O   UNK N   1      29.942  16.595   2.621  0.00  0.00    -0.356 OA
HETATM   11  C   UNK N   1      28.715  15.984   2.762  0.00  0.00     0.210 C 
ENDBRANCH   7  10
ENDBRANCH   1   4
BRANCH   1  12
HETATM   12  C   UNK N   1      33.812  16.282   8.812  0.00  0.00     0.188 C 
BRANCH  12  13
HETATM   13  C   UNK N   1      35.129  15.642   9.270  0.00  0.00     0.136 C 
BRANCH  13  14
HETATM   14  C   UNK N   1      35.763  16.377  10.409  0.00  0.00     0.140 C 
HETATM   15  O   UNK N   1      35.192  17.326  10.917  0.00  0.00    -0.650 OA
BRANCH  14  16
HETATM   16  O   UNK N   1      36.986  16.016  10.842  0.00  0.00    -0.776 OA
HETATM   17  H   UNK N   1      37.584  16.079  11.561  0.00  0.00     0.167 HD
ENDBRANCH  14  16
ENDBRANCH  13  14
ENDBRANCH  12  13
BRANCH  12  18
HETATM   18  C   UNK N   1      32.677  15.279   8.995  0.00  0.00     0.372 C 
HETATM   19  F   UNK N   1      32.627  14.414   7.915  0.00  0.00    -0.213 F 
HETATM   20  F   UNK N   1      31.459  15.923   9.125  0.00  0.00    -0.213 F 
ENDBRANCH  12  18
ENDBRANCH   1  12
TORSDOF 7
ENDMDL
MODEL 5
REMARK VINA RESULT:      -5.6     10.088     11.715
REMARK  7 active torsions:
REMARK  status: ('A' for Active; 'I' for Inactive)
REMARK    1  A    between atoms: O_2  and  C_3 
REMARK    2  A    between atoms: C_8  and  S_9 
REMARK    3  A    between atoms: C_12  and  S_9 
REMARK    4  A    between atoms: C_12  and  C_16 
REMARK    5  A    between atoms: C_12  and  C_13 
REMARK    6  A    between atoms: C_16  and  C_17 
REMARK    7  A    between atoms: C_17  and  O_19 
ROOT
HETATM    1  S   UNK N   1      21.588  18.305   4.732  0.00  0.00     0.185 S 
HETATM    2  O   UNK N   1      21.067  19.662   5.231  0.00  0.00    -0.222 OA
HETATM    3  O   UNK N   1      23.084  18.655   4.699  0.00  0.00    -0.222 OA
ENDROOT
BRANCH   1   4
HETATM    4  C   UNK N   1      21.381  17.205   6.136  0.00  0.00     0.060 A 
HETATM    5  C   UNK N   1      20.500  17.517   7.177  0.00  0.00     0.026 A 
HETATM    6  C   UNK N   1      20.384  16.658   8.279  0.00  0.00     0.038 A 
HETATM    7  C   UNK N   1      21.151  15.486   8.349  0.00  0.00     0.068 A 
HETATM    8  C   UNK N   1      22.030  15.177   7.297  0.00  0.00     0.038 A 
HETATM    9  C   UNK N   1      22.144  16.033   6.200  0.00  0.00     0.026 A 
BRANCH   7  10
HETATM   10  O   UNK N   1      21.031  14.680   9.430  0.00  0.00    -0.356 OA
HETATM   11  C   UNK N   1      21.938  13.687   9.735  0.00  0.00     0.210 C 
ENDBRANCH   7  10
ENDBRANCH   1   4
BRANCH   1  12
HETATM   12  C   UNK N   1      21.049  18.159   2.982  0.00  0.00     0.188 C 
BRANCH  12  13
HETATM   13  C   UNK N   1      20.262  19.407   2.560  0.00  0.00     0.136 C 
BRANCH  13  14
HETATM   14  C   UNK N   1      21.135  20.466   1.963  0.00  0.00     0.140 C 
HETATM   15  O   UNK N   1      21.359  20.470   0.765  0.00  0.00    -0.650 OA
BRANCH  14  16
HETATM   16  O   UNK N   1      21.709  21.389   2.758  0.00  0.00    -0.776 OA
HETATM   17  H   UNK N   1      21.877  21.621   3.650  0.00  0.00     0.167 HD
ENDBRANCH  14  16
ENDBRANCH  13  14
ENDBRANCH  12  13
BRANCH  12  18
HETATM   18  C   UNK N   1      20.166  16.928   2.808  0.00  0.00     0.372 C 
HETATM   19  F   UNK N   1      19.177  16.909   3.777  0.00  0.00    -0.213 F 
HETATM   20  F   UNK N   1      20.911  15.764   2.890  0.00  0.00    -0.213 F 
ENDBRANCH  12  18
ENDBRANCH   1  12
TORSDOF 7
ENDMDL
MODEL 6
REMARK VINA RESULT:      -5.6      5.318      8.067
REMARK  7 active torsions:
REMARK  status: ('A' for Active; 'I' for Inactive)
REMARK    1  A    between atoms: O_2  and  C_3 
REMARK    2  A    between atoms: C_8  and  S_9 
REMARK    3  A    between atoms: C_12  and  S_9 
REMARK    4  A    between atoms: C_12  and  C_16 
REMARK    5  A    between atoms: C_12  and  C_13 
REMARK    6  A    between atoms: C_16  and  C_17 
REMARK    7  A    between atoms: C_17  and  O_19 
ROOT
HETATM    1  S   UNK N   1      35.837  15.191  10.181  0.00  0.00     0.185 S 
HETATM    2  O   UNK N   1      36.571  16.445  10.681  0.00  0.00    -0.222 OA
HETATM    3  O   UNK N   1      37.001  14.567   9.394  0.00  0.00    -0.222 OA
ENDROOT
BRANCH   1   4
HETATM    4  C   UNK N   1      35.645  14.172  11.647  0.00  0.00     0.060 A 
HETATM    5  C   UNK N   1      35.044  12.911  11.579  0.00  0.00     0.026 A 
HETATM    6  C   UNK N   1      34.874  12.151  12.745  0.00  0.00     0.038 A 
HETATM    7  C   UNK N   1      35.299  12.650  13.985  0.00  0.00     0.068 A 
HETATM    8  C   UNK N   1      35.906  13.916  14.045  0.00  0.00     0.038 A 
HETATM    9  C   UNK N   1      36.075  14.670  12.882  0.00  0.00     0.026 A 
BRANCH   7  10
HETATM   10  O   UNK N   1      35.111  11.902  15.098  0.00  0.00    -0.356 OA
HETATM   11  C   UNK N   1      35.603  12.258  16.336  0.00  0.00     0.210 C 
ENDBRANCH   7  10
ENDBRANCH   1   4
BRANCH   1  12
HETATM   12  C   UNK N   1      34.619  15.771   8.934  0.00  0.00     0.188 C 
BRANCH  12  13
HETATM   13  C   UNK N   1      34.202  17.218   9.227  0.00  0.00     0.136 C 
BRANCH  13  14
HETATM   14  C   UNK N   1      34.692  18.181   8.192  0.00  0.00     0.140 C 
HETATM   15  O   UNK N   1      35.276  19.197   8.529  0.00  0.00    -0.650 OA
BRANCH  14  16
HETATM   16  O   UNK N   1      34.450  17.946   6.889  0.00  0.00    -0.776 OA
HETATM   17  H   UNK N   1      34.343  18.354   6.052  0.00  0.00     0.167 HD
ENDBRANCH  14  16
ENDBRANCH  13  14
ENDBRANCH  12  13
BRANCH  12  18
HETATM   18  C   UNK N   1      33.381  14.879   8.958  0.00  0.00     0.372 C 
HETATM   19  F   UNK N   1      33.711  13.595   8.556  0.00  0.00    -0.213 F 
HETATM   20  F   UNK N   1      32.390  15.378   8.130  0.00  0.00    -0.213 F 
ENDBRANCH  12  18
ENDBRANCH   1  12
TORSDOF 7
ENDMDL
MODEL 7
REMARK VINA RESULT:      -5.6      3.024      6.276
REMARK  7 active torsions:
REMARK  status: ('A' for Active; 'I' for Inactive)
REMARK    1  A    between atoms: O_2  and  C_3 
REMARK    2  A    between atoms: C_8  and  S_9 
REMARK    3  A    between atoms: C_12  and  S_9 
REMARK    4  A    between atoms: C_12  and  C_16 
REMARK    5  A    between atoms: C_12  and  C_13 
REMARK    6  A    between atoms: C_16  and  C_17 
REMARK    7  A    between atoms: C_17  and  O_19 
ROOT
HETATM    1  S   UNK N   1      34.018  17.099   7.404  0.00  0.00     0.185 S 
HETATM    2  O   UNK N   1      34.779  18.426   7.557  0.00  0.00    -0.222 OA
HETATM    3  O   UNK N   1      34.926  16.460   6.340  0.00  0.00    -0.222 OA
ENDROOT
BRANCH   1   4
HETATM    4  C   UNK N   1      34.360  16.211   8.927  0.00  0.00     0.060 A 
HETATM    5  C   UNK N   1      33.941  14.888   9.104  0.00  0.00     0.026 A 
HETATM    6  C   UNK N   1      34.190  14.230  10.316  0.00  0.00     0.038 A 
HETATM    7  C   UNK N   1      34.854  14.891  11.359  0.00  0.00     0.068 A 
HETATM    8  C   UNK N   1      35.277  16.218  11.172  0.00  0.00     0.038 A 
HETATM    9  C   UNK N   1      35.029  16.871   9.964  0.00  0.00     0.026 A 
BRANCH   7  10
HETATM   10  O   UNK N   1      35.070  14.237  12.525  0.00  0.00    -0.356 OA
HETATM   11  C   UNK N   1      36.323  13.850  12.951  0.00  0.00     0.210 C 
ENDBRANCH   7  10
ENDBRANCH   1   4
BRANCH   1  12
HETATM   12  C   UNK N   1      32.437  17.506   6.562  0.00  0.00     0.188 C 
BRANCH  12  13
HETATM   13  C   UNK N   1      31.270  16.768   7.231  0.00  0.00     0.136 C 
BRANCH  13  14
HETATM   14  C   UNK N   1      30.961  17.296   8.597  0.00  0.00     0.140 C 
HETATM   15  O   UNK N   1      30.851  18.497   8.778  0.00  0.00    -0.650 OA
BRANCH  14  16
HETATM   16  O   UNK N   1      30.847  16.446   9.635  0.00  0.00    -0.776 OA
HETATM   17  H   UNK N   1      31.034  15.575   9.924  0.00  0.00     0.167 HD
ENDBRANCH  14  16
ENDBRANCH  13  14
ENDBRANCH  12  13
BRANCH  12  18
HETATM   18  C   UNK N   1      32.509  17.101   5.093  0.00  0.00     0.372 C 
HETATM   19  F   UNK N   1      33.194  18.061   4.367  0.00  0.00    -0.213 F 
HETATM   20  F   UNK N   1      31.243  16.938   4.557  0.00  0.00    -0.213 F 
ENDBRANCH  12  18
ENDBRANCH   1  12
TORSDOF 7
ENDMDL
MODEL 8
REMARK VINA RESULT:      -5.6      3.494      6.560
REMARK  7 active torsions:
REMARK  status: ('A' for Active; 'I' for Inactive)
REMARK    1  A    between atoms: O_2  and  C_3 
REMARK    2  A    between atoms: C_8  and  S_9 
REMARK    3  A    between atoms: C_12  and  S_9 
REMARK    4  A    between atoms: C_12  and  C_16 
REMARK    5  A    between atoms: C_12  and  C_13 
REMARK    6  A    between atoms: C_16  and  C_17 
REMARK    7  A    between atoms: C_17  and  O_19 
ROOT
HETATM    1  S   UNK N   1      34.079  16.524   6.714  0.00  0.00     0.185 S 
HETATM    2  O   UNK N   1      34.549  17.984   6.820  0.00  0.00    -0.222 OA
HETATM    3  O   UNK N   1      35.258  15.986   5.887  0.00  0.00    -0.222 OA
ENDROOT
BRANCH   1   4
HETATM    4  C   UNK N   1      34.306  15.861   8.366  0.00  0.00     0.060 A 
HETATM    5  C   UNK N   1      33.962  14.540   8.670  0.00  0.00     0.026 A 
HETATM    6  C   UNK N   1      34.116  14.057   9.977  0.00  0.00     0.038 A 
HETATM    7  C   UNK N   1      34.609  14.894  10.988  0.00  0.00     0.068 A 
HETATM    8  C   UNK N   1      34.956  16.219  10.675  0.00  0.00     0.038 A 
HETATM    9  C   UNK N   1      34.803  16.697   9.372  0.00  0.00     0.026 A 
BRANCH   7  10
HETATM   10  O   UNK N   1      34.736  14.409  12.246  0.00  0.00    -0.356 OA
HETATM   11  C   UNK N   1      35.124  13.114  12.519  0.00  0.00     0.210 C 
ENDBRANCH   7  10
ENDBRANCH   1   4
BRANCH   1  12
HETATM   12  C   UNK N   1      32.621  16.533   5.595  0.00  0.00     0.188 C 
BRANCH  12  13
HETATM   13  C   UNK N   1      32.838  17.524   4.443  0.00  0.00     0.136 C 
BRANCH  13  14
HETATM   14  C   UNK N   1      32.555  16.923   3.103  0.00  0.00     0.140 C 
HETATM   15  O   UNK N   1      33.383  16.208   2.565  0.00  0.00    -0.650 OA
BRANCH  14  16
HETATM   16  O   UNK N   1      31.400  17.207   2.471  0.00  0.00    -0.776 OA
HETATM   17  H   UNK N   1      30.911  17.891   2.058  0.00  0.00     0.167 HD
ENDBRANCH  14  16
ENDBRANCH  13  14
ENDBRANCH  12  13
BRANCH  12  18
HETATM   18  C   UNK N   1      31.370  16.933   6.371  0.00  0.00     0.372 C 
HETATM   19  F   UNK N   1      30.508  17.643   5.551  0.00  0.00    -0.213 F 
HETATM   20  F   UNK N   1      31.692  17.703   7.475  0.00  0.00    -0.213 F 
ENDBRANCH  12  18
ENDBRANCH   1  12
TORSDOF 7
ENDMDL
MODEL 9
REMARK VINA RESULT:      -5.5      1.985      2.604
REMARK  7 active torsions:
REMARK  status: ('A' for Active; 'I' for Inactive)
REMARK    1  A    between atoms: O_2  and  C_3 
REMARK    2  A    between atoms: C_8  and  S_9 
REMARK    3  A    between atoms: C_12  and  S_9 
REMARK    4  A    between atoms: C_12  and  C_16 
REMARK    5  A    between atoms: C_12  and  C_13 
REMARK    6  A    between atoms: C_16  and  C_17 
REMARK    7  A    between atoms: C_17  and  O_19 
ROOT
HETATM    1  S   UNK N   1      32.364  16.066   8.289  0.00  0.00     0.185 S 
HETATM    2  O   UNK N   1      32.056  15.292   9.581  0.00  0.00    -0.222 OA
HETATM    3  O   UNK N   1      32.200  14.899   7.303  0.00  0.00    -0.222 OA
ENDROOT
BRANCH   1   4
HETATM    4  C   UNK N   1      30.925  17.112   8.043  0.00  0.00     0.060 A 
HETATM    5  C   UNK N   1      30.488  17.988   9.042  0.00  0.00     0.026 A 
HETATM    6  C   UNK N   1      29.341  18.768   8.837  0.00  0.00     0.038 A 
HETATM    7  C   UNK N   1      28.622  18.672   7.637  0.00  0.00     0.068 A 
HETATM    8  C   UNK N   1      29.070  17.792   6.637  0.00  0.00     0.038 A 
HETATM    9  C   UNK N   1      30.213  17.018   6.842  0.00  0.00     0.026 A 
BRANCH   7  10
HETATM   10  O   UNK N   1      27.509  19.425   7.469  0.00  0.00    -0.356 OA
HETATM   11  C   UNK N   1      27.308  20.240   6.375  0.00  0.00     0.210 C 
ENDBRANCH   7  10
ENDBRANCH   1   4
BRANCH   1  12
HETATM   12  C   UNK N   1      34.158  16.456   8.339  0.00  0.00     0.188 C 
BRANCH  12  13
HETATM   13  C   UNK N   1      34.630  16.617   9.790  0.00  0.00     0.136 C 
BRANCH  13  14
HETATM   14  C   UNK N   1      35.752  15.690  10.139  0.00  0.00     0.140 C 
HETATM   15  O   UNK N   1      35.691  14.513   9.829  0.00  0.00    -0.650 OA
BRANCH  14  16
HETATM   16  O   UNK N   1      36.810  16.149  10.833  0.00  0.00    -0.776 OA
HETATM   17  H   UNK N   1      37.099  16.422  11.682  0.00  0.00     0.167 HD
ENDBRANCH  14  16
ENDBRANCH  13  14
ENDBRANCH  12  13
BRANCH  12  18
HETATM   18  C   UNK N   1      34.433  17.749   7.577  0.00  0.00     0.372 C 
HETATM   19  F   UNK N   1      33.855  18.822   8.235  0.00  0.00    -0.213 F 
HETATM   20  F   UNK N   1      33.938  17.683   6.286  0.00  0.00    -0.213 F 
ENDBRANCH  12  18
ENDBRANCH   1  12
TORSDOF 7
ENDMDL
