MODEL 1
REMARK VINA RESULT:      -7.3      0.000      0.000
REMARK  2 active torsions:
REMARK  status: ('A' for Active; 'I' for Inactive)
REMARK    1  A    between atoms: C_4  and  N_10 
REMARK    2  A    between atoms: C_14  and  O_17 
ROOT
HETATM    1 Cl   UNK N   1      23.564  20.913   2.724  0.00  0.00    -0.082 Cl
HETATM    2  C   UNK N   1      22.238  19.790   3.066  0.00  0.00     0.062 C 
HETATM    3  C   UNK N   1      22.437  18.715   3.891  0.00  0.00    -0.011 C 
HETATM    4  C   UNK N   1      21.320  17.910   4.243  0.00  0.00     0.054 C 
HETATM    5  C   UNK N   1      20.058  18.157   3.716  0.00  0.00     0.032 C 
HETATM    6  C   UNK N   1      19.914  19.118   2.756  0.00  0.00     0.027 C 
HETATM    7  C   UNK N   1      21.012  19.893   2.424  0.00  0.00     0.067 C 
HETATM    8  C   UNK N   1      21.051  20.404   1.127  0.00  0.00     0.101 C 
HETATM    9  N   UNK N   1      21.135  20.836   0.066  0.00  0.00    -0.191 NA
HETATM   10  C   UNK N   1      23.856  18.387   4.289  0.00  0.00     0.052 C 
ENDROOT
BRANCH   4  11
HETATM   11  N   UNK N   1      21.418  16.998   5.280  0.00  0.00    -0.231 N 
HETATM   12  C   UNK N   1      21.277  15.656   5.223  0.00  0.00     0.333 C 
HETATM   13  O   UNK N   1      21.197  14.996   4.195  0.00  0.00    -0.246 OA
HETATM   14  N   UNK N   1      21.104  15.173   6.461  0.00  0.00    -0.317 N 
HETATM   15  C   UNK N   1      20.642  13.956   7.023  0.00  0.00     0.131 C 
HETATM   16  C   UNK N   1      21.422  16.180   7.385  0.00  0.00     0.210 C 
HETATM   17  C   UNK N   1      20.624  14.312   8.548  0.00  0.00     0.054 C 
HETATM   18  C   UNK N   1      20.891  15.843   8.717  0.00  0.00     0.152 C 
HETATM   19  C   UNK N   1      21.318  17.356   6.573  0.00  0.00     0.258 C 
HETATM   20  O   UNK N   1      20.972  18.458   6.975  0.00  0.00    -0.270 OA
BRANCH  18  21
HETATM   21  O   UNK N   1      19.719  16.532   9.032  0.00  0.00    -0.393 OA
HETATM   22  H   UNK N   1      19.147  17.314   9.089  0.00  0.00     0.210 HD
ENDBRANCH  18  21
ENDBRANCH   4  11
TORSDOF 2
ENDMDL
MODEL 2
REMARK VINA RESULT:      -6.9      4.312      7.972
REMARK  2 active torsions:
REMARK  status: ('A' for Active; 'I' for Inactive)
REMARK    1  A    between atoms: C_4  and  N_10 
REMARK    2  A    between atoms: C_14  and  O_17 
ROOT
HETATM    1 Cl   UNK N   1      24.971  11.864  10.457  0.00  0.00    -0.082 Cl
HETATM    2  C   UNK N   1      23.269  12.355  10.447  0.00  0.00     0.062 C 
HETATM    3  C   UNK N   1      22.779  13.132   9.431  0.00  0.00    -0.011 C 
HETATM    4  C   UNK N   1      21.384  13.400   9.391  0.00  0.00     0.054 C 
HETATM    5  C   UNK N   1      20.532  12.943  10.389  0.00  0.00     0.032 C 
HETATM    6  C   UNK N   1      21.063  12.327  11.486  0.00  0.00     0.027 C 
HETATM    7  C   UNK N   1      22.424  12.075  11.512  0.00  0.00     0.067 C 
HETATM    8  C   UNK N   1      23.030  12.023  12.766  0.00  0.00     0.101 C 
HETATM    9  N   UNK N   1      23.577  11.984  13.776  0.00  0.00    -0.191 NA
HETATM   10  C   UNK N   1      23.773  13.750   8.477  0.00  0.00     0.052 C 
ENDROOT
BRANCH   4  11
HETATM   11  N   UNK N   1      20.811  13.935   8.250  0.00  0.00    -0.231 N 
HETATM   12  C   UNK N   1      20.665  13.351   7.041  0.00  0.00     0.333 C 
HETATM   13  O   UNK N   1      20.877  12.170   6.794  0.00  0.00    -0.246 OA
HETATM   14  N   UNK N   1      20.385  14.287   6.124  0.00  0.00    -0.317 N 
HETATM   15  C   UNK N   1      20.399  14.362   4.708  0.00  0.00     0.131 C 
HETATM   16  C   UNK N   1      20.054  15.480   6.786  0.00  0.00     0.210 C 
HETATM   17  C   UNK N   1      20.079  15.878   4.480  0.00  0.00     0.054 C 
HETATM   18  C   UNK N   1      20.117  16.620   5.855  0.00  0.00     0.152 C 
HETATM   19  C   UNK N   1      20.630  15.257   8.079  0.00  0.00     0.258 C 
HETATM   20  O   UNK N   1      21.085  16.130   8.804  0.00  0.00    -0.270 OA
BRANCH  18  21
HETATM   21  O   UNK N   1      21.280  17.379   5.992  0.00  0.00    -0.393 OA
HETATM   22  H   UNK N   1      21.786  18.187   6.171  0.00  0.00     0.210 HD
ENDBRANCH  18  21
ENDBRANCH   4  11
TORSDOF 2
ENDMDL
MODEL 3
REMARK VINA RESULT:      -6.7      6.372      8.027
REMARK  2 active torsions:
REMARK  status: ('A' for Active; 'I' for Inactive)
REMARK    1  A    between atoms: C_4  and  N_10 
REMARK    2  A    between atoms: C_14  and  O_17 
ROOT
HETATM    1 Cl   UNK N   1      24.167  17.359   3.434  0.00  0.00    -0.082 Cl
HETATM    2  C   UNK N   1      25.523  18.339   4.013  0.00  0.00     0.062 C 
HETATM    3  C   UNK N   1      26.340  17.871   5.008  0.00  0.00    -0.011 C 
HETATM    4  C   UNK N   1      27.490  18.629   5.358  0.00  0.00     0.054 C 
HETATM    5  C   UNK N   1      27.758  19.854   4.758  0.00  0.00     0.032 C 
HETATM    6  C   UNK N   1      26.839  20.390   3.902  0.00  0.00     0.027 C 
HETATM    7  C   UNK N   1      25.723  19.640   3.571  0.00  0.00     0.067 C 
HETATM    8  C   UNK N   1      24.570  20.345   3.231  0.00  0.00     0.101 C 
HETATM    9  N   UNK N   1      23.592  20.882   2.956  0.00  0.00    -0.191 NA
HETATM   10  C   UNK N   1      25.905  16.630   5.749  0.00  0.00     0.052 C 
ENDROOT
BRANCH   4  11
HETATM   11  N   UNK N   1      28.480  18.068   6.146  0.00  0.00    -0.231 N 
HETATM   12  C   UNK N   1      28.762  18.330   7.440  0.00  0.00     0.333 C 
HETATM   13  O   UNK N   1      28.070  19.005   8.192  0.00  0.00    -0.246 OA
HETATM   14  N   UNK N   1      29.978  17.852   7.738  0.00  0.00    -0.317 N 
HETATM   15  C   UNK N   1      30.918  18.041   8.782  0.00  0.00     0.131 C 
HETATM   16  C   UNK N   1      30.394  17.003   6.701  0.00  0.00     0.210 C 
HETATM   17  C   UNK N   1      32.133  17.208   8.253  0.00  0.00     0.054 C 
HETATM   18  C   UNK N   1      31.845  16.763   6.782  0.00  0.00     0.152 C 
HETATM   19  C   UNK N   1      29.545  17.427   5.628  0.00  0.00     0.258 C 
HETATM   20  O   UNK N   1      29.847  17.409   4.443  0.00  0.00    -0.270 OA
BRANCH  18  21
HETATM   21  O   UNK N   1      32.580  17.520   5.868  0.00  0.00    -0.393 OA
HETATM   22  H   UNK N   1      32.694  18.132   5.125  0.00  0.00     0.210 HD
ENDBRANCH  18  21
ENDBRANCH   4  11
TORSDOF 2
ENDMDL
MODEL 4
REMARK VINA RESULT:      -6.5     10.942     12.258
REMARK  2 active torsions:
REMARK  status: ('A' for Active; 'I' for Inactive)
REMARK    1  A    between atoms: C_4  and  N_10 
REMARK    2  A    between atoms: C_14  and  O_17 
ROOT
HETATM    1 Cl   UNK N   1      32.227  17.178   3.042  0.00  0.00    -0.082 Cl
HETATM    2  C   UNK N   1      31.795  16.894   4.736  0.00  0.00     0.062 C 
HETATM    3  C   UNK N   1      32.652  16.219   5.564  0.00  0.00    -0.011 C 
HETATM    4  C   UNK N   1      32.329  16.121   6.945  0.00  0.00     0.054 C 
HETATM    5  C   UNK N   1      31.140  16.637   7.446  0.00  0.00     0.032 C 
HETATM    6  C   UNK N   1      30.216  17.144   6.577  0.00  0.00     0.027 C 
HETATM    7  C   UNK N   1      30.546  17.232   5.235  0.00  0.00     0.067 C 
HETATM    8  C   UNK N   1      29.492  17.164   4.324  0.00  0.00     0.101 C 
HETATM    9  N   UNK N   1      28.660  17.099   3.534  0.00  0.00    -0.191 NA
HETATM   10  C   UNK N   1      33.837  15.524   4.936  0.00  0.00     0.052 C 
ENDROOT
BRANCH   4  11
HETATM   11  N   UNK N   1      33.283  15.702   7.855  0.00  0.00    -0.231 N 
HETATM   12  C   UNK N   1      33.316  14.547   8.554  0.00  0.00     0.333 C 
HETATM   13  O   UNK N   1      32.574  13.589   8.374  0.00  0.00    -0.246 OA
HETATM   14  N   UNK N   1      34.192  14.659   9.561  0.00  0.00    -0.317 N 
HETATM   15  C   UNK N   1      34.465  13.948  10.757  0.00  0.00     0.131 C 
HETATM   16  C   UNK N   1      34.968  15.810   9.356  0.00  0.00     0.210 C 
HETATM   17  C   UNK N   1      35.554  14.862  11.413  0.00  0.00     0.054 C 
HETATM   18  C   UNK N   1      35.665  16.190  10.597  0.00  0.00     0.152 C 
HETATM   19  C   UNK N   1      34.145  16.550   8.446  0.00  0.00     0.258 C 
HETATM   20  O   UNK N   1      34.086  17.770   8.386  0.00  0.00    -0.270 OA
BRANCH  18  21
HETATM   21  O   UNK N   1      35.055  17.252  11.267  0.00  0.00    -0.393 OA
HETATM   22  H   UNK N   1      34.432  17.655  11.892  0.00  0.00     0.210 HD
ENDBRANCH  18  21
ENDBRANCH   4  11
TORSDOF 2
ENDMDL
MODEL 5
REMARK VINA RESULT:      -6.4     17.742     19.979
REMARK  2 active torsions:
REMARK  status: ('A' for Active; 'I' for Inactive)
REMARK    1  A    between atoms: C_4  and  N_10 
REMARK    2  A    between atoms: C_14  and  O_17 
ROOT
HETATM    1 Cl   UNK N   1      37.183   8.465  17.953  0.00  0.00    -0.082 Cl
HETATM    2  C   UNK N   1      36.437  10.063  17.790  0.00  0.00     0.062 C 
HETATM    3  C   UNK N   1      36.406  10.691  16.574  0.00  0.00    -0.011 C 
HETATM    4  C   UNK N   1      35.690  11.913  16.456  0.00  0.00     0.054 C 
HETATM    5  C   UNK N   1      35.083  12.503  17.558  0.00  0.00     0.032 C 
HETATM    6  C   UNK N   1      35.278  11.959  18.795  0.00  0.00     0.027 C 
HETATM    7  C   UNK N   1      35.979  10.769  18.894  0.00  0.00     0.067 C 
HETATM    8  C   UNK N   1      36.670  10.543  20.084  0.00  0.00     0.101 C 
HETATM    9  N   UNK N   1      37.265  10.318  21.040  0.00  0.00    -0.191 NA
HETATM   10  C   UNK N   1      37.232  10.100  15.455  0.00  0.00     0.052 C 
ENDROOT
BRANCH   4  11
HETATM   11  N   UNK N   1      35.397  12.431  15.206  0.00  0.00    -0.231 N 
HETATM   12  C   UNK N   1      34.603  11.901  14.251  0.00  0.00     0.333 C 
HETATM   13  O   UNK N   1      33.867  10.933  14.400  0.00  0.00    -0.246 OA
HETATM   14  N   UNK N   1      34.842  12.510  13.082  0.00  0.00    -0.317 N 
HETATM   15  C   UNK N   1      34.562  12.241  11.719  0.00  0.00     0.131 C 
HETATM   16  C   UNK N   1      35.604  13.663  13.324  0.00  0.00     0.210 C 
HETATM   17  C   UNK N   1      35.342  13.402  11.013  0.00  0.00     0.054 C 
HETATM   18  C   UNK N   1      36.214  14.149  12.074  0.00  0.00     0.152 C 
HETATM   19  C   UNK N   1      36.151  13.377  14.617  0.00  0.00     0.258 C 
HETATM   20  O   UNK N   1      37.240  13.761  15.019  0.00  0.00    -0.270 OA
BRANCH  18  21
HETATM   21  O   UNK N   1      37.563  13.812  11.952  0.00  0.00    -0.393 OA
HETATM   22  H   UNK N   1      38.321  13.209  11.958  0.00  0.00     0.210 HD
ENDBRANCH  18  21
ENDBRANCH   4  11
TORSDOF 2
ENDMDL
MODEL 6
REMARK VINA RESULT:      -6.4      3.974      5.956
REMARK  2 active torsions:
REMARK  status: ('A' for Active; 'I' for Inactive)
REMARK    1  A    between atoms: C_4  and  N_10 
REMARK    2  A    between atoms: C_14  and  O_17 
ROOT
HETATM    1 Cl   UNK N   1      20.771  13.305   3.725  0.00  0.00    -0.082 Cl
HETATM    2  C   UNK N   1      21.058  14.046   5.308  0.00  0.00     0.062 C 
HETATM    3  C   UNK N   1      21.217  13.262   6.420  0.00  0.00    -0.011 C 
HETATM    4  C   UNK N   1      21.570  13.885   7.648  0.00  0.00     0.054 C 
HETATM    5  C   UNK N   1      21.691  15.265   7.748  0.00  0.00     0.032 C 
HETATM    6  C   UNK N   1      21.352  16.042   6.677  0.00  0.00     0.027 C 
HETATM    7  C   UNK N   1      21.008  15.420   5.489  0.00  0.00     0.067 C 
HETATM    8  C   UNK N   1      20.133  16.108   4.650  0.00  0.00     0.101 C 
HETATM    9  N   UNK N   1      19.403  16.630   3.932  0.00  0.00    -0.191 NA
HETATM   10  C   UNK N   1      20.898  11.791   6.295  0.00  0.00     0.052 C 
ENDROOT
BRANCH   4  11
HETATM   11  N   UNK N   1      22.011  13.120   8.714  0.00  0.00    -0.231 N 
HETATM   12  C   UNK N   1      21.353  12.829   9.857  0.00  0.00     0.333 C 
HETATM   13  O   UNK N   1      20.170  13.066  10.073  0.00  0.00    -0.246 OA
HETATM   14  N   UNK N   1      22.220  12.365  10.766  0.00  0.00    -0.317 N 
HETATM   15  C   UNK N   1      22.214  12.165  12.170  0.00  0.00     0.131 C 
HETATM   16  C   UNK N   1      23.432  12.072  10.123  0.00  0.00     0.210 C 
HETATM   17  C   UNK N   1      23.698  11.732  12.423  0.00  0.00     0.054 C 
HETATM   18  C   UNK N   1      24.519  11.933  11.108  0.00  0.00     0.152 C 
HETATM   19  C   UNK N   1      23.312  12.844   8.922  0.00  0.00     0.258 C 
HETATM   20  O   UNK N   1      24.244  13.354   8.318  0.00  0.00    -0.270 OA
BRANCH  18  21
HETATM   21  O   UNK N   1      25.338  13.060  11.187  0.00  0.00    -0.393 OA
HETATM   22  H   UNK N   1      25.605  13.930  11.521  0.00  0.00     0.210 HD
ENDBRANCH  18  21
ENDBRANCH   4  11
TORSDOF 2
ENDMDL
MODEL 7
REMARK VINA RESULT:      -6.4      2.157      2.722
REMARK  2 active torsions:
REMARK  status: ('A' for Active; 'I' for Inactive)
REMARK    1  A    between atoms: C_4  and  N_10 
REMARK    2  A    between atoms: C_14  and  O_17 
ROOT
HETATM    1 Cl   UNK N   1      20.278  19.355   2.905  0.00  0.00    -0.082 Cl
HETATM    2  C   UNK N   1      20.466  17.648   3.337  0.00  0.00     0.062 C 
HETATM    3  C   UNK N   1      21.109  17.294   4.493  0.00  0.00    -0.011 C 
HETATM    4  C   UNK N   1      21.130  15.923   4.868  0.00  0.00     0.054 C 
HETATM    5  C   UNK N   1      20.571  14.944   4.055  0.00  0.00     0.032 C 
HETATM    6  C   UNK N   1      20.098  15.293   2.823  0.00  0.00     0.027 C 
HETATM    7  C   UNK N   1      20.085  16.632   2.472  0.00  0.00     0.067 C 
HETATM    8  C   UNK N   1      20.185  16.926   1.113  0.00  0.00     0.101 C 
HETATM    9  N   UNK N   1      20.280  17.219   0.006  0.00  0.00    -0.191 NA
HETATM   10  C   UNK N   1      21.853  18.373   5.243  0.00  0.00     0.052 C 
ENDROOT
BRANCH   4  11
HETATM   11  N   UNK N   1      21.515  15.557   6.146  0.00  0.00    -0.231 N 
HETATM   12  C   UNK N   1      22.573  14.802   6.512  0.00  0.00     0.333 C 
HETATM   13  O   UNK N   1      23.477  14.442   5.768  0.00  0.00    -0.246 OA
HETATM   14  N   UNK N   1      22.413  14.394   7.779  0.00  0.00    -0.317 N 
HETATM   15  C   UNK N   1      22.992  13.401   8.609  0.00  0.00     0.131 C 
HETATM   16  C   UNK N   1      21.368  15.129   8.360  0.00  0.00     0.210 C 
HETATM   17  C   UNK N   1      22.102  13.520   9.892  0.00  0.00     0.054 C 
HETATM   18  C   UNK N   1      20.900  14.473   9.592  0.00  0.00     0.152 C 
HETATM   19  C   UNK N   1      20.678  15.609   7.199  0.00  0.00     0.258 C 
HETATM   20  O   UNK N   1      19.475  15.815   7.133  0.00  0.00    -0.270 OA
BRANCH  18  21
HETATM   21  O   UNK N   1      19.714  13.757   9.418  0.00  0.00    -0.393 OA
HETATM   22  H   UNK N   1      19.185  12.969   9.222  0.00  0.00     0.210 HD
ENDBRANCH  18  21
ENDBRANCH   4  11
TORSDOF 2
ENDMDL
MODEL 8
REMARK VINA RESULT:      -6.3     13.481     15.328
REMARK  2 active torsions:
REMARK  status: ('A' for Active; 'I' for Inactive)
REMARK    1  A    between atoms: C_4  and  N_10 
REMARK    2  A    between atoms: C_14  and  O_17 
ROOT
HETATM    1 Cl   UNK N   1      25.550  25.886  -7.967  0.00  0.00    -0.082 Cl
HETATM    2  C   UNK N   1      26.234  25.712  -6.343  0.00  0.00     0.062 C 
HETATM    3  C   UNK N   1      27.080  26.666  -5.843  0.00  0.00    -0.011 C 
HETATM    4  C   UNK N   1      27.508  26.556  -4.491  0.00  0.00     0.054 C 
HETATM    5  C   UNK N   1      27.135  25.475  -3.702  0.00  0.00     0.032 C 
HETATM    6  C   UNK N   1      26.443  24.444  -4.270  0.00  0.00     0.027 C 
HETATM    7  C   UNK N   1      26.035  24.565  -5.588  0.00  0.00     0.067 C 
HETATM    8  C   UNK N   1      25.892  23.382  -6.312  0.00  0.00     0.101 C 
HETATM    9  N   UNK N   1      25.773  22.437  -6.954  0.00  0.00    -0.191 NA
HETATM   10  C   UNK N   1      27.596  27.718  -6.795  0.00  0.00     0.052 C 
ENDROOT
BRANCH   4  11
HETATM   11  N   UNK N   1      28.124  27.627  -3.868  0.00  0.00    -0.231 N 
HETATM   12  C   UNK N   1      29.446  27.831  -3.679  0.00  0.00     0.333 C 
HETATM   13  O   UNK N   1      30.344  27.166  -4.180  0.00  0.00    -0.246 OA
HETATM   14  N   UNK N   1      29.623  28.784  -2.754  0.00  0.00    -0.317 N 
HETATM   15  C   UNK N   1      30.699  29.233  -1.948  0.00  0.00     0.131 C 
HETATM   16  C   UNK N   1      28.396  29.429  -2.532  0.00  0.00     0.210 C 
HETATM   17  C   UNK N   1      29.981  30.291  -1.042  0.00  0.00     0.054 C 
HETATM   18  C   UNK N   1      28.439  30.202  -1.279  0.00  0.00     0.152 C 
HETATM   19  C   UNK N   1      27.470  28.459  -3.037  0.00  0.00     0.258 C 
HETATM   20  O   UNK N   1      26.337  28.283  -2.613  0.00  0.00    -0.270 OA
BRANCH  18  21
HETATM   21  O   UNK N   1      27.797  29.563  -0.217  0.00  0.00    -0.393 OA
HETATM   22  H   UNK N   1      27.139  28.976   0.187  0.00  0.00     0.210 HD
ENDBRANCH  18  21
ENDBRANCH   4  11
TORSDOF 2
ENDMDL
MODEL 9
REMARK VINA RESULT:      -6.3     13.361     14.806
REMARK  2 active torsions:
REMARK  status: ('A' for Active; 'I' for Inactive)
REMARK    1  A    between atoms: C_4  and  N_10 
REMARK    2  A    between atoms: C_14  and  O_17 
ROOT
HETATM    1 Cl   UNK N   1      29.660  20.511  -6.678  0.00  0.00    -0.082 Cl
HETATM    2  C   UNK N   1      29.772  21.687  -5.358  0.00  0.00     0.062 C 
HETATM    3  C   UNK N   1      29.304  22.963  -5.526  0.00  0.00    -0.011 C 
HETATM    4  C   UNK N   1      29.297  23.839  -4.407  0.00  0.00     0.054 C 
HETATM    5  C   UNK N   1      29.810  23.443  -3.178  0.00  0.00     0.032 C 
HETATM    6  C   UNK N   1      30.437  22.235  -3.076  0.00  0.00     0.027 C 
HETATM    7  C   UNK N   1      30.438  21.393  -4.176  0.00  0.00     0.067 C 
HETATM    8  C   UNK N   1      31.509  20.509  -4.290  0.00  0.00     0.101 C 
HETATM    9  N   UNK N   1      32.379  19.772  -4.435  0.00  0.00    -0.191 NA
HETATM   10  C   UNK N   1      28.927  23.395  -6.923  0.00  0.00     0.052 C 
ENDROOT
BRANCH   4  11
HETATM   11  N   UNK N   1      28.584  25.025  -4.456  0.00  0.00    -0.231 N 
HETATM   12  C   UNK N   1      29.057  26.270  -4.678  0.00  0.00     0.333 C 
HETATM   13  O   UNK N   1      30.196  26.541  -5.040  0.00  0.00    -0.246 OA
HETATM   14  N   UNK N   1      28.134  27.170  -4.314  0.00  0.00    -0.317 N 
HETATM   15  C   UNK N   1      28.120  28.561  -4.044  0.00  0.00     0.131 C 
HETATM   16  C   UNK N   1      26.913  26.506  -4.114  0.00  0.00     0.210 C 
HETATM   17  C   UNK N   1      26.651  28.759  -3.537  0.00  0.00     0.054 C 
HETATM   18  C   UNK N   1      25.982  27.358  -3.355  0.00  0.00     0.152 C 
HETATM   19  C   UNK N   1      27.351  25.154  -3.933  0.00  0.00     0.258 C 
HETATM   20  O   UNK N   1      26.795  24.324  -3.228  0.00  0.00    -0.270 OA
BRANCH  18  21
HETATM   21  O   UNK N   1      25.892  27.008  -2.007  0.00  0.00    -0.393 OA
HETATM   22  H   UNK N   1      25.989  27.154  -1.053  0.00  0.00     0.210 HD
ENDBRANCH  18  21
ENDBRANCH   4  11
TORSDOF 2
ENDMDL
