REMARK  2 active torsions:
REMARK  status: ('A' for Active; 'I' for Inactive)
REMARK    1  A    between atoms: C_4  and  N_10 
REMARK    2  A    between atoms: C_14  and  O_17 
ROOT
HETATM    1 Cl   UNK N   1      -2.485  -1.021   0.153  0.00  0.00    -0.082 Cl
HETATM    2  C   UNK N   1      -1.551   0.472  -0.035  0.00  0.00     0.062 C 
HETATM    3  C   UNK N   1      -0.236   0.518   0.345  0.00  0.00    -0.011 C 
HETATM    4  C   UNK N   1       0.514   1.692   0.063  0.00  0.00     0.054 C 
HETATM    5  C   UNK N   1      -0.078   2.802  -0.527  0.00  0.00     0.032 C 
HETATM    6  C   UNK N   1      -1.428   2.806  -0.732  0.00  0.00     0.027 C 
HETATM    7  C   UNK N   1      -2.145   1.655  -0.451  0.00  0.00     0.067 C 
HETATM    8  C   UNK N   1      -3.481   1.820  -0.088  0.00  0.00     0.101 C 
HETATM    9  N   UNK N   1      -4.582   1.906   0.229  0.00  0.00    -0.191 NA
HETATM   10  C   UNK N   1       0.307  -0.644   1.142  0.00  0.00     0.052 C 
ENDROOT
BRANCH   4  11
HETATM   11  N   UNK N   1       1.894   1.679   0.171  0.00  0.00    -0.231 N 
HETATM   12  C   UNK N   1       2.738   2.733   0.172  0.00  0.00     0.333 C 
HETATM   13  O   UNK N   1       2.402   3.909   0.240  0.00  0.00    -0.246 OA
HETATM   14  N   UNK N   1       3.988   2.304  -0.048  0.00  0.00    -0.317 N 
HETATM   15  C   UNK N   1       5.217   2.901  -0.427  0.00  0.00     0.131 C 
HETATM   16  C   UNK N   1       4.016   0.908   0.093  0.00  0.00     0.210 C 
HETATM   17  C   UNK N   1       6.128   1.639  -0.601  0.00  0.00     0.054 C 
HETATM   18  C   UNK N   1       5.243   0.354  -0.505  0.00  0.00     0.152 C 
HETATM   19  C   UNK N   1       2.631   0.578  -0.066  0.00  0.00     0.258 C 
HETATM   20  O   UNK N   1       2.208  -0.461  -0.552  0.00  0.00    -0.270 OA
BRANCH  18  21
HETATM   21  O   UNK N   1       5.034  -0.215  -1.762  0.00  0.00    -0.393 OA
HETATM   22  H   UNK N   1       4.620  -0.287  -2.636  0.00  0.00     0.210 HD
ENDBRANCH  18  21
ENDBRANCH   4  11
TORSDOF 2
