REMARK  5 active torsions:
REMARK  status: ('A' for Active; 'I' for Inactive)
REMARK    1  A    between atoms: C_6  and  O_9 
REMARK    2  A    between atoms: O_9  and  C_10 
REMARK    3  A    between atoms: C_13  and  C_17 
REMARK    4  A    between atoms: C_15  and  O_16 
REMARK    5  A    between atoms: C_17  and  C_18 
ROOT
HETATM    1  C   UNK N   1      -0.269   0.546   0.043  0.00  0.00     0.109 A 
HETATM    2  C   UNK N   1      -0.334  -0.666  -0.652  0.00  0.00     0.041 A 
HETATM    3  C   UNK N   1       0.816  -1.424  -0.864  0.00  0.00     0.010 A 
HETATM    4  C   UNK N   1       2.048  -1.000  -0.355  0.00  0.00    -0.050 A 
HETATM    5  C   UNK N   1       2.120   0.188   0.377  0.00  0.00     0.047 A 
HETATM    6  C   UNK N   1       0.974   0.962   0.583  0.00  0.00     0.100 A 
ENDROOT
BRANCH   1   7
HETATM    7  O   UNK N   1      -1.412   1.266   0.176  0.00  0.00    -0.306 OA
BRANCH   7   8
HETATM    8  C   UNK N   1      -1.537   2.615   0.033  0.00  0.00     0.098 A 
HETATM    9  C   UNK N   1      -2.730   3.246   0.423  0.00  0.00     0.069 A 
HETATM   10  C   UNK N   1      -2.874   4.629   0.273  0.00  0.00     0.050 A 
HETATM   11 Cl   UNK N   1      -4.055   2.317   1.103  0.00  0.00    -0.081 Cl
HETATM   12  C   UNK N   1      -1.837   5.389  -0.274  0.00  0.00     0.035 A 
HETATM   13 Cl   UNK N   1      -2.010   7.122  -0.440  0.00  0.00    -0.084 Cl
HETATM   14  C   UNK N   1      -0.658   4.768  -0.686  0.00  0.00     0.026 A 
HETATM   15  C   UNK N   1      -0.511   3.389  -0.540  0.00  0.00     0.041 A 
ENDBRANCH   7   8
ENDBRANCH   1   7
BRANCH   6  16
HETATM   16  O   UNK N   1       1.074   2.091   1.308  0.00  0.00    -0.358 OA
HETATM   17  H   UNK N   1       1.790   2.424   1.812  0.00  0.00     0.217 HD
ENDBRANCH   6  16
BRANCH   4  18
HETATM   18  C   UNK N   1       3.303  -1.766  -0.647  0.00  0.00     0.095 C 
BRANCH  18  19
HETATM   19  C   UNK N   1       3.227  -3.213  -0.277  0.00  0.00     0.013 A 
HETATM   20  N   UNK N   1       4.063  -3.715   0.673  0.00  0.00    -0.369 N 
HETATM   21  C   UNK N   1       4.044  -5.033   1.010  0.00  0.00     0.088 A 
ATOM     22  HN  UNK N   1       4.717  -3.089   1.142  1.00  0.00     0.165 HD
HETATM   23  C   UNK N   1       3.158  -5.908   0.376  0.00  0.00     0.017 A 
HETATM   24  C   UNK N   1       2.299  -5.417  -0.607  0.00  0.00     0.003 A 
HETATM   25  C   UNK N   1       2.335  -4.065  -0.941  0.00  0.00     0.025 A 
ENDBRANCH  18  19
ENDBRANCH   4  18
TORSDOF 5
