MODEL 1
REMARK VINA RESULT:      -7.2      0.000      0.000
REMARK  5 active torsions:
REMARK  status: ('A' for Active; 'I' for Inactive)
REMARK    1  A    between atoms: C_6  and  O_9 
REMARK    2  A    between atoms: O_9  and  C_10 
REMARK    3  A    between atoms: C_13  and  C_17 
REMARK    4  A    between atoms: C_15  and  O_16 
REMARK    5  A    between atoms: C_17  and  C_18 
ROOT
HETATM    1  C   UNK N   1      29.142  17.688   7.321  0.00  0.00     0.109 A 
HETATM    2  C   UNK N   1      30.071  17.150   6.425  0.00  0.00     0.041 A 
HETATM    3  C   UNK N   1      31.434  17.178   6.716  0.00  0.00     0.010 A 
HETATM    4  C   UNK N   1      31.890  17.714   7.924  0.00  0.00    -0.050 A 
HETATM    5  C   UNK N   1      30.969  18.218   8.847  0.00  0.00     0.047 A 
HETATM    6  C   UNK N   1      29.601  18.206   8.558  0.00  0.00     0.100 A 
ENDROOT
BRANCH   1   7
HETATM    7  O   UNK N   1      27.832  17.678   6.963  0.00  0.00    -0.306 OA
BRANCH   7   8
HETATM    8  C   UNK N   1      27.274  18.366   5.928  0.00  0.00     0.098 A 
HETATM    9  C   UNK N   1      26.645  17.662   4.887  0.00  0.00     0.069 A 
HETATM   10  C   UNK N   1      26.076  18.356   3.815  0.00  0.00     0.050 A 
HETATM   11 Cl   UNK N   1      26.562  15.909   4.912  0.00  0.00    -0.081 Cl
HETATM   12  C   UNK N   1      26.137  19.751   3.767  0.00  0.00     0.035 A 
HETATM   13 Cl   UNK N   1      25.405  20.619   2.437  0.00  0.00    -0.084 Cl
HETATM   14  C   UNK N   1      26.780  20.457   4.784  0.00  0.00     0.026 A 
HETATM   15  C   UNK N   1      27.350  19.769   5.855  0.00  0.00     0.041 A 
ENDBRANCH   7   8
ENDBRANCH   1   7
BRANCH   6  16
HETATM   16  O   UNK N   1      28.739  18.681   9.476  0.00  0.00    -0.358 OA
HETATM   17  H   UNK N   1      27.839  18.470   9.625  0.00  0.00     0.217 HD
ENDBRANCH   6  16
BRANCH   4  18
HETATM   18  C   UNK N   1      33.357  17.823   8.210  0.00  0.00     0.095 C 
BRANCH  18  19
HETATM   19  C   UNK N   1      33.848  16.842   9.226  0.00  0.00     0.013 A 
HETATM   20  N   UNK N   1      34.780  17.223  10.143  0.00  0.00    -0.369 N 
HETATM   21  C   UNK N   1      35.274  16.348  11.060  0.00  0.00     0.088 A 
ATOM     22  HN  UNK N   1      35.115  18.186  10.141  1.00  0.00     0.165 HD
HETATM   23  C   UNK N   1      34.831  15.022  11.076  0.00  0.00     0.017 A 
HETATM   24  C   UNK N   1      33.884  14.607  10.140  0.00  0.00     0.003 A 
HETATM   25  C   UNK N   1      33.392  15.517   9.207  0.00  0.00     0.025 A 
ENDBRANCH  18  19
ENDBRANCH   4  18
TORSDOF 5
ENDMDL
MODEL 2
REMARK VINA RESULT:      -7.2      3.899      5.885
REMARK  5 active torsions:
REMARK  status: ('A' for Active; 'I' for Inactive)
REMARK    1  A    between atoms: C_6  and  O_9 
REMARK    2  A    between atoms: O_9  and  C_10 
REMARK    3  A    between atoms: C_13  and  C_17 
REMARK    4  A    between atoms: C_15  and  O_16 
REMARK    5  A    between atoms: C_17  and  C_18 
ROOT
HETATM    1  C   UNK N   1      33.930  16.518   9.476  0.00  0.00     0.109 A 
HETATM    2  C   UNK N   1      33.398  15.240   9.670  0.00  0.00     0.041 A 
HETATM    3  C   UNK N   1      34.126  14.265  10.350  0.00  0.00     0.010 A 
HETATM    4  C   UNK N   1      35.387  14.561  10.878  0.00  0.00    -0.050 A 
HETATM    5  C   UNK N   1      35.913  15.847  10.727  0.00  0.00     0.047 A 
HETATM    6  C   UNK N   1      35.196  16.828  10.034  0.00  0.00     0.100 A 
ENDROOT
BRANCH   1   7
HETATM    7  O   UNK N   1      33.197  17.412   8.763  0.00  0.00    -0.306 OA
BRANCH   7   8
HETATM    8  C   UNK N   1      32.893  17.331   7.438  0.00  0.00     0.098 A 
HETATM    9  C   UNK N   1      31.558  17.142   7.043  0.00  0.00     0.069 A 
HETATM   10  C   UNK N   1      31.234  17.048   5.686  0.00  0.00     0.050 A 
HETATM   11 Cl   UNK N   1      30.278  17.020   8.238  0.00  0.00    -0.081 Cl
HETATM   12  C   UNK N   1      32.236  17.133   4.716  0.00  0.00     0.035 A 
HETATM   13 Cl   UNK N   1      31.827  17.039   3.018  0.00  0.00    -0.084 Cl
HETATM   14  C   UNK N   1      33.567  17.298   5.099  0.00  0.00     0.026 A 
HETATM   15  C   UNK N   1      33.895  17.389   6.451  0.00  0.00     0.041 A 
ENDBRANCH   7   8
ENDBRANCH   1   7
BRANCH   6  16
HETATM   16  O   UNK N   1      35.723  18.061   9.923  0.00  0.00    -0.358 OA
HETATM   17  H   UNK N   1      36.467  18.358   9.438  0.00  0.00     0.217 HD
ENDBRANCH   6  16
BRANCH   4  18
HETATM   18  C   UNK N   1      36.211  13.498  11.538  0.00  0.00     0.095 C 
BRANCH  18  19
HETATM   19  C   UNK N   1      36.047  13.443  13.024  0.00  0.00     0.013 A 
HETATM   20  N   UNK N   1      36.889  14.149  13.826  0.00  0.00    -0.369 N 
HETATM   21  C   UNK N   1      36.790  14.096  15.182  0.00  0.00     0.088 A 
ATOM     22  HN  UNK N   1      37.610  14.732  13.401  1.00  0.00     0.165 HD
HETATM   23  C   UNK N   1      35.811  13.300  15.784  0.00  0.00     0.017 A 
HETATM   24  C   UNK N   1      34.943  12.561  14.981  0.00  0.00     0.003 A 
HETATM   25  C   UNK N   1      35.062  12.626  13.595  0.00  0.00     0.025 A 
ENDBRANCH  18  19
ENDBRANCH   4  18
TORSDOF 5
ENDMDL
MODEL 3
REMARK VINA RESULT:      -7.1      5.258      9.248
REMARK  5 active torsions:
REMARK  status: ('A' for Active; 'I' for Inactive)
REMARK    1  A    between atoms: C_6  and  O_9 
REMARK    2  A    between atoms: O_9  and  C_10 
REMARK    3  A    between atoms: C_13  and  C_17 
REMARK    4  A    between atoms: C_15  and  O_16 
REMARK    5  A    between atoms: C_17  and  C_18 
ROOT
HETATM    1  C   UNK N   1      35.004  16.683   9.297  0.00  0.00     0.109 A 
HETATM    2  C   UNK N   1      34.176  15.590   9.021  0.00  0.00     0.041 A 
HETATM    3  C   UNK N   1      33.048  15.740   8.217  0.00  0.00     0.010 A 
HETATM    4  C   UNK N   1      32.745  16.980   7.646  0.00  0.00    -0.050 A 
HETATM    5  C   UNK N   1      33.586  18.071   7.879  0.00  0.00     0.047 A 
HETATM    6  C   UNK N   1      34.713  17.933   8.696  0.00  0.00     0.100 A 
ENDROOT
BRANCH   1   7
HETATM    7  O   UNK N   1      36.060  16.488  10.127  0.00  0.00    -0.306 OA
BRANCH   7   8
HETATM    8  C   UNK N   1      36.248  15.426  10.959  0.00  0.00     0.098 A 
HETATM    9  C   UNK N   1      36.938  14.295  10.493  0.00  0.00     0.069 A 
HETATM   10  C   UNK N   1      37.130  13.194  11.334  0.00  0.00     0.050 A 
HETATM   11 Cl   UNK N   1      37.571  14.240   8.857  0.00  0.00    -0.081 Cl
HETATM   12  C   UNK N   1      36.628  13.209  12.638  0.00  0.00     0.035 A 
HETATM   13 Cl   UNK N   1      36.888  11.841  13.697  0.00  0.00    -0.084 Cl
HETATM   14  C   UNK N   1      35.921  14.319  13.101  0.00  0.00     0.026 A 
HETATM   15  C   UNK N   1      35.726  15.418  12.265  0.00  0.00     0.041 A 
ENDBRANCH   7   8
ENDBRANCH   1   7
BRANCH   6  16
HETATM   16  O   UNK N   1      35.512  18.999   8.886  0.00  0.00    -0.358 OA
HETATM   17  H   UNK N   1      36.376  19.170   8.567  0.00  0.00     0.217 HD
ENDBRANCH   6  16
BRANCH   4  18
HETATM   18  C   UNK N   1      31.491  17.171   6.847  0.00  0.00     0.095 C 
BRANCH  18  19
HETATM   19  C   UNK N   1      30.277  17.429   7.681  0.00  0.00     0.013 A 
HETATM   20  N   UNK N   1      29.062  16.974   7.269  0.00  0.00    -0.369 N 
HETATM   21  C   UNK N   1      27.932  17.220   7.987  0.00  0.00     0.088 A 
ATOM     22  HN  UNK N   1      28.998  16.437   6.405  1.00  0.00     0.165 HD
HETATM   23  C   UNK N   1      27.998  17.957   9.172  0.00  0.00     0.017 A 
HETATM   24  C   UNK N   1      29.232  18.441   9.607  0.00  0.00     0.003 A 
HETATM   25  C   UNK N   1      30.377  18.182   8.858  0.00  0.00     0.025 A 
ENDBRANCH  18  19
ENDBRANCH   4  18
TORSDOF 5
ENDMDL
MODEL 4
REMARK VINA RESULT:      -6.9      5.746      9.829
REMARK  5 active torsions:
REMARK  status: ('A' for Active; 'I' for Inactive)
REMARK    1  A    between atoms: C_6  and  O_9 
REMARK    2  A    between atoms: O_9  and  C_10 
REMARK    3  A    between atoms: C_13  and  C_17 
REMARK    4  A    between atoms: C_15  and  O_16 
REMARK    5  A    between atoms: C_17  and  C_18 
ROOT
HETATM    1  C   UNK N   1      35.148  14.550  10.463  0.00  0.00     0.109 A 
HETATM    2  C   UNK N   1      33.897  14.294   9.894  0.00  0.00     0.041 A 
HETATM    3  C   UNK N   1      33.188  15.308   9.254  0.00  0.00     0.010 A 
HETATM    4  C   UNK N   1      33.733  16.592   9.142  0.00  0.00    -0.050 A 
HETATM    5  C   UNK N   1      35.000  16.851   9.670  0.00  0.00     0.047 A 
HETATM    6  C   UNK N   1      35.713  15.843  10.325  0.00  0.00     0.100 A 
ENDROOT
BRANCH   1   7
HETATM    7  O   UNK N   1      35.771  13.537  11.117  0.00  0.00    -0.306 OA
BRANCH   7   8
HETATM    8  C   UNK N   1      35.609  13.203  12.428  0.00  0.00     0.098 A 
HETATM    9  C   UNK N   1      34.943  12.013  12.764  0.00  0.00     0.069 A 
HETATM   10  C   UNK N   1      34.763  11.663  14.106  0.00  0.00     0.050 A 
HETATM   11 Cl   UNK N   1      34.328  10.946  11.513  0.00  0.00    -0.081 Cl
HETATM   12  C   UNK N   1      35.236  12.500  15.120  0.00  0.00     0.035 A 
HETATM   13 Cl   UNK N   1      35.031  12.051  16.799  0.00  0.00    -0.084 Cl
HETATM   14  C   UNK N   1      35.878  13.696  14.797  0.00  0.00     0.026 A 
HETATM   15  C   UNK N   1      36.058  14.049  13.460  0.00  0.00     0.041 A 
ENDBRANCH   7   8
ENDBRANCH   1   7
BRANCH   6  16
HETATM   16  O   UNK N   1      36.939  16.121  10.806  0.00  0.00    -0.358 OA
HETATM   17  H   UNK N   1      37.438  16.913  10.766  0.00  0.00     0.217 HD
ENDBRANCH   6  16
BRANCH   4  18
HETATM   18  C   UNK N   1      32.944  17.709   8.528  0.00  0.00     0.095 C 
BRANCH  18  19
HETATM   19  C   UNK N   1      32.595  17.482   7.091  0.00  0.00     0.013 A 
HETATM   20  N   UNK N   1      31.308  17.206   6.742  0.00  0.00    -0.369 N 
HETATM   21  C   UNK N   1      30.961  16.962   5.449  0.00  0.00     0.088 A 
ATOM     22  HN  UNK N   1      30.590  17.183   7.465  1.00  0.00     0.165 HD
HETATM   23  C   UNK N   1      31.932  16.986   4.444  0.00  0.00     0.017 A 
HETATM   24  C   UNK N   1      33.257  17.257   4.781  0.00  0.00     0.003 A 
HETATM   25  C   UNK N   1      33.595  17.501   6.110  0.00  0.00     0.025 A 
ENDBRANCH  18  19
ENDBRANCH   4  18
TORSDOF 5
ENDMDL
MODEL 5
REMARK VINA RESULT:      -6.8      5.787      8.774
REMARK  5 active torsions:
REMARK  status: ('A' for Active; 'I' for Inactive)
REMARK    1  A    between atoms: C_6  and  O_9 
REMARK    2  A    between atoms: O_9  and  C_10 
REMARK    3  A    between atoms: C_13  and  C_17 
REMARK    4  A    between atoms: C_15  and  O_16 
REMARK    5  A    between atoms: C_17  and  C_18 
ROOT
HETATM    1  C   UNK N   1      21.897  19.136   3.247  0.00  0.00     0.109 A 
HETATM    2  C   UNK N   1      22.886  18.368   3.872  0.00  0.00     0.041 A 
HETATM    3  C   UNK N   1      24.202  18.823   3.933  0.00  0.00     0.010 A 
HETATM    4  C   UNK N   1      24.547  20.069   3.400  0.00  0.00    -0.050 A 
HETATM    5  C   UNK N   1      23.561  20.864   2.811  0.00  0.00     0.047 A 
HETATM    6  C   UNK N   1      22.241  20.411   2.732  0.00  0.00     0.100 A 
ENDROOT
BRANCH   1   7
HETATM    7  O   UNK N   1      20.643  18.621   3.173  0.00  0.00    -0.306 OA
BRANCH   7   8
HETATM    8  C   UNK N   1      20.276  17.483   2.520  0.00  0.00     0.098 A 
HETATM    9  C   UNK N   1      20.042  16.307   3.252  0.00  0.00     0.069 A 
HETATM   10  C   UNK N   1      19.673  15.131   2.592  0.00  0.00     0.050 A 
HETATM   11 Cl   UNK N   1      20.207  16.292   4.999  0.00  0.00    -0.081 Cl
HETATM   12  C   UNK N   1      19.544  15.116   1.201  0.00  0.00     0.035 A 
HETATM   13 Cl   UNK N   1      19.060  13.649   0.379  0.00  0.00    -0.084 Cl
HETATM   14  C   UNK N   1      19.797  16.272   0.463  0.00  0.00     0.026 A 
HETATM   15  C   UNK N   1      20.167  17.447   1.117  0.00  0.00     0.041 A 
ENDBRANCH   7   8
ENDBRANCH   1   7
BRANCH   6  16
HETATM   16  O   UNK N   1      21.312  21.209   2.174  0.00  0.00    -0.358 OA
HETATM   17  H   UNK N   1      21.063  22.086   2.387  0.00  0.00     0.217 HD
ENDBRANCH   6  16
BRANCH   4  18
HETATM   18  C   UNK N   1      25.973  20.530   3.389  0.00  0.00     0.095 C 
BRANCH  18  19
HETATM   19  C   UNK N   1      26.748  20.124   4.602  0.00  0.00     0.013 A 
HETATM   20  N   UNK N   1      27.577  19.046   4.548  0.00  0.00    -0.369 N 
HETATM   21  C   UNK N   1      28.271  18.629   5.642  0.00  0.00     0.088 A 
ATOM     22  HN  UNK N   1      27.680  18.540   3.669  1.00  0.00     0.165 HD
HETATM   23  C   UNK N   1      28.141  19.306   6.857  0.00  0.00     0.017 A 
HETATM   24  C   UNK N   1      27.290  20.408   6.938  0.00  0.00     0.003 A 
HETATM   25  C   UNK N   1      26.585  20.818   5.808  0.00  0.00     0.025 A 
ENDBRANCH  18  19
ENDBRANCH   4  18
TORSDOF 5
ENDMDL
MODEL 6
REMARK VINA RESULT:      -6.8      4.327      8.718
REMARK  5 active torsions:
REMARK  status: ('A' for Active; 'I' for Inactive)
REMARK    1  A    between atoms: C_6  and  O_9 
REMARK    2  A    between atoms: O_9  and  C_10 
REMARK    3  A    between atoms: C_13  and  C_17 
REMARK    4  A    between atoms: C_15  and  O_16 
REMARK    5  A    between atoms: C_17  and  C_18 
ROOT
HETATM    1  C   UNK N   1      33.276  17.128   8.003  0.00  0.00     0.109 A 
HETATM    2  C   UNK N   1      32.174  16.603   8.685  0.00  0.00     0.041 A 
HETATM    3  C   UNK N   1      30.944  16.464   8.044  0.00  0.00     0.010 A 
HETATM    4  C   UNK N   1      30.803  16.818   6.698  0.00  0.00    -0.050 A 
HETATM    5  C   UNK N   1      31.906  17.305   5.993  0.00  0.00     0.047 A 
HETATM    6  C   UNK N   1      33.141  17.460   6.632  0.00  0.00     0.100 A 
ENDROOT
BRANCH   1   7
HETATM    7  O   UNK N   1      34.435  17.286   8.692  0.00  0.00    -0.306 OA
BRANCH   7   8
HETATM    8  C   UNK N   1      35.039  16.353   9.480  0.00  0.00     0.098 A 
HETATM    9  C   UNK N   1      35.534  15.172   8.901  0.00  0.00     0.069 A 
HETATM   10  C   UNK N   1      36.148  14.202   9.700  0.00  0.00     0.050 A 
HETATM   11 Cl   UNK N   1      35.393  14.893   7.174  0.00  0.00    -0.081 Cl
HETATM   12  C   UNK N   1      36.264  14.398  11.078  0.00  0.00     0.035 A 
HETATM   13 Cl   UNK N   1      37.053  13.194  12.073  0.00  0.00    -0.084 Cl
HETATM   14  C   UNK N   1      35.755  15.556  11.665  0.00  0.00     0.026 A 
HETATM   15  C   UNK N   1      35.140  16.524  10.873  0.00  0.00     0.041 A 
ENDBRANCH   7   8
ENDBRANCH   1   7
BRANCH   6  16
HETATM   16  O   UNK N   1      34.188  17.914   5.920  0.00  0.00    -0.358 OA
HETATM   17  H   UNK N   1      35.108  17.837   6.082  0.00  0.00     0.217 HD
ENDBRANCH   6  16
BRANCH   4  18
HETATM   18  C   UNK N   1      29.466  16.749   6.024  0.00  0.00     0.095 C 
BRANCH  18  19
HETATM   19  C   UNK N   1      28.779  18.073   5.909  0.00  0.00     0.013 A 
HETATM   20  N   UNK N   1      28.692  18.689   4.698  0.00  0.00    -0.369 N 
HETATM   21  C   UNK N   1      28.104  19.908   4.563  0.00  0.00     0.088 A 
ATOM     22  HN  UNK N   1      29.075  18.225   3.874  1.00  0.00     0.165 HD
HETATM   23  C   UNK N   1      27.576  20.562   5.679  0.00  0.00     0.017 A 
HETATM   24  C   UNK N   1      27.663  19.953   6.931  0.00  0.00     0.003 A 
HETATM   25  C   UNK N   1      28.271  18.706   7.051  0.00  0.00     0.025 A 
ENDBRANCH  18  19
ENDBRANCH   4  18
TORSDOF 5
ENDMDL
MODEL 7
REMARK VINA RESULT:      -6.7      5.462      9.370
REMARK  5 active torsions:
REMARK  status: ('A' for Active; 'I' for Inactive)
REMARK    1  A    between atoms: C_6  and  O_9 
REMARK    2  A    between atoms: O_9  and  C_10 
REMARK    3  A    between atoms: C_13  and  C_17 
REMARK    4  A    between atoms: C_15  and  O_16 
REMARK    5  A    between atoms: C_17  and  C_18 
ROOT
HETATM    1  C   UNK N   1      34.905  16.685   9.264  0.00  0.00     0.109 A 
HETATM    2  C   UNK N   1      34.046  15.605   9.036  0.00  0.00     0.041 A 
HETATM    3  C   UNK N   1      32.861  15.780   8.324  0.00  0.00     0.010 A 
HETATM    4  C   UNK N   1      32.529  17.033   7.798  0.00  0.00    -0.050 A 
HETATM    5  C   UNK N   1      33.398  18.111   7.983  0.00  0.00     0.047 A 
HETATM    6  C   UNK N   1      34.583  17.948   8.708  0.00  0.00     0.100 A 
ENDROOT
BRANCH   1   7
HETATM    7  O   UNK N   1      36.021  16.466  10.006  0.00  0.00    -0.306 OA
BRANCH   7   8
HETATM    8  C   UNK N   1      36.226  15.430  10.867  0.00  0.00     0.098 A 
HETATM    9  C   UNK N   1      36.880  14.272  10.415  0.00  0.00     0.069 A 
HETATM   10  C   UNK N   1      37.089  13.198  11.287  0.00  0.00     0.050 A 
HETATM   11 Cl   UNK N   1      37.445  14.150   8.758  0.00  0.00    -0.081 Cl
HETATM   12  C   UNK N   1      36.641  13.268  12.608  0.00  0.00     0.035 A 
HETATM   13 Cl   UNK N   1      36.923  11.933  13.704  0.00  0.00    -0.084 Cl
HETATM   14  C   UNK N   1      35.970  14.404  13.060  0.00  0.00     0.026 A 
HETATM   15  C   UNK N   1      35.757  15.476  12.193  0.00  0.00     0.041 A 
ENDBRANCH   7   8
ENDBRANCH   1   7
BRANCH   6  16
HETATM   16  O   UNK N   1      35.407  19.002   8.852  0.00  0.00    -0.358 OA
HETATM   17  H   UNK N   1      36.319  19.087   8.655  0.00  0.00     0.217 HD
ENDBRANCH   6  16
BRANCH   4  18
HETATM   18  C   UNK N   1      31.219  17.250   7.102  0.00  0.00     0.095 C 
BRANCH  18  19
HETATM   19  C   UNK N   1      31.280  17.042   5.623  0.00  0.00     0.013 A 
HETATM   20  N   UNK N   1      30.257  16.409   4.984  0.00  0.00    -0.369 N 
HETATM   21  C   UNK N   1      30.295  16.173   3.645  0.00  0.00     0.088 A 
ATOM     22  HN  UNK N   1      29.446  16.106   5.522  1.00  0.00     0.165 HD
HETATM   23  C   UNK N   1      31.400  16.577   2.891  0.00  0.00     0.017 A 
HETATM   24  C   UNK N   1      32.463  17.218   3.526  0.00  0.00     0.003 A 
HETATM   25  C   UNK N   1      32.408  17.448   4.899  0.00  0.00     0.025 A 
ENDBRANCH  18  19
ENDBRANCH   4  18
TORSDOF 5
ENDMDL
MODEL 8
REMARK VINA RESULT:      -6.4      7.381     10.504
REMARK  5 active torsions:
REMARK  status: ('A' for Active; 'I' for Inactive)
REMARK    1  A    between atoms: C_6  and  O_9 
REMARK    2  A    between atoms: O_9  and  C_10 
REMARK    3  A    between atoms: C_13  and  C_17 
REMARK    4  A    between atoms: C_15  and  O_16 
REMARK    5  A    between atoms: C_17  and  C_18 
ROOT
HETATM    1  C   UNK N   1      36.046  13.292  13.308  0.00  0.00     0.109 A 
HETATM    2  C   UNK N   1      36.769  13.943  14.312  0.00  0.00     0.041 A 
HETATM    3  C   UNK N   1      36.396  13.817  15.649  0.00  0.00     0.010 A 
HETATM    4  C   UNK N   1      35.312  13.009  16.009  0.00  0.00    -0.050 A 
HETATM    5  C   UNK N   1      34.607  12.320  15.019  0.00  0.00     0.047 A 
HETATM    6  C   UNK N   1      34.965  12.451  13.674  0.00  0.00     0.100 A 
ENDROOT
BRANCH   1   7
HETATM    7  O   UNK N   1      36.425  13.491  12.019  0.00  0.00    -0.306 OA
BRANCH   7   8
HETATM    8  C   UNK N   1      35.932  14.435  11.170  0.00  0.00     0.098 A 
HETATM    9  C   UNK N   1      35.540  14.063   9.873  0.00  0.00     0.069 A 
HETATM   10  C   UNK N   1      35.040  15.025   8.989  0.00  0.00     0.050 A 
HETATM   11 Cl   UNK N   1      35.667  12.395   9.341  0.00  0.00    -0.081 Cl
HETATM   12  C   UNK N   1      34.938  16.360   9.386  0.00  0.00     0.035 A 
HETATM   13 Cl   UNK N   1      34.291  17.557   8.286  0.00  0.00    -0.084 Cl
HETATM   14  C   UNK N   1      35.347  16.742  10.663  0.00  0.00     0.026 A 
HETATM   15  C   UNK N   1      35.847  15.787  11.548  0.00  0.00     0.041 A 
ENDBRANCH   7   8
ENDBRANCH   1   7
BRANCH   6  16
HETATM   16  O   UNK N   1      34.278  11.759  12.748  0.00  0.00    -0.358 OA
HETATM   17  H   UNK N   1      34.526  11.008  12.247  0.00  0.00     0.217 HD
ENDBRANCH   6  16
BRANCH   4  18
HETATM   18  C   UNK N   1      34.853  12.932  17.434  0.00  0.00     0.095 C 
BRANCH  18  19
HETATM   19  C   UNK N   1      35.483  11.821  18.212  0.00  0.00     0.013 A 
HETATM   20  N   UNK N   1      36.007  10.747  17.559  0.00  0.00    -0.369 N 
HETATM   21  C   UNK N   1      36.557   9.704  18.236  0.00  0.00     0.088 A 
ATOM     22  HN  UNK N   1      35.985  10.725  16.540  1.00  0.00     0.165 HD
HETATM   23  C   UNK N   1      36.593   9.713  19.633  0.00  0.00     0.017 A 
HETATM   24  C   UNK N   1      36.054  10.799  20.323  0.00  0.00     0.003 A 
HETATM   25  C   UNK N   1      35.491  11.857  19.612  0.00  0.00     0.025 A 
ENDBRANCH  18  19
ENDBRANCH   4  18
TORSDOF 5
ENDMDL
MODEL 9
REMARK VINA RESULT:      -6.4      6.785     10.669
REMARK  5 active torsions:
REMARK  status: ('A' for Active; 'I' for Inactive)
REMARK    1  A    between atoms: C_6  and  O_9 
REMARK    2  A    between atoms: O_9  and  C_10 
REMARK    3  A    between atoms: C_13  and  C_17 
REMARK    4  A    between atoms: C_15  and  O_16 
REMARK    5  A    between atoms: C_17  and  C_18 
ROOT
HETATM    1  C   UNK N   1      35.938  12.351  11.439  0.00  0.00     0.109 A 
HETATM    2  C   UNK N   1      34.693  12.111  10.850  0.00  0.00     0.041 A 
HETATM    3  C   UNK N   1      34.343  12.735   9.654  0.00  0.00     0.010 A 
HETATM    4  C   UNK N   1      35.246  13.584   9.007  0.00  0.00    -0.050 A 
HETATM    5  C   UNK N   1      36.510  13.800   9.563  0.00  0.00     0.047 A 
HETATM    6  C   UNK N   1      36.864  13.190  10.770  0.00  0.00     0.100 A 
ENDROOT
BRANCH   1   7
HETATM    7  O   UNK N   1      36.205  11.755  12.629  0.00  0.00    -0.306 OA
BRANCH   7   8
HETATM    8  C   UNK N   1      35.973  12.281  13.864  0.00  0.00     0.098 A 
HETATM    9  C   UNK N   1      34.852  11.860  14.598  0.00  0.00     0.069 A 
HETATM   10  C   UNK N   1      34.598  12.399  15.864  0.00  0.00     0.050 A 
HETATM   11 Cl   UNK N   1      33.753  10.657  13.946  0.00  0.00    -0.081 Cl
HETATM   12  C   UNK N   1      35.453  13.365  16.401  0.00  0.00     0.035 A 
HETATM   13 Cl   UNK N   1      35.147  14.022  17.993  0.00  0.00    -0.084 Cl
HETATM   14  C   UNK N   1      36.556  13.806  15.670  0.00  0.00     0.026 A 
HETATM   15  C   UNK N   1      36.811  13.273  14.407  0.00  0.00     0.041 A 
ENDBRANCH   7   8
ENDBRANCH   1   7
BRANCH   6  16
HETATM   16  O   UNK N   1      38.095  13.403  11.269  0.00  0.00    -0.358 OA
HETATM   17  H   UNK N   1      38.825  12.821  11.348  0.00  0.00     0.217 HD
ENDBRANCH   6  16
BRANCH   4  18
HETATM   18  C   UNK N   1      34.850  14.322   7.764  0.00  0.00     0.095 C 
BRANCH  18  19
HETATM   19  C   UNK N   1      33.986  15.516   8.020  0.00  0.00     0.013 A 
HETATM   20  N   UNK N   1      32.637  15.368   8.126  0.00  0.00    -0.369 N 
HETATM   21  C   UNK N   1      31.819  16.437   8.325  0.00  0.00     0.088 A 
ATOM     22  HN  UNK N   1      32.232  14.435   8.054  1.00  0.00     0.165 HD
HETATM   23  C   UNK N   1      32.355  17.724   8.422  0.00  0.00     0.017 A 
HETATM   24  C   UNK N   1      33.734  17.900   8.307  0.00  0.00     0.003 A 
HETATM   25  C   UNK N   1      34.555  16.794   8.100  0.00  0.00     0.025 A 
ENDBRANCH  18  19
ENDBRANCH   4  18
TORSDOF 5
ENDMDL
