MODEL 1
REMARK VINA RESULT:      -7.2      0.000      0.000
REMARK  5 active torsions:
REMARK  status: ('A' for Active; 'I' for Inactive)
REMARK    1  A    between atoms: C_7  and  N_8 
REMARK       I    between atoms: C_9  and  N_8 
REMARK    2  A    between atoms: C_9  and  C_11 
REMARK    3  A    between atoms: N_17  and  C_12 
REMARK    4  A    between atoms: C_18  and  N_17 
REMARK    5  A    between atoms: C_18  and  C_19 
ROOT
HETATM    1  C   UNK N   1      26.455  25.779  -4.145  0.00  0.00     0.058 A 
HETATM    2  C   UNK N   1      25.576  25.747  -5.269  0.00  0.00     0.044 A 
HETATM    3  C   UNK N   1      24.807  26.877  -5.572  0.00  0.00     0.030 A 
HETATM    4  C   UNK N   1      24.870  28.019  -4.775  0.00  0.00     0.002 A 
HETATM    5  C   UNK N   1      25.708  28.047  -3.662  0.00  0.00     0.001 A 
HETATM    6  C   UNK N   1      26.498  26.939  -3.355  0.00  0.00     0.019 A 
ENDROOT
BRANCH   1   7
HETATM    7  C   UNK N   1      27.337  24.636  -3.765  0.00  0.00     0.258 C 
HETATM    8  N   UNK N   1      28.486  24.411  -4.465  0.00  0.00    -0.323 N 
HETATM    9  H   UNK N   1      28.641  24.955  -5.271  0.00  0.00     0.169 HD
HETATM   10  O   UNK N   1      27.021  23.892  -2.853  0.00  0.00    -0.267 OA
BRANCH   8  11
HETATM   11  C   UNK N   1      29.481  23.449  -4.123  0.00  0.00     0.035 A 
HETATM   12  C   UNK N   1      29.683  22.349  -4.964  0.00  0.00     0.031 A 
HETATM   13  C   UNK N   1      30.688  21.417  -4.682  0.00  0.00     0.026 A 
HETATM   14  C   UNK N   1      31.508  21.589  -3.563  0.00  0.00     0.034 A 
HETATM   15 Cl   UNK N   1      32.777  20.435  -3.218  0.00  0.00    -0.084 Cl
HETATM   16  C   UNK N   1      31.321  22.689  -2.723  0.00  0.00     0.026 A 
HETATM   17  C   UNK N   1      30.314  23.615  -3.001  0.00  0.00     0.031 A 
ENDBRANCH   8  11
ENDBRANCH   1   7
BRANCH   2  18
HETATM   18  N   UNK N   1      25.409  24.594  -6.074  0.00  0.00    -0.385 N 
HETATM   19  H   UNK N   1      24.865  23.839  -5.749  0.00  0.00     0.160 HD
BRANCH  18  20
HETATM   20  C   UNK N   1      26.035  24.529  -7.372  0.00  0.00     0.158 C 
BRANCH  20  21
HETATM   21  C   UNK N   1      25.871  23.187  -8.000  0.00  0.00    -0.038 A 
HETATM   22  C   UNK N   1      25.346  22.140  -7.241  0.00  0.00     0.025 A 
HETATM   23  C   UNK N   1      25.154  20.891  -7.836  0.00  0.00     0.088 A 
HETATM   24  N   UNK N   1      25.468  20.704  -9.146  0.00  0.00    -0.375 N 
HETATM   25  C   UNK N   1      25.977  21.713  -9.905  0.00  0.00     0.088 A 
ATOM     26  HN  UNK N   1      25.321  19.787  -9.568  1.00  0.00     0.164 HD
HETATM   27  C   UNK N   1      26.186  22.977  -9.345  0.00  0.00     0.025 A 
ENDBRANCH  20  21
ENDBRANCH  18  20
ENDBRANCH   2  18
TORSDOF 5
ENDMDL
MODEL 2
REMARK VINA RESULT:      -7.0     21.631     25.200
REMARK  5 active torsions:
REMARK  status: ('A' for Active; 'I' for Inactive)
REMARK    1  A    between atoms: C_7  and  N_8 
REMARK       I    between atoms: C_9  and  N_8 
REMARK    2  A    between atoms: C_9  and  C_11 
REMARK    3  A    between atoms: N_17  and  C_12 
REMARK    4  A    between atoms: C_18  and  N_17 
REMARK    5  A    between atoms: C_18  and  C_19 
ROOT
HETATM    1  C   UNK N   1      35.251  12.658  16.822  0.00  0.00     0.058 A 
HETATM    2  C   UNK N   1      35.354  11.352  17.390  0.00  0.00     0.044 A 
HETATM    3  C   UNK N   1      35.346  11.204  18.782  0.00  0.00     0.030 A 
HETATM    4  C   UNK N   1      35.266  12.318  19.618  0.00  0.00     0.002 A 
HETATM    5  C   UNK N   1      35.191  13.596  19.070  0.00  0.00     0.001 A 
HETATM    6  C   UNK N   1      35.176  13.764  17.685  0.00  0.00     0.019 A 
ENDROOT
BRANCH   1   7
HETATM    7  C   UNK N   1      35.219  12.909  15.351  0.00  0.00     0.258 C 
HETATM    8  N   UNK N   1      36.263  13.556  14.756  0.00  0.00    -0.323 N 
HETATM    9  H   UNK N   1      36.959  13.930  15.343  0.00  0.00     0.169 HD
HETATM   10  O   UNK N   1      34.257  12.562  14.689  0.00  0.00    -0.267 OA
BRANCH   8  11
HETATM   11  C   UNK N   1      36.424  13.734  13.351  0.00  0.00     0.035 A 
HETATM   12  C   UNK N   1      37.009  12.710  12.598  0.00  0.00     0.031 A 
HETATM   13  C   UNK N   1      37.131  12.833  11.210  0.00  0.00     0.026 A 
HETATM   14  C   UNK N   1      36.655  13.978  10.564  0.00  0.00     0.034 A 
HETATM   15 Cl   UNK N   1      36.791  14.127   8.826  0.00  0.00    -0.084 Cl
HETATM   16  C   UNK N   1      36.062  15.001  11.305  0.00  0.00     0.026 A 
HETATM   17  C   UNK N   1      35.945  14.880  12.692  0.00  0.00     0.031 A 
ENDBRANCH   8  11
ENDBRANCH   1   7
BRANCH   2  18
HETATM   18  N   UNK N   1      35.514  10.188  16.599  0.00  0.00    -0.385 N 
HETATM   19  H   UNK N   1      34.727   9.655  16.338  0.00  0.00     0.160 HD
BRANCH  18  20
HETATM   20  C   UNK N   1      36.833   9.785  16.176  0.00  0.00     0.158 C 
BRANCH  20  21
HETATM   21  C   UNK N   1      36.899   9.559  14.704  0.00  0.00    -0.038 A 
HETATM   22  C   UNK N   1      38.146   9.438  14.089  0.00  0.00     0.025 A 
HETATM   23  C   UNK N   1      38.213   9.187  12.718  0.00  0.00     0.088 A 
HETATM   24  N   UNK N   1      37.071   9.052  11.992  0.00  0.00    -0.375 N 
HETATM   25  C   UNK N   1      35.844   9.162  12.573  0.00  0.00     0.088 A 
ATOM     26  HN  UNK N   1      37.134   8.867  10.991  1.00  0.00     0.164 HD
HETATM   27  C   UNK N   1      35.735   9.416  13.944  0.00  0.00     0.025 A 
ENDBRANCH  20  21
ENDBRANCH  18  20
ENDBRANCH   2  18
TORSDOF 5
ENDMDL
MODEL 3
REMARK VINA RESULT:      -7.0      3.172      6.632
REMARK  5 active torsions:
REMARK  status: ('A' for Active; 'I' for Inactive)
REMARK    1  A    between atoms: C_7  and  N_8 
REMARK       I    between atoms: C_9  and  N_8 
REMARK    2  A    between atoms: C_9  and  C_11 
REMARK    3  A    between atoms: N_17  and  C_12 
REMARK    4  A    between atoms: C_18  and  N_17 
REMARK    5  A    between atoms: C_18  and  C_19 
ROOT
HETATM    1  C   UNK N   1      26.518  22.974  -6.809  0.00  0.00     0.058 A 
HETATM    2  C   UNK N   1      27.525  22.186  -7.442  0.00  0.00     0.044 A 
HETATM    3  C   UNK N   1      27.156  21.032  -8.145  0.00  0.00     0.030 A 
HETATM    4  C   UNK N   1      25.822  20.632  -8.210  0.00  0.00     0.002 A 
HETATM    5  C   UNK N   1      24.837  21.384  -7.574  0.00  0.00     0.001 A 
HETATM    6  C   UNK N   1      25.182  22.548  -6.886  0.00  0.00     0.019 A 
ENDROOT
BRANCH   1   7
HETATM    7  C   UNK N   1      26.813  24.234  -6.067  0.00  0.00     0.258 C 
HETATM    8  N   UNK N   1      26.290  25.414  -6.510  0.00  0.00    -0.323 N 
HETATM    9  H   UNK N   1      25.818  25.405  -7.374  0.00  0.00     0.169 HD
HETATM   10  O   UNK N   1      27.535  24.216  -5.086  0.00  0.00    -0.267 OA
BRANCH   8  11
HETATM   11  C   UNK N   1      26.376  26.660  -5.822  0.00  0.00     0.035 A 
HETATM   12  C   UNK N   1      27.266  27.635  -6.287  0.00  0.00     0.031 A 
HETATM   13  C   UNK N   1      27.333  28.886  -5.666  0.00  0.00     0.026 A 
HETATM   14  C   UNK N   1      26.498  29.175  -4.582  0.00  0.00     0.034 A 
HETATM   15 Cl   UNK N   1      26.568  30.745  -3.813  0.00  0.00    -0.084 Cl
HETATM   16  C   UNK N   1      25.601  28.212  -4.116  0.00  0.00     0.026 A 
HETATM   17  C   UNK N   1      25.538  26.961  -4.733  0.00  0.00     0.031 A 
ENDBRANCH   8  11
ENDBRANCH   1   7
BRANCH   2  18
HETATM   18  N   UNK N   1      28.905  22.494  -7.350  0.00  0.00    -0.385 N 
HETATM   19  H   UNK N   1      29.197  23.430  -7.253  0.00  0.00     0.160 HD
BRANCH  18  20
HETATM   20  C   UNK N   1      29.881  21.433  -7.396  0.00  0.00     0.158 C 
BRANCH  20  21
HETATM   21  C   UNK N   1      30.409  21.106  -6.042  0.00  0.00    -0.038 A 
HETATM   22  C   UNK N   1      31.416  20.147  -5.917  0.00  0.00     0.025 A 
HETATM   23  C   UNK N   1      31.942  19.865  -4.655  0.00  0.00     0.088 A 
HETATM   24  N   UNK N   1      31.483  20.529  -3.561  0.00  0.00    -0.375 N 
HETATM   25  C   UNK N   1      30.506  21.471  -3.661  0.00  0.00     0.088 A 
ATOM     26  HN  UNK N   1      31.878  20.314  -2.645  1.00  0.00     0.164 HD
HETATM   27  C   UNK N   1      29.951  21.780  -4.907  0.00  0.00     0.025 A 
ENDBRANCH  20  21
ENDBRANCH  18  20
ENDBRANCH   2  18
TORSDOF 5
ENDMDL
MODEL 4
REMARK VINA RESULT:      -7.0      2.360      4.974
REMARK  5 active torsions:
REMARK  status: ('A' for Active; 'I' for Inactive)
REMARK    1  A    between atoms: C_7  and  N_8 
REMARK       I    between atoms: C_9  and  N_8 
REMARK    2  A    between atoms: C_9  and  C_11 
REMARK    3  A    between atoms: N_17  and  C_12 
REMARK    4  A    between atoms: C_18  and  N_17 
REMARK    5  A    between atoms: C_18  and  C_19 
ROOT
HETATM    1  C   UNK N   1      26.225  25.324  -5.362  0.00  0.00     0.058 A 
HETATM    2  C   UNK N   1      26.888  25.909  -4.242  0.00  0.00     0.044 A 
HETATM    3  C   UNK N   1      26.493  27.175  -3.794  0.00  0.00     0.030 A 
HETATM    4  C   UNK N   1      25.479  27.879  -4.443  0.00  0.00     0.002 A 
HETATM    5  C   UNK N   1      24.844  27.322  -5.551  0.00  0.00     0.001 A 
HETATM    6  C   UNK N   1      25.210  26.053  -6.002  0.00  0.00     0.019 A 
ENDROOT
BRANCH   1   7
HETATM    7  C   UNK N   1      26.556  23.967  -5.890  0.00  0.00     0.258 C 
HETATM    8  N   UNK N   1      27.721  23.777  -6.574  0.00  0.00    -0.323 N 
HETATM    9  H   UNK N   1      28.258  24.575  -6.787  0.00  0.00     0.169 HD
HETATM   10  O   UNK N   1      25.781  23.041  -5.733  0.00  0.00    -0.267 OA
BRANCH   8  11
HETATM   11  C   UNK N   1      28.223  22.515  -7.005  0.00  0.00     0.035 A 
HETATM   12  C   UNK N   1      29.251  21.906  -6.276  0.00  0.00     0.031 A 
HETATM   13  C   UNK N   1      29.727  20.642  -6.643  0.00  0.00     0.026 A 
HETATM   14  C   UNK N   1      29.167  19.974  -7.736  0.00  0.00     0.034 A 
HETATM   15 Cl   UNK N   1      29.748  18.387  -8.187  0.00  0.00    -0.084 Cl
HETATM   16  C   UNK N   1      28.135  20.570  -8.464  0.00  0.00     0.026 A 
HETATM   17  C   UNK N   1      27.664  21.833  -8.101  0.00  0.00     0.031 A 
ENDBRANCH   8  11
ENDBRANCH   1   7
BRANCH   2  18
HETATM   18  N   UNK N   1      27.976  25.282  -3.586  0.00  0.00    -0.385 N 
HETATM   19  H   UNK N   1      27.809  24.609  -2.886  0.00  0.00     0.160 HD
BRANCH  18  20
HETATM   20  C   UNK N   1      29.328  25.630  -3.948  0.00  0.00     0.158 C 
BRANCH  20  21
HETATM   21  C   UNK N   1      30.265  24.486  -3.760  0.00  0.00    -0.038 A 
HETATM   22  C   UNK N   1      29.939  23.483  -2.845  0.00  0.00     0.025 A 
HETATM   23  C   UNK N   1      30.793  22.389  -2.693  0.00  0.00     0.088 A 
HETATM   24  N   UNK N   1      31.927  22.300  -3.439  0.00  0.00    -0.375 N 
HETATM   25  C   UNK N   1      32.260  23.264  -4.340  0.00  0.00     0.088 A 
ATOM     26  HN  UNK N   1      32.541  21.495  -3.319  1.00  0.00     0.164 HD
HETATM   27  C   UNK N   1      31.432  24.377  -4.520  0.00  0.00     0.025 A 
ENDBRANCH  20  21
ENDBRANCH  18  20
ENDBRANCH   2  18
TORSDOF 5
ENDMDL
MODEL 5
REMARK VINA RESULT:      -6.9     18.756     22.285
REMARK  5 active torsions:
REMARK  status: ('A' for Active; 'I' for Inactive)
REMARK    1  A    between atoms: C_7  and  N_8 
REMARK       I    between atoms: C_9  and  N_8 
REMARK    2  A    between atoms: C_9  and  C_11 
REMARK    3  A    between atoms: N_17  and  C_12 
REMARK    4  A    between atoms: C_18  and  N_17 
REMARK    5  A    between atoms: C_18  and  C_19 
ROOT
HETATM    1  C   UNK N   1      36.710  13.399  11.890  0.00  0.00     0.058 A 
HETATM    2  C   UNK N   1      36.279  14.306  10.875  0.00  0.00     0.044 A 
HETATM    3  C   UNK N   1      36.982  14.369   9.665  0.00  0.00     0.030 A 
HETATM    4  C   UNK N   1      38.110  13.577   9.452  0.00  0.00     0.002 A 
HETATM    5  C   UNK N   1      38.549  12.708  10.448  0.00  0.00     0.001 A 
HETATM    6  C   UNK N   1      37.851  12.615  11.653  0.00  0.00     0.019 A 
ENDROOT
BRANCH   1   7
HETATM    7  C   UNK N   1      36.006  13.240  13.196  0.00  0.00     0.258 C 
HETATM    8  N   UNK N   1      36.733  13.047  14.334  0.00  0.00    -0.323 N 
HETATM    9  H   UNK N   1      37.704  12.913  14.235  0.00  0.00     0.169 HD
HETATM   10  O   UNK N   1      34.789  13.258  13.244  0.00  0.00    -0.267 OA
BRANCH   8  11
HETATM   11  C   UNK N   1      36.199  13.022  15.655  0.00  0.00     0.035 A 
HETATM   12  C   UNK N   1      35.835  11.794  16.219  0.00  0.00     0.031 A 
HETATM   13  C   UNK N   1      35.359  11.732  17.533  0.00  0.00     0.026 A 
HETATM   14  C   UNK N   1      35.257  12.898  18.297  0.00  0.00     0.034 A 
HETATM   15 Cl   UNK N   1      34.678  12.821  19.946  0.00  0.00    -0.084 Cl
HETATM   16  C   UNK N   1      35.627  14.126  17.746  0.00  0.00     0.026 A 
HETATM   17  C   UNK N   1      36.097  14.189  16.433  0.00  0.00     0.031 A 
ENDBRANCH   8  11
ENDBRANCH   1   7
BRANCH   2  18
HETATM   18  N   UNK N   1      35.189  15.191  11.057  0.00  0.00    -0.385 N 
HETATM   19  H   UNK N   1      35.258  15.936  11.698  0.00  0.00     0.160 HD
BRANCH  18  20
HETATM   20  C   UNK N   1      33.976  15.000  10.299  0.00  0.00     0.158 C 
BRANCH  20  21
HETATM   21  C   UNK N   1      33.751  16.105   9.325  0.00  0.00    -0.038 A 
HETATM   22  C   UNK N   1      32.524  16.190   8.665  0.00  0.00     0.025 A 
HETATM   23  C   UNK N   1      32.292  17.246   7.781  0.00  0.00     0.088 A 
HETATM   24  N   UNK N   1      33.253  18.186   7.575  0.00  0.00    -0.375 N 
HETATM   25  C   UNK N   1      34.454  18.124   8.212  0.00  0.00     0.088 A 
ATOM     26  HN  UNK N   1      33.070  18.953   6.928  1.00  0.00     0.164 HD
HETATM   27  C   UNK N   1      34.726  17.081   9.103  0.00  0.00     0.025 A 
ENDBRANCH  20  21
ENDBRANCH  18  20
ENDBRANCH   2  18
TORSDOF 5
ENDMDL
MODEL 6
REMARK VINA RESULT:      -6.8     15.792     18.995
REMARK  5 active torsions:
REMARK  status: ('A' for Active; 'I' for Inactive)
REMARK    1  A    between atoms: C_7  and  N_8 
REMARK       I    between atoms: C_9  and  N_8 
REMARK    2  A    between atoms: C_9  and  C_11 
REMARK    3  A    between atoms: N_17  and  C_12 
REMARK    4  A    between atoms: C_18  and  N_17 
REMARK    5  A    between atoms: C_18  and  C_19 
ROOT
HETATM    1  C   UNK N   1      34.354  15.191   8.809  0.00  0.00     0.058 A 
HETATM    2  C   UNK N   1      33.531  16.231   8.280  0.00  0.00     0.044 A 
HETATM    3  C   UNK N   1      33.639  16.573   6.927  0.00  0.00     0.030 A 
HETATM    4  C   UNK N   1      34.557  15.928   6.098  0.00  0.00     0.002 A 
HETATM    5  C   UNK N   1      35.379  14.929   6.614  0.00  0.00     0.001 A 
HETATM    6  C   UNK N   1      35.273  14.559   7.955  0.00  0.00     0.019 A 
ENDROOT
BRANCH   1   7
HETATM    7  C   UNK N   1      34.285  14.737  10.229  0.00  0.00     0.258 C 
HETATM    8  N   UNK N   1      35.326  14.034  10.761  0.00  0.00    -0.323 N 
HETATM    9  H   UNK N   1      36.048  13.758  10.150  0.00  0.00     0.169 HD
HETATM   10  O   UNK N   1      33.297  14.971  10.902  0.00  0.00    -0.267 OA
BRANCH   8  11
HETATM   11  C   UNK N   1      35.452  13.666  12.133  0.00  0.00     0.035 A 
HETATM   12  C   UNK N   1      36.148  14.512  13.004  0.00  0.00     0.031 A 
HETATM   13  C   UNK N   1      36.242  14.204  14.365  0.00  0.00     0.026 A 
HETATM   14  C   UNK N   1      35.625  13.054  14.867  0.00  0.00     0.034 A 
HETATM   15 Cl   UNK N   1      35.726  12.676  16.572  0.00  0.00    -0.084 Cl
HETATM   16  C   UNK N   1      34.921  12.209  14.008  0.00  0.00     0.026 A 
HETATM   17  C   UNK N   1      34.832  12.513  12.648  0.00  0.00     0.031 A 
ENDBRANCH   8  11
ENDBRANCH   1   7
BRANCH   2  18
HETATM   18  N   UNK N   1      32.634  16.976   9.084  0.00  0.00    -0.385 N 
HETATM   19  H   UNK N   1      32.496  16.731  10.028  0.00  0.00     0.160 HD
BRANCH  18  20
HETATM   20  C   UNK N   1      31.924  18.096   8.516  0.00  0.00     0.158 C 
BRANCH  20  21
HETATM   21  C   UNK N   1      30.465  17.821   8.389  0.00  0.00    -0.038 A 
HETATM   22  C   UNK N   1      29.609  18.192   9.428  0.00  0.00     0.025 A 
HETATM   23  C   UNK N   1      28.237  17.972   9.298  0.00  0.00     0.088 A 
HETATM   24  N   UNK N   1      27.740  17.411   8.163  0.00  0.00    -0.375 N 
HETATM   25  C   UNK N   1      28.556  17.048   7.136  0.00  0.00     0.088 A 
ATOM     26  HN  UNK N   1      26.735  17.259   8.080  1.00  0.00     0.164 HD
HETATM   27  C   UNK N   1      29.937  17.248   7.229  0.00  0.00     0.025 A 
ENDBRANCH  20  21
ENDBRANCH  18  20
ENDBRANCH   2  18
TORSDOF 5
ENDMDL
MODEL 7
REMARK VINA RESULT:      -6.8     15.409     16.813
REMARK  5 active torsions:
REMARK  status: ('A' for Active; 'I' for Inactive)
REMARK    1  A    between atoms: C_7  and  N_8 
REMARK       I    between atoms: C_9  and  N_8 
REMARK    2  A    between atoms: C_9  and  C_11 
REMARK    3  A    between atoms: N_17  and  C_12 
REMARK    4  A    between atoms: C_18  and  N_17 
REMARK    5  A    between atoms: C_18  and  C_19 
ROOT
HETATM    1  C   UNK N   1      21.514  16.040   7.156  0.00  0.00     0.058 A 
HETATM    2  C   UNK N   1      20.924  15.087   8.039  0.00  0.00     0.044 A 
HETATM    3  C   UNK N   1      19.854  15.475   8.855  0.00  0.00     0.030 A 
HETATM    4  C   UNK N   1      19.379  16.786   8.833  0.00  0.00     0.002 A 
HETATM    5  C   UNK N   1      19.967  17.727   7.991  0.00  0.00     0.001 A 
HETATM    6  C   UNK N   1      21.020  17.355   7.155  0.00  0.00     0.019 A 
ENDROOT
BRANCH   1   7
HETATM    7  C   UNK N   1      22.635  15.709   6.227  0.00  0.00     0.258 C 
HETATM    8  N   UNK N   1      23.582  16.652   5.953  0.00  0.00    -0.323 N 
HETATM    9  H   UNK N   1      23.432  17.561   6.301  0.00  0.00     0.169 HD
HETATM   10  O   UNK N   1      22.691  14.614   5.698  0.00  0.00    -0.267 OA
BRANCH   8  11
HETATM   11  C   UNK N   1      24.772  16.425   5.202  0.00  0.00     0.035 A 
HETATM   12  C   UNK N   1      24.801  16.778   3.848  0.00  0.00     0.031 A 
HETATM   13  C   UNK N   1      25.971  16.617   3.099  0.00  0.00     0.026 A 
HETATM   14  C   UNK N   1      27.127  16.115   3.705  0.00  0.00     0.034 A 
HETATM   15 Cl   UNK N   1      28.597  15.929   2.774  0.00  0.00    -0.084 Cl
HETATM   16  C   UNK N   1      27.111  15.768   5.057  0.00  0.00     0.026 A 
HETATM   17  C   UNK N   1      25.941  15.923   5.803  0.00  0.00     0.031 A 
ENDBRANCH   8  11
ENDBRANCH   1   7
BRANCH   2  18
HETATM   18  N   UNK N   1      21.408  13.762   8.165  0.00  0.00    -0.385 N 
HETATM   19  H   UNK N   1      21.863  13.328   7.407  0.00  0.00     0.160 HD
BRANCH  18  20
HETATM   20  C   UNK N   1      21.236  13.051   9.408  0.00  0.00     0.158 C 
BRANCH  20  21
HETATM   21  C   UNK N   1      22.541  12.749  10.061  0.00  0.00    -0.038 A 
HETATM   22  C   UNK N   1      23.724  13.137   9.429  0.00  0.00     0.025 A 
HETATM   23  C   UNK N   1      24.948  12.892  10.054  0.00  0.00     0.088 A 
HETATM   24  N   UNK N   1      24.983  12.289  11.272  0.00  0.00    -0.375 N 
HETATM   25  C   UNK N   1      23.841  11.908  11.908  0.00  0.00     0.088 A 
ATOM     26  HN  UNK N   1      25.884  12.118  11.719  1.00  0.00     0.164 HD
HETATM   27  C   UNK N   1      22.596  12.133  11.314  0.00  0.00     0.025 A 
ENDBRANCH  20  21
ENDBRANCH  18  20
ENDBRANCH   2  18
TORSDOF 5
ENDMDL
MODEL 8
REMARK VINA RESULT:      -6.6     12.188     13.589
REMARK  5 active torsions:
REMARK  status: ('A' for Active; 'I' for Inactive)
REMARK    1  A    between atoms: C_7  and  N_8 
REMARK       I    between atoms: C_9  and  N_8 
REMARK    2  A    between atoms: C_9  and  C_11 
REMARK    3  A    between atoms: N_17  and  C_12 
REMARK    4  A    between atoms: C_18  and  N_17 
REMARK    5  A    between atoms: C_18  and  C_19 
ROOT
HETATM    1  C   UNK N   1      25.945  18.849   4.404  0.00  0.00     0.058 A 
HETATM    2  C   UNK N   1      24.530  18.760   4.571  0.00  0.00     0.044 A 
HETATM    3  C   UNK N   1      23.693  19.573   3.797  0.00  0.00     0.030 A 
HETATM    4  C   UNK N   1      24.227  20.483   2.885  0.00  0.00     0.002 A 
HETATM    5  C   UNK N   1      25.607  20.591   2.734  0.00  0.00     0.001 A 
HETATM    6  C   UNK N   1      26.457  19.776   3.482  0.00  0.00     0.019 A 
ENDROOT
BRANCH   1   7
HETATM    7  C   UNK N   1      26.911  18.001   5.161  0.00  0.00     0.258 C 
HETATM    8  N   UNK N   1      28.134  18.508   5.494  0.00  0.00    -0.323 N 
HETATM    9  H   UNK N   1      28.375  19.389   5.127  0.00  0.00     0.169 HD
HETATM   10  O   UNK N   1      26.623  16.855   5.459  0.00  0.00    -0.267 OA
BRANCH   8  11
HETATM   11  C   UNK N   1      29.090  17.862   6.331  0.00  0.00     0.035 A 
HETATM   12  C   UNK N   1      30.125  17.127   5.741  0.00  0.00     0.031 A 
HETATM   13  C   UNK N   1      31.109  16.527   6.535  0.00  0.00     0.026 A 
HETATM   14  C   UNK N   1      31.070  16.671   7.925  0.00  0.00     0.034 A 
HETATM   15 Cl   UNK N   1      32.309  15.936   8.918  0.00  0.00    -0.084 Cl
HETATM   16  C   UNK N   1      30.047  17.409   8.522  0.00  0.00     0.026 A 
HETATM   17  C   UNK N   1      29.062  18.003   7.730  0.00  0.00     0.031 A 
ENDBRANCH   8  11
ENDBRANCH   1   7
BRANCH   2  18
HETATM   18  N   UNK N   1      23.928  17.912   5.533  0.00  0.00    -0.385 N 
HETATM   19  H   UNK N   1      24.266  17.895   6.458  0.00  0.00     0.160 HD
BRANCH  18  20
HETATM   20  C   UNK N   1      22.816  17.074   5.153  0.00  0.00     0.158 C 
BRANCH  20  21
HETATM   21  C   UNK N   1      21.997  16.672   6.331  0.00  0.00    -0.038 A 
HETATM   22  C   UNK N   1      20.989  17.525   6.783  0.00  0.00     0.025 A 
HETATM   23  C   UNK N   1      20.193  17.136   7.861  0.00  0.00     0.088 A 
HETATM   24  N   UNK N   1      20.394  15.930   8.457  0.00  0.00    -0.375 N 
HETATM   25  C   UNK N   1      21.368  15.081   8.029  0.00  0.00     0.088 A 
ATOM     26  HN  UNK N   1      19.803  15.658   9.243  1.00  0.00     0.164 HD
HETATM   27  C   UNK N   1      22.188  15.436   6.954  0.00  0.00     0.025 A 
ENDBRANCH  20  21
ENDBRANCH  18  20
ENDBRANCH   2  18
TORSDOF 5
ENDMDL
MODEL 9
REMARK VINA RESULT:      -6.5     12.946     14.429
REMARK  5 active torsions:
REMARK  status: ('A' for Active; 'I' for Inactive)
REMARK    1  A    between atoms: C_7  and  N_8 
REMARK       I    between atoms: C_9  and  N_8 
REMARK    2  A    between atoms: C_9  and  C_11 
REMARK    3  A    between atoms: N_17  and  C_12 
REMARK    4  A    between atoms: C_18  and  N_17 
REMARK    5  A    between atoms: C_18  and  C_19 
ROOT
HETATM    1  C   UNK N   1      21.382  18.891   4.264  0.00  0.00     0.058 A 
HETATM    2  C   UNK N   1      22.580  19.358   3.642  0.00  0.00     0.044 A 
HETATM    3  C   UNK N   1      22.497  20.091   2.453  0.00  0.00     0.030 A 
HETATM    4  C   UNK N   1      21.262  20.347   1.857  0.00  0.00     0.002 A 
HETATM    5  C   UNK N   1      20.092  19.874   2.446  0.00  0.00     0.001 A 
HETATM    6  C   UNK N   1      20.152  19.158   3.642  0.00  0.00     0.019 A 
ENDROOT
BRANCH   1   7
HETATM    7  C   UNK N   1      21.372  18.131   5.548  0.00  0.00     0.258 C 
HETATM    8  N   UNK N   1      20.786  16.899   5.596  0.00  0.00    -0.323 N 
HETATM    9  H   UNK N   1      20.294  16.599   4.798  0.00  0.00     0.169 HD
HETATM   10  O   UNK N   1      21.860  18.615   6.554  0.00  0.00    -0.267 OA
BRANCH   8  11
HETATM   11  C   UNK N   1      20.829  16.013   6.712  0.00  0.00     0.035 A 
HETATM   12  C   UNK N   1      21.832  15.039   6.769  0.00  0.00     0.031 A 
HETATM   13  C   UNK N   1      21.933  14.191   7.877  0.00  0.00     0.026 A 
HETATM   14  C   UNK N   1      21.037  14.321   8.942  0.00  0.00     0.034 A 
HETATM   15 Cl   UNK N   1      21.171  13.272  10.336  0.00  0.00    -0.084 Cl
HETATM   16  C   UNK N   1      20.037  15.295   8.898  0.00  0.00     0.026 A 
HETATM   17  C   UNK N   1      19.934  16.138   7.790  0.00  0.00     0.031 A 
ENDBRANCH   8  11
ENDBRANCH   1   7
BRANCH   2  18
HETATM   18  N   UNK N   1      23.868  19.067   4.155  0.00  0.00    -0.385 N 
HETATM   19  H   UNK N   1      24.017  18.249   4.683  0.00  0.00     0.160 HD
BRANCH  18  20
HETATM   20  C   UNK N   1      24.962  19.972   3.898  0.00  0.00     0.158 C 
BRANCH  20  21
HETATM   21  C   UNK N   1      26.009  19.889   4.955  0.00  0.00    -0.038 A 
HETATM   22  C   UNK N   1      26.620  18.661   5.214  0.00  0.00     0.025 A 
HETATM   23  C   UNK N   1      27.629  18.587   6.176  0.00  0.00     0.088 A 
HETATM   24  N   UNK N   1      28.018  19.705   6.845  0.00  0.00    -0.375 N 
HETATM   25  C   UNK N   1      27.439  20.913   6.604  0.00  0.00     0.088 A 
ATOM     26  HN  UNK N   1      28.758  19.636   7.544  1.00  0.00     0.164 HD
HETATM   27  C   UNK N   1      26.422  21.029   5.651  0.00  0.00     0.025 A 
ENDBRANCH  20  21
ENDBRANCH  18  20
ENDBRANCH   2  18
TORSDOF 5
ENDMDL
