MODEL 1
REMARK VINA RESULT:      -7.6      0.000      0.000
REMARK  10 active torsions:
REMARK  status: ('A' for Active; 'I' for Inactive)
REMARK    1  A    between atoms: C_2  and  C_6 
REMARK    2  A    between atoms: C_3  and  O_16 
REMARK    3  A    between atoms: C_5  and  C_9 
REMARK    4  A    between atoms: C_6  and  O_7 
REMARK    5  A    between atoms: C_11  and  N_21 
REMARK    6  A    between atoms: O_16  and  C_17 
REMARK    7  A    between atoms: C_17  and  C_18 
REMARK    8  A    between atoms: C_18  and  O_19 
REMARK    9  A    between atoms: N_21  and  C_22 
REMARK   10  A    between atoms: C_22  and  C_23 
ROOT
HETATM    1  S   UNK N   1      23.520  20.582   2.731  0.00  0.00    -0.079 SA
HETATM    2  C   UNK N   1      22.036  19.911   2.480  0.00  0.00     0.114 A 
HETATM    3  C   UNK N   1      21.939  18.783   3.307  0.00  0.00     0.112 A 
HETATM    4  C   UNK N   1      23.122  18.561   4.105  0.00  0.00     0.064 A 
HETATM    5  C   UNK N   1      24.130  19.517   3.846  0.00  0.00     0.036 A 
HETATM    6 Br   UNK N   1      23.341  17.099   5.348  0.00  0.00    -0.047 Br
ENDROOT
BRANCH   5   7
HETATM    7  C   UNK N   1      25.524  19.556   4.330  0.00  0.00    -0.015 A 
HETATM    8  C   UNK N   1      26.482  18.667   3.834  0.00  0.00     0.042 A 
HETATM    9  C   UNK N   1      27.821  18.780   4.195  0.00  0.00     0.029 A 
HETATM   10  C   UNK N   1      28.208  19.827   5.049  0.00  0.00     0.029 A 
HETATM   11  C   UNK N   1      27.263  20.711   5.564  0.00  0.00     0.003 A 
HETATM   12  C   UNK N   1      25.924  20.575   5.206  0.00  0.00     0.013 A 
BRANCH   9  13
HETATM   13  N   UNK N   1      28.743  17.809   3.705  0.00  0.00    -0.386 N 
HETATM   14  H   UNK N   1      28.976  17.867   2.749  0.00  0.00     0.160 HD
BRANCH  13  15
HETATM   15  C   UNK N   1      29.376  16.739   4.464  0.00  0.00     0.158 C 
BRANCH  15  16
HETATM   16  C   UNK N   1      30.743  17.090   4.957  0.00  0.00    -0.041 A 
HETATM   17  C   UNK N   1      31.014  17.014   6.325  0.00  0.00     0.009 A 
HETATM   18  C   UNK N   1      32.311  17.233   6.795  0.00  0.00     0.001 A 
HETATM   19  C   UNK N   1      33.344  17.510   5.893  0.00  0.00     0.000 A 
HETATM   20  C   UNK N   1      33.075  17.593   4.524  0.00  0.00     0.001 A 
HETATM   21  C   UNK N   1      31.775  17.391   4.053  0.00  0.00     0.009 A 
ENDBRANCH  15  16
ENDBRANCH  13  15
ENDBRANCH   9  13
ENDBRANCH   5   7
BRANCH   2  22
HETATM   22  C   UNK N   1      21.047  20.390   1.501  0.00  0.00     0.186 C 
HETATM   23  O   UNK N   1      21.423  20.877   0.446  0.00  0.00    -0.646 OA
BRANCH  22  24
HETATM   24  O   UNK N   1      19.730  20.257   1.740  0.00  0.00    -0.772 OA
HETATM   25  H   UNK N   1      19.434  19.737   2.462  0.00  0.00     0.167 HD
ENDBRANCH  22  24
ENDBRANCH   2  22
BRANCH   3  26
HETATM   26  O   UNK N   1      20.833  17.998   3.278  0.00  0.00    -0.338 OA
BRANCH  26  27
HETATM   27  C   UNK N   1      20.770  16.735   2.742  0.00  0.00     0.285 C 
BRANCH  27  28
HETATM   28  C   UNK N   1      20.171  16.771   1.374  0.00  0.00     0.164 C 
HETATM   29  O   UNK N   1      20.686  16.129   0.474  0.00  0.00    -0.648 OA
BRANCH  28  30
HETATM   30  O   UNK N   1      19.077  17.516   1.123  0.00  0.00    -0.775 OA
HETATM   31  H   UNK N   1      19.151  18.396   0.810  0.00  0.00     0.167 HD
ENDBRANCH  28  30
ENDBRANCH  27  28
ENDBRANCH  26  27
ENDBRANCH   3  26
TORSDOF 10
ENDMDL
MODEL 2
REMARK VINA RESULT:      -7.3      1.544      2.179
REMARK  10 active torsions:
REMARK  status: ('A' for Active; 'I' for Inactive)
REMARK    1  A    between atoms: C_2  and  C_6 
REMARK    2  A    between atoms: C_3  and  O_16 
REMARK    3  A    between atoms: C_5  and  C_9 
REMARK    4  A    between atoms: C_6  and  O_7 
REMARK    5  A    between atoms: C_11  and  N_21 
REMARK    6  A    between atoms: O_16  and  C_17 
REMARK    7  A    between atoms: C_17  and  C_18 
REMARK    8  A    between atoms: C_18  and  O_19 
REMARK    9  A    between atoms: N_21  and  C_22 
REMARK   10  A    between atoms: C_22  and  C_23 
ROOT
HETATM    1  S   UNK N   1      23.461  20.634   2.659  0.00  0.00    -0.079 SA
HETATM    2  C   UNK N   1      21.971  20.013   2.328  0.00  0.00     0.114 A 
HETATM    3  C   UNK N   1      21.770  18.920   3.184  0.00  0.00     0.112 A 
HETATM    4  C   UNK N   1      22.886  18.680   4.068  0.00  0.00     0.064 A 
HETATM    5  C   UNK N   1      23.950  19.586   3.848  0.00  0.00     0.036 A 
HETATM    6 Br   UNK N   1      22.960  17.257   5.371  0.00  0.00    -0.047 Br
ENDROOT
BRANCH   5   7
HETATM    7  C   UNK N   1      25.308  19.586   4.424  0.00  0.00    -0.015 A 
HETATM    8  C   UNK N   1      26.127  18.457   4.336  0.00  0.00     0.042 A 
HETATM    9  C   UNK N   1      27.449  18.494   4.769  0.00  0.00     0.029 A 
HETATM   10  C   UNK N   1      27.966  19.700   5.272  0.00  0.00     0.029 A 
HETATM   11  C   UNK N   1      27.158  20.830   5.381  0.00  0.00     0.003 A 
HETATM   12  C   UNK N   1      25.831  20.772   4.959  0.00  0.00     0.013 A 
BRANCH   9  13
HETATM   13  N   UNK N   1      28.219  17.295   4.708  0.00  0.00    -0.386 N 
HETATM   14  H   UNK N   1      28.661  17.100   3.850  0.00  0.00     0.160 HD
BRANCH  13  15
HETATM   15  C   UNK N   1      28.420  16.328   5.778  0.00  0.00     0.158 C 
BRANCH  15  16
HETATM   16  C   UNK N   1      28.810  16.954   7.078  0.00  0.00    -0.041 A 
HETATM   17  C   UNK N   1      30.140  17.333   7.281  0.00  0.00     0.009 A 
HETATM   18  C   UNK N   1      30.504  18.016   8.443  0.00  0.00     0.001 A 
HETATM   19  C   UNK N   1      29.534  18.338   9.398  0.00  0.00     0.000 A 
HETATM   20  C   UNK N   1      28.204  17.955   9.202  0.00  0.00     0.001 A 
HETATM   21  C   UNK N   1      27.840  17.258   8.047  0.00  0.00     0.009 A 
ENDBRANCH  15  16
ENDBRANCH  13  15
ENDBRANCH   9  13
ENDBRANCH   5   7
BRANCH   2  22
HETATM   22  C   UNK N   1      21.071  20.496   1.268  0.00  0.00     0.186 C 
HETATM   23  O   UNK N   1      20.700  21.659   1.269  0.00  0.00    -0.646 OA
BRANCH  22  24
HETATM   24  O   UNK N   1      20.688  19.677   0.272  0.00  0.00    -0.772 OA
HETATM   25  H   UNK N   1      21.228  18.950   0.027  0.00  0.00     0.167 HD
ENDBRANCH  22  24
ENDBRANCH   2  22
BRANCH   3  26
HETATM   26  O   UNK N   1      20.637  18.179   3.104  0.00  0.00    -0.338 OA
BRANCH  26  27
HETATM   27  C   UNK N   1      20.578  16.854   2.747  0.00  0.00     0.285 C 
BRANCH  27  28
HETATM   28  C   UNK N   1      20.112  16.709   1.335  0.00  0.00     0.164 C 
HETATM   29  O   UNK N   1      20.750  16.017   0.558  0.00  0.00    -0.648 OA
BRANCH  28  30
HETATM   30  O   UNK N   1      19.003  17.343   0.910  0.00  0.00    -0.775 OA
HETATM   31  H   UNK N   1      19.049  18.016   0.259  0.00  0.00     0.167 HD
ENDBRANCH  28  30
ENDBRANCH  27  28
ENDBRANCH  26  27
ENDBRANCH   3  26
TORSDOF 10
ENDMDL
MODEL 3
REMARK VINA RESULT:      -7.2      5.167      7.042
REMARK  10 active torsions:
REMARK  status: ('A' for Active; 'I' for Inactive)
REMARK    1  A    between atoms: C_2  and  C_6 
REMARK    2  A    between atoms: C_3  and  O_16 
REMARK    3  A    between atoms: C_5  and  C_9 
REMARK    4  A    between atoms: C_6  and  O_7 
REMARK    5  A    between atoms: C_11  and  N_21 
REMARK    6  A    between atoms: O_16  and  C_17 
REMARK    7  A    between atoms: C_17  and  C_18 
REMARK    8  A    between atoms: C_18  and  O_19 
REMARK    9  A    between atoms: N_21  and  C_22 
REMARK   10  A    between atoms: C_22  and  C_23 
ROOT
HETATM    1  S   UNK N   1      24.971  18.210   4.092  0.00  0.00    -0.079 SA
HETATM    2  C   UNK N   1      23.865  19.311   3.563  0.00  0.00     0.114 A 
HETATM    3  C   UNK N   1      22.591  18.776   3.801  0.00  0.00     0.112 A 
HETATM    4  C   UNK N   1      22.630  17.472   4.419  0.00  0.00     0.064 A 
HETATM    5  C   UNK N   1      23.952  17.011   4.617  0.00  0.00     0.036 A 
HETATM    6 Br   UNK N   1      21.067  16.436   4.881  0.00  0.00    -0.047 Br
ENDROOT
BRANCH   5   7
HETATM    7  C   UNK N   1      24.419  15.687   5.070  0.00  0.00    -0.015 A 
HETATM    8  C   UNK N   1      24.492  15.377   6.431  0.00  0.00     0.042 A 
HETATM    9  C   UNK N   1      24.814  14.093   6.859  0.00  0.00     0.029 A 
HETATM   10  C   UNK N   1      25.037  13.093   5.897  0.00  0.00     0.029 A 
HETATM   11  C   UNK N   1      24.984  13.389   4.537  0.00  0.00     0.003 A 
HETATM   12  C   UNK N   1      24.676  14.684   4.125  0.00  0.00     0.013 A 
BRANCH   9  13
HETATM   13  N   UNK N   1      24.932  13.851   8.259  0.00  0.00    -0.386 N 
HETATM   14  H   UNK N   1      25.328  14.574   8.798  0.00  0.00     0.160 HD
BRANCH  13  15
HETATM   15  C   UNK N   1      24.532  12.649   8.978  0.00  0.00     0.158 C 
BRANCH  15  16
HETATM   16  C   UNK N   1      23.206  12.776   9.654  0.00  0.00    -0.041 A 
HETATM   17  C   UNK N   1      22.222  13.585   9.079  0.00  0.00     0.009 A 
HETATM   18  C   UNK N   1      20.942  13.632   9.635  0.00  0.00     0.001 A 
HETATM   19  C   UNK N   1      20.638  12.856  10.758  0.00  0.00     0.000 A 
HETATM   20  C   UNK N   1      21.621  12.050  11.341  0.00  0.00     0.001 A 
HETATM   21  C   UNK N   1      22.908  12.014  10.795  0.00  0.00     0.009 A 
ENDBRANCH  15  16
ENDBRANCH  13  15
ENDBRANCH   9  13
ENDBRANCH   5   7
BRANCH   2  22
HETATM   22  C   UNK N   1      24.191  20.583   2.898  0.00  0.00     0.186 C 
HETATM   23  O   UNK N   1      25.211  20.677   2.233  0.00  0.00    -0.646 OA
BRANCH  22  24
HETATM   24  O   UNK N   1      23.353  21.631   2.981  0.00  0.00    -0.772 OA
HETATM   25  H   UNK N   1      23.673  22.467   3.260  0.00  0.00     0.167 HD
ENDBRANCH  22  24
ENDBRANCH   2  22
BRANCH   3  26
HETATM   26  O   UNK N   1      21.476  19.450   3.421  0.00  0.00    -0.338 OA
BRANCH  26  27
HETATM   27  C   UNK N   1      20.690  19.138   2.339  0.00  0.00     0.285 C 
BRANCH  27  28
HETATM   28  C   UNK N   1      20.753  20.221   1.312  0.00  0.00     0.164 C 
HETATM   29  O   UNK N   1      20.935  21.374   1.663  0.00  0.00    -0.648 OA
BRANCH  28  30
HETATM   30  O   UNK N   1      20.597  19.936   0.005  0.00  0.00    -0.775 OA
HETATM   31  H   UNK N   1      20.180  20.541  -0.577  0.00  0.00     0.167 HD
ENDBRANCH  28  30
ENDBRANCH  27  28
ENDBRANCH  26  27
ENDBRANCH   3  26
TORSDOF 10
ENDMDL
MODEL 4
REMARK VINA RESULT:      -7.1     10.534     14.175
REMARK  10 active torsions:
REMARK  status: ('A' for Active; 'I' for Inactive)
REMARK    1  A    between atoms: C_2  and  C_6 
REMARK    2  A    between atoms: C_3  and  O_16 
REMARK    3  A    between atoms: C_5  and  C_9 
REMARK    4  A    between atoms: C_6  and  O_7 
REMARK    5  A    between atoms: C_11  and  N_21 
REMARK    6  A    between atoms: O_16  and  C_17 
REMARK    7  A    between atoms: C_17  and  C_18 
REMARK    8  A    between atoms: C_18  and  O_19 
REMARK    9  A    between atoms: N_21  and  C_22 
REMARK   10  A    between atoms: C_22  and  C_23 
ROOT
HETATM    1  S   UNK N   1      35.363  16.439  10.493  0.00  0.00    -0.079 SA
HETATM    2  C   UNK N   1      34.515  16.833   9.136  0.00  0.00     0.114 A 
HETATM    3  C   UNK N   1      34.037  15.640   8.576  0.00  0.00     0.112 A 
HETATM    4  C   UNK N   1      34.412  14.468   9.332  0.00  0.00     0.064 A 
HETATM    5  C   UNK N   1      35.210  14.788  10.455  0.00  0.00     0.036 A 
HETATM    6 Br   UNK N   1      33.936  12.660   8.851  0.00  0.00    -0.047 Br
ENDROOT
BRANCH   5   7
HETATM    7  C   UNK N   1      35.917  13.884  11.383  0.00  0.00    -0.015 A 
HETATM    8  C   UNK N   1      35.327  13.480  12.584  0.00  0.00     0.042 A 
HETATM    9  C   UNK N   1      35.937  12.534  13.401  0.00  0.00     0.029 A 
HETATM   10  C   UNK N   1      37.151  11.960  12.987  0.00  0.00     0.029 A 
HETATM   11  C   UNK N   1      37.760  12.363  11.801  0.00  0.00     0.003 A 
HETATM   12  C   UNK N   1      37.145  13.324  11.001  0.00  0.00     0.013 A 
BRANCH   9  13
HETATM   13  N   UNK N   1      35.317  12.205  14.643  0.00  0.00    -0.386 N 
HETATM   14  H   UNK N   1      35.132  11.251  14.802  0.00  0.00     0.160 HD
BRANCH  13  15
HETATM   15  C   UNK N   1      34.927  13.129  15.699  0.00  0.00     0.158 C 
BRANCH  15  16
HETATM   16  C   UNK N   1      35.214  12.615  17.072  0.00  0.00    -0.041 A 
HETATM   17  C   UNK N   1      35.090  13.480  18.163  0.00  0.00     0.009 A 
HETATM   18  C   UNK N   1      35.250  12.995  19.462  0.00  0.00     0.001 A 
HETATM   19  C   UNK N   1      35.515  11.638  19.675  0.00  0.00     0.000 A 
HETATM   20  C   UNK N   1      35.646  10.770  18.586  0.00  0.00     0.001 A 
HETATM   21  C   UNK N   1      35.503  11.258  17.284  0.00  0.00     0.009 A 
ENDBRANCH  15  16
ENDBRANCH  13  15
ENDBRANCH   9  13
ENDBRANCH   5   7
BRANCH   2  22
HETATM   22  C   UNK N   1      34.371  18.195   8.597  0.00  0.00     0.186 C 
HETATM   23  O   UNK N   1      35.313  18.971   8.643  0.00  0.00    -0.646 OA
BRANCH  22  24
HETATM   24  O   UNK N   1      33.221  18.580   8.014  0.00  0.00    -0.772 OA
HETATM   25  H   UNK N   1      32.841  19.410   8.227  0.00  0.00     0.167 HD
ENDBRANCH  22  24
ENDBRANCH   2  22
BRANCH   3  26
HETATM   26  O   UNK N   1      33.336  15.653   7.415  0.00  0.00    -0.338 OA
BRANCH  26  27
HETATM   27  C   UNK N   1      33.825  15.276   6.188  0.00  0.00     0.285 C 
BRANCH  27  28
HETATM   28  C   UNK N   1      33.722  16.400   5.210  0.00  0.00     0.164 C 
HETATM   29  O   UNK N   1      34.127  17.507   5.520  0.00  0.00    -0.648 OA
BRANCH  28  30
HETATM   30  O   UNK N   1      33.174  16.204   3.995  0.00  0.00    -0.775 OA
HETATM   31  H   UNK N   1      33.066  15.342   3.645  0.00  0.00     0.167 HD
ENDBRANCH  28  30
ENDBRANCH  27  28
ENDBRANCH  26  27
ENDBRANCH   3  26
TORSDOF 10
ENDMDL
MODEL 5
REMARK VINA RESULT:      -7.1      8.732     12.201
REMARK  10 active torsions:
REMARK  status: ('A' for Active; 'I' for Inactive)
REMARK    1  A    between atoms: C_2  and  C_6 
REMARK    2  A    between atoms: C_3  and  O_16 
REMARK    3  A    between atoms: C_5  and  C_9 
REMARK    4  A    between atoms: C_6  and  O_7 
REMARK    5  A    between atoms: C_11  and  N_21 
REMARK    6  A    between atoms: O_16  and  C_17 
REMARK    7  A    between atoms: C_17  and  C_18 
REMARK    8  A    between atoms: C_18  and  O_19 
REMARK    9  A    between atoms: N_21  and  C_22 
REMARK   10  A    between atoms: C_22  and  C_23 
ROOT
HETATM    1  S   UNK N   1      34.355  17.129   8.441  0.00  0.00    -0.079 SA
HETATM    2  C   UNK N   1      35.144  16.063   9.419  0.00  0.00     0.114 A 
HETATM    3  C   UNK N   1      34.993  14.786   8.860  0.00  0.00     0.112 A 
HETATM    4  C   UNK N   1      34.224  14.790   7.637  0.00  0.00     0.064 A 
HETATM    5  C   UNK N   1      33.767  16.084   7.295  0.00  0.00     0.036 A 
HETATM    6 Br   UNK N   1      33.811  13.213   6.603  0.00  0.00    -0.047 Br
ENDROOT
BRANCH   5   7
HETATM    7  C   UNK N   1      32.836  16.490   6.224  0.00  0.00    -0.015 A 
HETATM    8  C   UNK N   1      31.453  16.449   6.419  0.00  0.00     0.042 A 
HETATM    9  C   UNK N   1      30.578  16.947   5.458  0.00  0.00     0.029 A 
HETATM   10  C   UNK N   1      31.107  17.524   4.292  0.00  0.00     0.029 A 
HETATM   11  C   UNK N   1      32.483  17.559   4.076  0.00  0.00     0.003 A 
HETATM   12  C   UNK N   1      33.346  17.042   5.040  0.00  0.00     0.013 A 
BRANCH   9  13
HETATM   13  N   UNK N   1      29.176  16.823   5.686  0.00  0.00    -0.386 N 
HETATM   14  H   UNK N   1      28.904  16.399   6.532  0.00  0.00     0.160 HD
BRANCH  13  15
HETATM   15  C   UNK N   1      28.103  17.256   4.802  0.00  0.00     0.158 C 
BRANCH  15  16
HETATM   16  C   UNK N   1      27.574  18.615   5.131  0.00  0.00    -0.041 A 
HETATM   17  C   UNK N   1      27.797  19.143   6.405  0.00  0.00     0.009 A 
HETATM   18  C   UNK N   1      27.406  20.451   6.699  0.00  0.00     0.001 A 
HETATM   19  C   UNK N   1      26.808  21.241   5.712  0.00  0.00     0.000 A 
HETATM   20  C   UNK N   1      26.578  20.715   4.437  0.00  0.00     0.001 A 
HETATM   21  C   UNK N   1      26.953  19.400   4.146  0.00  0.00     0.009 A 
ENDBRANCH  15  16
ENDBRANCH  13  15
ENDBRANCH   9  13
ENDBRANCH   5   7
BRANCH   2  22
HETATM   22  C   UNK N   1      35.812  16.413  10.683  0.00  0.00     0.186 C 
HETATM   23  O   UNK N   1      35.210  17.052  11.532  0.00  0.00    -0.646 OA
BRANCH  22  24
HETATM   24  O   UNK N   1      37.067  15.996  10.930  0.00  0.00    -0.772 OA
HETATM   25  H   UNK N   1      37.325  15.775  11.804  0.00  0.00     0.167 HD
ENDBRANCH  22  24
ENDBRANCH   2  22
BRANCH   3  26
HETATM   26  O   UNK N   1      35.504  13.694   9.481  0.00  0.00    -0.338 OA
BRANCH  26  27
HETATM   27  C   UNK N   1      34.818  12.880  10.348  0.00  0.00     0.285 C 
BRANCH  27  28
HETATM   28  C   UNK N   1      35.284  13.091  11.751  0.00  0.00     0.164 C 
HETATM   29  O   UNK N   1      36.478  13.164  11.985  0.00  0.00    -0.648 OA
BRANCH  28  30
HETATM   30  O   UNK N   1      34.398  13.188  12.761  0.00  0.00    -0.775 OA
HETATM   31  H   UNK N   1      33.645  13.743  12.694  0.00  0.00     0.167 HD
ENDBRANCH  28  30
ENDBRANCH  27  28
ENDBRANCH  26  27
ENDBRANCH   3  26
TORSDOF 10
ENDMDL
MODEL 6
REMARK VINA RESULT:      -7.1     10.340     13.934
REMARK  10 active torsions:
REMARK  status: ('A' for Active; 'I' for Inactive)
REMARK    1  A    between atoms: C_2  and  C_6 
REMARK    2  A    between atoms: C_3  and  O_16 
REMARK    3  A    between atoms: C_5  and  C_9 
REMARK    4  A    between atoms: C_6  and  O_7 
REMARK    5  A    between atoms: C_11  and  N_21 
REMARK    6  A    between atoms: O_16  and  C_17 
REMARK    7  A    between atoms: C_17  and  C_18 
REMARK    8  A    between atoms: C_18  and  O_19 
REMARK    9  A    between atoms: N_21  and  C_22 
REMARK   10  A    between atoms: C_22  and  C_23 
ROOT
HETATM    1  S   UNK N   1      35.480  16.472  10.201  0.00  0.00    -0.079 SA
HETATM    2  C   UNK N   1      34.632  16.786   8.824  0.00  0.00     0.114 A 
HETATM    3  C   UNK N   1      34.029  15.586   8.418  0.00  0.00     0.112 A 
HETATM    4  C   UNK N   1      34.318  14.480   9.300  0.00  0.00     0.064 A 
HETATM    5  C   UNK N   1      35.176  14.850  10.361  0.00  0.00     0.036 A 
HETATM    6 Br   UNK N   1      33.664  12.681   9.044  0.00  0.00    -0.047 Br
ENDROOT
BRANCH   5   7
HETATM    7  C   UNK N   1      35.825  13.996  11.376  0.00  0.00    -0.015 A 
HETATM    8  C   UNK N   1      35.183  13.696  12.580  0.00  0.00     0.042 A 
HETATM    9  C   UNK N   1      35.738  12.795  13.484  0.00  0.00     0.029 A 
HETATM   10  C   UNK N   1      36.948  12.161  13.154  0.00  0.00     0.029 A 
HETATM   11  C   UNK N   1      37.608  12.461  11.965  0.00  0.00     0.003 A 
HETATM   12  C   UNK N   1      37.048  13.378  11.078  0.00  0.00     0.013 A 
BRANCH   9  13
HETATM   13  N   UNK N   1      35.067  12.573  14.722  0.00  0.00    -0.386 N 
HETATM   14  H   UNK N   1      34.539  11.744  14.794  0.00  0.00     0.160 HD
BRANCH  13  15
HETATM   15  C   UNK N   1      35.077  13.440  15.892  0.00  0.00     0.158 C 
BRANCH  15  16
HETATM   16  C   UNK N   1      35.276  12.701  17.176  0.00  0.00    -0.041 A 
HETATM   17  C   UNK N   1      35.168  13.395  18.385  0.00  0.00     0.009 A 
HETATM   18  C   UNK N   1      35.243  12.705  19.596  0.00  0.00     0.001 A 
HETATM   19  C   UNK N   1      35.407  11.316  19.601  0.00  0.00     0.000 A 
HETATM   20  C   UNK N   1      35.522  10.619  18.395  0.00  0.00     0.001 A 
HETATM   21  C   UNK N   1      35.463  11.310  17.181  0.00  0.00     0.009 A 
ENDBRANCH  15  16
ENDBRANCH  13  15
ENDBRANCH   9  13
ENDBRANCH   5   7
BRANCH   2  22
HETATM   22  C   UNK N   1      34.597  18.084   8.131  0.00  0.00     0.186 C 
HETATM   23  O   UNK N   1      35.168  19.048   8.617  0.00  0.00    -0.646 OA
BRANCH  22  24
HETATM   24  O   UNK N   1      33.976  18.208   6.944  0.00  0.00    -0.772 OA
HETATM   25  H   UNK N   1      33.067  17.992   6.864  0.00  0.00     0.167 HD
ENDBRANCH  22  24
ENDBRANCH   2  22
BRANCH   3  26
HETATM   26  O   UNK N   1      33.298  15.532   7.277  0.00  0.00    -0.338 OA
BRANCH  26  27
HETATM   27  C   UNK N   1      31.953  15.263   7.208  0.00  0.00     0.285 C 
BRANCH  27  28
HETATM   28  C   UNK N   1      31.155  16.516   7.365  0.00  0.00     0.164 C 
HETATM   29  O   UNK N   1      31.201  17.372   6.498  0.00  0.00    -0.648 OA
BRANCH  28  30
HETATM   30  O   UNK N   1      30.397  16.714   8.461  0.00  0.00    -0.775 OA
HETATM   31  H   UNK N   1      30.782  16.959   9.279  0.00  0.00     0.167 HD
ENDBRANCH  28  30
ENDBRANCH  27  28
ENDBRANCH  26  27
ENDBRANCH   3  26
TORSDOF 10
ENDMDL
MODEL 7
REMARK VINA RESULT:      -6.9      7.601     10.275
REMARK  10 active torsions:
REMARK  status: ('A' for Active; 'I' for Inactive)
REMARK    1  A    between atoms: C_2  and  C_6 
REMARK    2  A    between atoms: C_3  and  O_16 
REMARK    3  A    between atoms: C_5  and  C_9 
REMARK    4  A    between atoms: C_6  and  O_7 
REMARK    5  A    between atoms: C_11  and  N_21 
REMARK    6  A    between atoms: O_16  and  C_17 
REMARK    7  A    between atoms: C_17  and  C_18 
REMARK    8  A    between atoms: C_18  and  O_19 
REMARK    9  A    between atoms: N_21  and  C_22 
REMARK   10  A    between atoms: C_22  and  C_23 
ROOT
HETATM    1  S   UNK N   1      28.339  17.565   7.828  0.00  0.00    -0.079 SA
HETATM    2  C   UNK N   1      29.984  17.504   7.768  0.00  0.00     0.114 A 
HETATM    3  C   UNK N   1      30.337  16.710   6.667  0.00  0.00     0.112 A 
HETATM    4  C   UNK N   1      29.194  16.209   5.940  0.00  0.00     0.064 A 
HETATM    5  C   UNK N   1      27.970  16.606   6.526  0.00  0.00     0.036 A 
HETATM    6 Br   UNK N   1      29.304  15.078   4.378  0.00  0.00    -0.047 Br
ENDROOT
BRANCH   5   7
HETATM    7  C   UNK N   1      26.596  16.186   6.189  0.00  0.00    -0.015 A 
HETATM    8  C   UNK N   1      25.921  15.241   6.966  0.00  0.00     0.042 A 
HETATM    9  C   UNK N   1      24.585  14.934   6.724  0.00  0.00     0.029 A 
HETATM   10  C   UNK N   1      23.907  15.614   5.699  0.00  0.00     0.029 A 
HETATM   11  C   UNK N   1      24.570  16.548   4.905  0.00  0.00     0.003 A 
HETATM   12  C   UNK N   1      25.912  16.832   5.149  0.00  0.00     0.013 A 
BRANCH   9  13
HETATM   13  N   UNK N   1      23.966  13.919   7.512  0.00  0.00    -0.386 N 
HETATM   14  H   UNK N   1      22.998  13.794   7.385  0.00  0.00     0.160 HD
BRANCH  13  15
HETATM   15  C   UNK N   1      24.612  13.049   8.485  0.00  0.00     0.158 C 
BRANCH  15  16
HETATM   16  C   UNK N   1      23.708  12.631   9.600  0.00  0.00    -0.041 A 
HETATM   17  C   UNK N   1      24.268  12.187  10.800  0.00  0.00     0.009 A 
HETATM   18  C   UNK N   1      23.445  11.895  11.890  0.00  0.00     0.001 A 
HETATM   19  C   UNK N   1      22.061  12.064  11.786  0.00  0.00     0.000 A 
HETATM   20  C   UNK N   1      21.496  12.503  10.585  0.00  0.00     0.001 A 
HETATM   21  C   UNK N   1      22.317  12.780   9.488  0.00  0.00     0.009 A 
ENDBRANCH  15  16
ENDBRANCH  13  15
ENDBRANCH   9  13
ENDBRANCH   5   7
BRANCH   2  22
HETATM   22  C   UNK N   1      30.889  18.120   8.752  0.00  0.00     0.186 C 
HETATM   23  O   UNK N   1      30.517  19.089   9.396  0.00  0.00    -0.646 OA
BRANCH  22  24
HETATM   24  O   UNK N   1      32.107  17.598   8.980  0.00  0.00    -0.772 OA
HETATM   25  H   UNK N   1      32.360  17.358   9.851  0.00  0.00     0.167 HD
ENDBRANCH  22  24
ENDBRANCH   2  22
BRANCH   3  26
HETATM   26  O   UNK N   1      31.639  16.444   6.395  0.00  0.00    -0.338 OA
BRANCH  26  27
HETATM   27  C   UNK N   1      32.427  17.149   5.518  0.00  0.00     0.285 C 
BRANCH  27  28
HETATM   28  C   UNK N   1      33.842  17.188   5.994  0.00  0.00     0.164 C 
HETATM   29  O   UNK N   1      34.211  18.103   6.711  0.00  0.00    -0.648 OA
BRANCH  28  30
HETATM   30  O   UNK N   1      34.716  16.231   5.629  0.00  0.00    -0.775 OA
HETATM   31  H   UNK N   1      34.421  15.390   5.338  0.00  0.00     0.167 HD
ENDBRANCH  28  30
ENDBRANCH  27  28
ENDBRANCH  26  27
ENDBRANCH   3  26
TORSDOF 10
ENDMDL
MODEL 8
REMARK VINA RESULT:      -6.8      5.896     10.002
REMARK  10 active torsions:
REMARK  status: ('A' for Active; 'I' for Inactive)
REMARK    1  A    between atoms: C_2  and  C_6 
REMARK    2  A    between atoms: C_3  and  O_16 
REMARK    3  A    between atoms: C_5  and  C_9 
REMARK    4  A    between atoms: C_6  and  O_7 
REMARK    5  A    between atoms: C_11  and  N_21 
REMARK    6  A    between atoms: O_16  and  C_17 
REMARK    7  A    between atoms: C_17  and  C_18 
REMARK    8  A    between atoms: C_18  and  O_19 
REMARK    9  A    between atoms: N_21  and  C_22 
REMARK   10  A    between atoms: C_22  and  C_23 
ROOT
HETATM    1  S   UNK N   1      28.214  18.724   7.461  0.00  0.00    -0.079 SA
HETATM    2  C   UNK N   1      29.554  17.973   8.057  0.00  0.00     0.114 A 
HETATM    3  C   UNK N   1      30.236  17.404   6.972  0.00  0.00     0.112 A 
HETATM    4  C   UNK N   1      29.586  17.644   5.705  0.00  0.00     0.064 A 
HETATM    5  C   UNK N   1      28.384  18.375   5.849  0.00  0.00     0.036 A 
HETATM    6 Br   UNK N   1      30.239  17.003   4.004  0.00  0.00    -0.047 Br
ENDROOT
BRANCH   5   7
HETATM    7  C   UNK N   1      27.358  18.690   4.836  0.00  0.00    -0.015 A 
HETATM    8  C   UNK N   1      26.275  17.834   4.618  0.00  0.00     0.042 A 
HETATM    9  C   UNK N   1      25.244  18.187   3.754  0.00  0.00     0.029 A 
HETATM   10  C   UNK N   1      25.289  19.439   3.118  0.00  0.00     0.029 A 
HETATM   11  C   UNK N   1      26.369  20.297   3.312  0.00  0.00     0.003 A 
HETATM   12  C   UNK N   1      27.402  19.923   4.169  0.00  0.00     0.013 A 
BRANCH   9  13
HETATM   13  N   UNK N   1      24.195  17.248   3.526  0.00  0.00    -0.386 N 
HETATM   14  H   UNK N   1      24.333  16.604   2.793  0.00  0.00     0.160 HD
BRANCH  13  15
HETATM   15  C   UNK N   1      22.942  17.139   4.259  0.00  0.00     0.158 C 
BRANCH  15  16
HETATM   16  C   UNK N   1      21.824  17.916   3.642  0.00  0.00    -0.041 A 
HETATM   17  C   UNK N   1      20.872  17.245   2.870  0.00  0.00     0.009 A 
HETATM   18  C   UNK N   1      19.762  17.933   2.375  0.00  0.00     0.001 A 
HETATM   19  C   UNK N   1      19.592  19.290   2.667  0.00  0.00     0.000 A 
HETATM   20  C   UNK N   1      20.546  19.967   3.434  0.00  0.00     0.001 A 
HETATM   21  C   UNK N   1      21.666  19.284   3.917  0.00  0.00     0.009 A 
ENDBRANCH  15  16
ENDBRANCH  13  15
ENDBRANCH   9  13
ENDBRANCH   5   7
BRANCH   2  22
HETATM   22  C   UNK N   1      29.901  17.872   9.484  0.00  0.00     0.186 C 
HETATM   23  O   UNK N   1      29.682  18.813  10.231  0.00  0.00    -0.646 OA
BRANCH  22  24
HETATM   24  O   UNK N   1      30.419  16.734   9.982  0.00  0.00    -0.772 OA
HETATM   25  H   UNK N   1      31.027  16.233   9.474  0.00  0.00     0.167 HD
ENDBRANCH  22  24
ENDBRANCH   2  22
BRANCH   3  26
HETATM   26  O   UNK N   1      31.364  16.676   7.169  0.00  0.00    -0.338 OA
BRANCH  26  27
HETATM   27  C   UNK N   1      32.596  16.961   6.633  0.00  0.00     0.285 C 
BRANCH  27  28
HETATM   28  C   UNK N   1      33.498  17.550   7.668  0.00  0.00     0.164 C 
HETATM   29  O   UNK N   1      34.505  18.144   7.321  0.00  0.00    -0.648 OA
BRANCH  28  30
HETATM   30  O   UNK N   1      33.216  17.420   8.978  0.00  0.00    -0.775 OA
HETATM   31  H   UNK N   1      32.336  17.299   9.275  0.00  0.00     0.167 HD
ENDBRANCH  28  30
ENDBRANCH  27  28
ENDBRANCH  26  27
ENDBRANCH   3  26
TORSDOF 10
ENDMDL
MODEL 9
REMARK VINA RESULT:      -6.7      5.992      9.603
REMARK  10 active torsions:
REMARK  status: ('A' for Active; 'I' for Inactive)
REMARK    1  A    between atoms: C_2  and  C_6 
REMARK    2  A    between atoms: C_3  and  O_16 
REMARK    3  A    between atoms: C_5  and  C_9 
REMARK    4  A    between atoms: C_6  and  O_7 
REMARK    5  A    between atoms: C_11  and  N_21 
REMARK    6  A    between atoms: O_16  and  C_17 
REMARK    7  A    between atoms: C_17  and  C_18 
REMARK    8  A    between atoms: C_18  and  O_19 
REMARK    9  A    between atoms: N_21  and  C_22 
REMARK   10  A    between atoms: C_22  and  C_23 
ROOT
HETATM    1  S   UNK N   1      28.180  18.898   7.460  0.00  0.00    -0.079 SA
HETATM    2  C   UNK N   1      29.477  18.032   7.992  0.00  0.00     0.114 A 
HETATM    3  C   UNK N   1      30.022  17.366   6.884  0.00  0.00     0.112 A 
HETATM    4  C   UNK N   1      29.311  17.634   5.656  0.00  0.00     0.064 A 
HETATM    5  C   UNK N   1      28.200  18.487   5.854  0.00  0.00     0.036 A 
HETATM    6 Br   UNK N   1      29.777  16.881   3.940  0.00  0.00    -0.047 Br
ENDROOT
BRANCH   5   7
HETATM    7  C   UNK N   1      27.142  18.875   4.901  0.00  0.00    -0.015 A 
HETATM    8  C   UNK N   1      25.895  18.246   4.916  0.00  0.00     0.042 A 
HETATM    9  C   UNK N   1      24.856  18.691   4.104  0.00  0.00     0.029 A 
HETATM   10  C   UNK N   1      25.069  19.811   3.283  0.00  0.00     0.029 A 
HETATM   11  C   UNK N   1      26.312  20.440   3.245  0.00  0.00     0.003 A 
HETATM   12  C   UNK N   1      27.347  19.972   4.051  0.00  0.00     0.013 A 
BRANCH   9  13
HETATM   13  N   UNK N   1      23.624  17.973   4.119  0.00  0.00    -0.386 N 
HETATM   14  H   UNK N   1      23.589  17.151   3.578  0.00  0.00     0.160 HD
BRANCH  13  15
HETATM   15  C   UNK N   1      22.413  18.326   4.846  0.00  0.00     0.158 C 
BRANCH  15  16
HETATM   16  C   UNK N   1      22.001  17.296   5.848  0.00  0.00    -0.041 A 
HETATM   17  C   UNK N   1      22.739  16.113   5.952  0.00  0.00     0.009 A 
HETATM   18  C   UNK N   1      22.437  15.187   6.953  0.00  0.00     0.001 A 
HETATM   19  C   UNK N   1      21.408  15.450   7.862  0.00  0.00     0.000 A 
HETATM   20  C   UNK N   1      20.663  16.628   7.757  0.00  0.00     0.001 A 
HETATM   21  C   UNK N   1      20.953  17.550   6.747  0.00  0.00     0.009 A 
ENDBRANCH  15  16
ENDBRANCH  13  15
ENDBRANCH   9  13
ENDBRANCH   5   7
BRANCH   2  22
HETATM   22  C   UNK N   1      29.912  17.938   9.395  0.00  0.00     0.186 C 
HETATM   23  O   UNK N   1      29.642  18.836  10.177  0.00  0.00    -0.646 OA
BRANCH  22  24
HETATM   24  O   UNK N   1      30.567  16.849   9.835  0.00  0.00    -0.772 OA
HETATM   25  H   UNK N   1      30.692  16.715  10.754  0.00  0.00     0.167 HD
ENDBRANCH  22  24
ENDBRANCH   2  22
BRANCH   3  26
HETATM   26  O   UNK N   1      31.083  16.534   7.031  0.00  0.00    -0.338 OA
BRANCH  26  27
HETATM   27  C   UNK N   1      32.277  16.644   6.361  0.00  0.00     0.285 C 
BRANCH  27  28
HETATM   28  C   UNK N   1      33.261  17.431   7.163  0.00  0.00     0.164 C 
HETATM   29  O   UNK N   1      34.165  18.021   6.596  0.00  0.00    -0.648 OA
BRANCH  28  30
HETATM   30  O   UNK N   1      33.166  17.485   8.506  0.00  0.00    -0.775 OA
HETATM   31  H   UNK N   1      33.510  16.800   9.044  0.00  0.00     0.167 HD
ENDBRANCH  28  30
ENDBRANCH  27  28
ENDBRANCH  26  27
ENDBRANCH   3  26
TORSDOF 10
ENDMDL
