REMARK  6 active torsions:
REMARK  status: ('A' for Active; 'I' for Inactive)
REMARK    1  A    between atoms: C_1  and  S_9 
REMARK    2  A    between atoms: S_9  and  N_10 
REMARK    3  A    between atoms: C_11  and  N_10 
REMARK    4  A    between atoms: C_11  and  C_12 
REMARK    5  A    between atoms: C_11  and  C_18 
REMARK       I    between atoms: C_12  and  N_13 
REMARK    6  A    between atoms: N_13  and  O_14 
ROOT
HETATM    1  N   UNK N   1      -0.164  -0.531   1.261  0.00  0.00    -0.301 N 
HETATM    2  H   UNK N   1      -0.213  -0.638   2.275  0.00  0.00     0.173 HD
ENDROOT
BRANCH   1   3
HETATM    3  S   UNK N   1      -1.196   0.625   0.383  0.00  0.00     0.259 S 
HETATM    4  O   UNK N   1      -2.521  -0.046  -0.011  0.00  0.00    -0.201 OA
HETATM    5  O   UNK N   1      -1.804   0.973   1.750  0.00  0.00    -0.201 OA
BRANCH   3   6
HETATM    6  C   UNK N   1      -1.063   2.400   0.130  0.00  0.00     0.080 A 
HETATM    7  C   UNK N   1      -2.230   3.173   0.040  0.00  0.00     0.035 A 
HETATM    8  C   UNK N   1      -2.151   4.559  -0.112  0.00  0.00    -0.022 A 
HETATM    9  C   UNK N   1      -0.897   5.181  -0.179  0.00  0.00     0.122 A 
HETATM   10  C   UNK N   1      -3.403   5.360  -0.190  0.00  0.00     0.051 C 
HETATM   11  C   UNK N   1       0.268   4.410  -0.101  0.00  0.00     0.044 A 
HETATM   12  F   UNK N   1      -0.804   6.527  -0.315  0.00  0.00    -0.206 F 
HETATM   13  C   UNK N   1       0.185   3.022   0.054  0.00  0.00     0.028 A 
ENDBRANCH   3   6
ENDBRANCH   1   3
BRANCH   1  14
HETATM   14  C   UNK N   1       0.766  -1.324   0.437  0.00  0.00     0.191 C 
BRANCH  14  15
HETATM   15  C   UNK N   1       2.022  -0.536   0.121  0.00  0.00     0.264 C 
HETATM   16  N   UNK N   1       2.143   0.754   0.508  0.00  0.00    -0.236 N 
HETATM   17  H   UNK N   1       1.400   1.189   0.985  0.00  0.00     0.197 HD
HETATM   18  O   UNK N   1       2.952  -1.083  -0.458  0.00  0.00    -0.269 OA
BRANCH  16  19
HETATM   19  O   UNK N   1       3.259   1.449   0.250  0.00  0.00    -0.287 OA
HETATM   20  H   UNK N   1       4.099   1.000   0.064  0.00  0.00     0.244 HD
ENDBRANCH  16  19
ENDBRANCH  14  15
BRANCH  14  21
HETATM   21  C   UNK N   1       0.097  -1.910  -0.838  0.00  0.00     0.022 C 
HETATM   22  C   UNK N   1       1.030  -2.880  -1.593  0.00  0.00     0.033 C 
HETATM   23  C   UNK N   1       1.013  -4.304  -0.997  0.00  0.00     0.168 C 
HETATM   24  O   UNK N   1       0.244  -4.375   0.180  0.00  0.00    -0.391 OA
HETATM   25  C   UNK N   1      -1.078  -4.099  -0.201  0.00  0.00     0.168 C 
HETATM   26  C   UNK N   1      -1.243  -2.612  -0.542  0.00  0.00     0.033 C 
ENDBRANCH  14  21
ENDBRANCH   1  14
TORSDOF 6
