MODEL 1
REMARK VINA RESULT:      -6.8      0.000      0.000
REMARK  6 active torsions:
REMARK  status: ('A' for Active; 'I' for Inactive)
REMARK    1  A    between atoms: C_1  and  S_9 
REMARK    2  A    between atoms: S_9  and  N_10 
REMARK    3  A    between atoms: C_11  and  N_10 
REMARK    4  A    between atoms: C_11  and  C_12 
REMARK    5  A    between atoms: C_11  and  C_18 
REMARK       I    between atoms: C_12  and  N_13 
REMARK    6  A    between atoms: N_13  and  O_14 
ROOT
HETATM    1  N   UNK N   1      31.868  17.241   9.092  0.00  0.00    -0.301 N 
HETATM    2  H   UNK N   1      32.344  17.871   9.740  0.00  0.00     0.173 HD
ENDROOT
BRANCH   1   3
HETATM    3  S   UNK N   1      30.135  17.404   8.718  0.00  0.00     0.259 S 
HETATM    4  O   UNK N   1      29.296  17.114   9.973  0.00  0.00    -0.201 OA
HETATM    5  O   UNK N   1      30.272  18.864   9.175  0.00  0.00    -0.201 OA
BRANCH   3   6
HETATM    6  C   UNK N   1      29.274  18.065   7.285  0.00  0.00     0.080 A 
HETATM    7  C   UNK N   1      28.352  19.109   7.455  0.00  0.00     0.035 A 
HETATM    8  C   UNK N   1      27.705  19.668   6.351  0.00  0.00    -0.022 A 
HETATM    9  C   UNK N   1      27.974  19.179   5.065  0.00  0.00     0.122 A 
HETATM   10  C   UNK N   1      26.743  20.785   6.554  0.00  0.00     0.051 C 
HETATM   11  C   UNK N   1      28.884  18.130   4.896  0.00  0.00     0.044 A 
HETATM   12  F   UNK N   1      27.362  19.719   3.983  0.00  0.00    -0.206 F 
HETATM   13  C   UNK N   1      29.533  17.574   6.004  0.00  0.00     0.028 A 
ENDBRANCH   3   6
ENDBRANCH   1   3
BRANCH   1  14
HETATM   14  C   UNK N   1      32.577  16.142   8.411  0.00  0.00     0.191 C 
BRANCH  14  15
HETATM   15  C   UNK N   1      32.845  14.993   9.363  0.00  0.00     0.264 C 
HETATM   16  N   UNK N   1      33.551  15.190  10.500  0.00  0.00    -0.236 N 
HETATM   17  H   UNK N   1      33.907  16.085  10.701  0.00  0.00     0.197 HD
HETATM   18  O   UNK N   1      32.387  13.884   9.120  0.00  0.00    -0.269 OA
BRANCH  16  19
HETATM   19  O   UNK N   1      33.773  14.183  11.355  0.00  0.00    -0.287 OA
HETATM   20  H   UNK N   1      33.356  13.316  11.230  0.00  0.00     0.244 HD
ENDBRANCH  16  19
ENDBRANCH  14  15
BRANCH  14  21
HETATM   21  C   UNK N   1      33.861  16.615   7.674  0.00  0.00     0.022 C 
HETATM   22  C   UNK N   1      34.535  15.472   6.885  0.00  0.00     0.033 C 
HETATM   23  C   UNK N   1      33.890  15.248   5.500  0.00  0.00     0.168 C 
HETATM   24  O   UNK N   1      32.751  16.052   5.311  0.00  0.00    -0.391 OA
HETATM   25  C   UNK N   1      33.206  17.380   5.316  0.00  0.00     0.168 C 
HETATM   26  C   UNK N   1      33.607  17.809   6.733  0.00  0.00     0.033 C 
ENDBRANCH  14  21
ENDBRANCH   1  14
TORSDOF 6
ENDMDL
MODEL 2
REMARK VINA RESULT:      -6.7      2.581      4.576
REMARK  6 active torsions:
REMARK  status: ('A' for Active; 'I' for Inactive)
REMARK    1  A    between atoms: C_1  and  S_9 
REMARK    2  A    between atoms: S_9  and  N_10 
REMARK    3  A    between atoms: C_11  and  N_10 
REMARK    4  A    between atoms: C_11  and  C_12 
REMARK    5  A    between atoms: C_11  and  C_18 
REMARK       I    between atoms: C_12  and  N_13 
REMARK    6  A    between atoms: N_13  and  O_14 
ROOT
HETATM    1  N   UNK N   1      34.829  16.244   8.914  0.00  0.00    -0.301 N 
HETATM    2  H   UNK N   1      35.518  16.494   9.624  0.00  0.00     0.173 HD
ENDROOT
BRANCH   1   3
HETATM    3  S   UNK N   1      34.077  17.465   7.857  0.00  0.00     0.259 S 
HETATM    4  O   UNK N   1      34.947  18.731   7.814  0.00  0.00    -0.201 OA
HETATM    5  O   UNK N   1      34.927  16.869   6.725  0.00  0.00    -0.201 OA
BRANCH   3   6
HETATM    6  C   UNK N   1      32.701  17.371   6.704  0.00  0.00     0.080 A 
HETATM    7  C   UNK N   1      32.958  17.307   5.327  0.00  0.00     0.035 A 
HETATM    8  C   UNK N   1      31.907  17.189   4.415  0.00  0.00    -0.022 A 
HETATM    9  C   UNK N   1      30.586  17.137   4.880  0.00  0.00     0.122 A 
HETATM   10  C   UNK N   1      32.205  17.108   2.959  0.00  0.00     0.051 C 
HETATM   11  C   UNK N   1      30.327  17.212   6.253  0.00  0.00     0.044 A 
HETATM   12  F   UNK N   1      29.555  17.010   4.007  0.00  0.00    -0.206 F 
HETATM   13  C   UNK N   1      31.383  17.328   7.163  0.00  0.00     0.028 A 
ENDBRANCH   3   6
ENDBRANCH   1   3
BRANCH   1  14
HETATM   14  C   UNK N   1      34.397  14.851   8.702  0.00  0.00     0.191 C 
BRANCH  14  15
HETATM   15  C   UNK N   1      32.983  14.636   9.205  0.00  0.00     0.264 C 
HETATM   16  N   UNK N   1      32.520  15.320  10.275  0.00  0.00    -0.236 N 
HETATM   17  H   UNK N   1      33.113  15.952  10.741  0.00  0.00     0.197 HD
HETATM   18  O   UNK N   1      32.240  13.862   8.614  0.00  0.00    -0.269 OA
BRANCH  16  19
HETATM   19  O   UNK N   1      31.264  15.150  10.711  0.00  0.00    -0.287 OA
HETATM   20  H   UNK N   1      30.511  15.542  10.241  0.00  0.00     0.244 HD
ENDBRANCH  16  19
ENDBRANCH  14  15
BRANCH  14  21
HETATM   21  C   UNK N   1      35.397  13.812   9.281  0.00  0.00     0.022 C 
HETATM   22  C   UNK N   1      36.709  14.469   9.761  0.00  0.00     0.033 C 
HETATM   23  C   UNK N   1      36.589  15.064  11.181  0.00  0.00     0.168 C 
HETATM   24  O   UNK N   1      35.275  14.985  11.678  0.00  0.00    -0.391 OA
HETATM   25  C   UNK N   1      34.988  13.617  11.806  0.00  0.00     0.168 C 
HETATM   26  C   UNK N   1      34.794  12.974  10.426  0.00  0.00     0.033 C 
ENDBRANCH  14  21
ENDBRANCH   1  14
TORSDOF 6
ENDMDL
MODEL 3
REMARK VINA RESULT:      -6.7      3.578      6.179
REMARK  6 active torsions:
REMARK  status: ('A' for Active; 'I' for Inactive)
REMARK    1  A    between atoms: C_1  and  S_9 
REMARK    2  A    between atoms: S_9  and  N_10 
REMARK    3  A    between atoms: C_11  and  N_10 
REMARK    4  A    between atoms: C_11  and  C_12 
REMARK    5  A    between atoms: C_11  and  C_18 
REMARK       I    between atoms: C_12  and  N_13 
REMARK    6  A    between atoms: N_13  and  O_14 
ROOT
HETATM    1  N   UNK N   1      34.127  14.079  10.898  0.00  0.00    -0.301 N 
HETATM    2  H   UNK N   1      33.338  13.597  11.330  0.00  0.00     0.173 HD
ENDROOT
BRANCH   1   3
HETATM    3  S   UNK N   1      34.357  14.120   9.132  0.00  0.00     0.259 S 
HETATM    4  O   UNK N   1      35.072  12.842   8.665  0.00  0.00    -0.201 OA
HETATM    5  O   UNK N   1      33.016  13.377   9.037  0.00  0.00    -0.201 OA
BRANCH   3   6
HETATM    6  C   UNK N   1      33.701  15.210   7.862  0.00  0.00     0.080 A 
HETATM    7  C   UNK N   1      32.321  15.455   7.809  0.00  0.00     0.035 A 
HETATM    8  C   UNK N   1      31.794  16.333   6.859  0.00  0.00    -0.022 A 
HETATM    9  C   UNK N   1      32.650  16.970   5.950  0.00  0.00     0.122 A 
HETATM   10  C   UNK N   1      30.329  16.589   6.832  0.00  0.00     0.051 C 
HETATM   11  C   UNK N   1      34.026  16.717   5.994  0.00  0.00     0.044 A 
HETATM   12  F   UNK N   1      32.155  17.833   5.030  0.00  0.00    -0.206 F 
HETATM   13  C   UNK N   1      34.550  15.839   6.949  0.00  0.00     0.028 A 
ENDBRANCH   3   6
ENDBRANCH   1   3
BRANCH   1  14
HETATM   14  C   UNK N   1      35.145  14.783  11.700  0.00  0.00     0.191 C 
BRANCH  14  15
HETATM   15  C   UNK N   1      35.760  15.926  10.917  0.00  0.00     0.264 C 
HETATM   16  N   UNK N   1      35.026  17.014  10.591  0.00  0.00    -0.236 N 
HETATM   17  H   UNK N   1      34.077  17.054  10.851  0.00  0.00     0.197 HD
HETATM   18  O   UNK N   1      36.944  15.882  10.608  0.00  0.00    -0.269 OA
BRANCH  16  19
HETATM   19  O   UNK N   1      35.570  18.036   9.918  0.00  0.00    -0.287 OA
HETATM   20  H   UNK N   1      35.376  18.179   8.978  0.00  0.00     0.244 HD
ENDBRANCH  16  19
ENDBRANCH  14  15
BRANCH  14  21
HETATM   21  C   UNK N   1      36.216  13.826  12.294  0.00  0.00     0.022 C 
HETATM   22  C   UNK N   1      36.448  14.074  13.800  0.00  0.00     0.033 C 
HETATM   23  C   UNK N   1      35.403  13.363  14.686  0.00  0.00     0.168 C 
HETATM   24  O   UNK N   1      34.394  12.746  13.921  0.00  0.00    -0.391 OA
HETATM   25  C   UNK N   1      35.028  11.735  13.184  0.00  0.00     0.168 C 
HETATM   26  C   UNK N   1      35.885  12.339  12.063  0.00  0.00     0.033 C 
ENDBRANCH  14  21
ENDBRANCH   1  14
TORSDOF 6
ENDMDL
MODEL 4
REMARK VINA RESULT:      -6.7      8.727     11.201
REMARK  6 active torsions:
REMARK  status: ('A' for Active; 'I' for Inactive)
REMARK    1  A    between atoms: C_1  and  S_9 
REMARK    2  A    between atoms: S_9  and  N_10 
REMARK    3  A    between atoms: C_11  and  N_10 
REMARK    4  A    between atoms: C_11  and  C_12 
REMARK    5  A    between atoms: C_11  and  C_18 
REMARK       I    between atoms: C_12  and  N_13 
REMARK    6  A    between atoms: N_13  and  O_14 
ROOT
HETATM    1  N   UNK N   1      20.513  17.615   3.204  0.00  0.00    -0.301 N 
HETATM    2  H   UNK N   1      19.703  17.376   3.777  0.00  0.00     0.173 HD
ENDROOT
BRANCH   1   3
HETATM    3  S   UNK N   1      21.461  19.097   3.482  0.00  0.00     0.259 S 
HETATM    4  O   UNK N   1      20.548  20.215   4.009  0.00  0.00    -0.201 OA
HETATM    5  O   UNK N   1      21.642  18.596   4.922  0.00  0.00    -0.201 OA
BRANCH   3   6
HETATM    6  C   UNK N   1      23.233  19.403   3.498  0.00  0.00     0.080 A 
HETATM    7  C   UNK N   1      24.084  18.493   4.141  0.00  0.00     0.035 A 
HETATM    8  C   UNK N   1      25.467  18.686   4.129  0.00  0.00    -0.022 A 
HETATM    9  C   UNK N   1      26.007  19.799   3.471  0.00  0.00     0.122 A 
HETATM   10  C   UNK N   1      26.351  17.699   4.806  0.00  0.00     0.051 C 
HETATM   11  C   UNK N   1      25.159  20.714   2.838  0.00  0.00     0.044 A 
HETATM   12  F   UNK N   1      27.349  19.994   3.440  0.00  0.00    -0.206 F 
HETATM   13  C   UNK N   1      23.774  20.516   2.851  0.00  0.00     0.028 A 
ENDBRANCH   3   6
ENDBRANCH   1   3
BRANCH   1  14
HETATM   14  C   UNK N   1      20.968  16.754   2.097  0.00  0.00     0.191 C 
BRANCH  14  15
HETATM   15  C   UNK N   1      20.119  16.965   0.858  0.00  0.00     0.264 C 
HETATM   16  N   UNK N   1      18.954  16.297   0.698  0.00  0.00    -0.236 N 
HETATM   17  H   UNK N   1      18.664  15.656   1.386  0.00  0.00     0.197 HD
HETATM   18  O   UNK N   1      20.473  17.775   0.011  0.00  0.00    -0.269 OA
BRANCH  16  19
HETATM   19  O   UNK N   1      18.190  16.495  -0.384  0.00  0.00    -0.287 OA
HETATM   20  H   UNK N   1      18.395  16.065  -1.230  0.00  0.00     0.244 HD
ENDBRANCH  16  19
ENDBRANCH  14  15
BRANCH  14  21
HETATM   21  C   UNK N   1      21.070  15.256   2.498  0.00  0.00     0.022 C 
HETATM   22  C   UNK N   1      21.877  14.431   1.473  0.00  0.00     0.033 C 
HETATM   23  C   UNK N   1      23.401  14.538   1.695  0.00  0.00     0.168 C 
HETATM   24  O   UNK N   1      23.725  15.461   2.707  0.00  0.00    -0.391 OA
HETATM   25  C   UNK N   1      23.196  14.937   3.897  0.00  0.00     0.168 C 
HETATM   26  C   UNK N   1      21.666  15.052   3.905  0.00  0.00     0.033 C 
ENDBRANCH  14  21
ENDBRANCH   1  14
TORSDOF 6
ENDMDL
MODEL 5
REMARK VINA RESULT:      -6.7      2.749      3.681
REMARK  6 active torsions:
REMARK  status: ('A' for Active; 'I' for Inactive)
REMARK    1  A    between atoms: C_1  and  S_9 
REMARK    2  A    between atoms: S_9  and  N_10 
REMARK    3  A    between atoms: C_11  and  N_10 
REMARK    4  A    between atoms: C_11  and  C_12 
REMARK    5  A    between atoms: C_11  and  C_18 
REMARK       I    between atoms: C_12  and  N_13 
REMARK    6  A    between atoms: N_13  and  O_14 
ROOT
HETATM    1  N   UNK N   1      35.297  16.524   8.849  0.00  0.00    -0.301 N 
HETATM    2  H   UNK N   1      36.300  16.685   8.754  0.00  0.00     0.173 HD
ENDROOT
BRANCH   1   3
HETATM    3  S   UNK N   1      34.095  17.757   8.394  0.00  0.00     0.259 S 
HETATM    4  O   UNK N   1      34.761  19.140   8.321  0.00  0.00    -0.201 OA
HETATM    5  O   UNK N   1      34.522  17.499   6.941  0.00  0.00    -0.201 OA
BRANCH   3   6
HETATM    6  C   UNK N   1      32.407  17.621   7.789  0.00  0.00     0.080 A 
HETATM    7  C   UNK N   1      31.345  18.019   8.615  0.00  0.00     0.035 A 
HETATM    8  C   UNK N   1      30.029  17.965   8.151  0.00  0.00    -0.022 A 
HETATM    9  C   UNK N   1      29.768  17.506   6.853  0.00  0.00     0.122 A 
HETATM   10  C   UNK N   1      28.920  18.407   9.040  0.00  0.00     0.051 C 
HETATM   11  C   UNK N   1      30.825  17.097   6.033  0.00  0.00     0.044 A 
HETATM   12  F   UNK N   1      28.496  17.458   6.384  0.00  0.00    -0.206 F 
HETATM   13  C   UNK N   1      32.142  17.156   6.500  0.00  0.00     0.028 A 
ENDBRANCH   3   6
ENDBRANCH   1   3
BRANCH   1  14
HETATM   14  C   UNK N   1      34.757  15.255   9.371  0.00  0.00     0.191 C 
BRANCH  14  15
HETATM   15  C   UNK N   1      35.072  15.095  10.845  0.00  0.00     0.264 C 
HETATM   16  N   UNK N   1      36.328  15.283  11.307  0.00  0.00    -0.236 N 
HETATM   17  H   UNK N   1      37.048  15.511  10.676  0.00  0.00     0.197 HD
HETATM   18  O   UNK N   1      34.172  14.828  11.632  0.00  0.00    -0.269 OA
BRANCH  16  19
HETATM   19  O   UNK N   1      36.608  15.164  12.612  0.00  0.00    -0.287 OA
HETATM   20  H   UNK N   1      37.465  14.823  12.913  0.00  0.00     0.244 HD
ENDBRANCH  16  19
ENDBRANCH  14  15
BRANCH  14  21
HETATM   21  C   UNK N   1      35.194  14.020   8.534  0.00  0.00     0.022 C 
HETATM   22  C   UNK N   1      34.818  12.689   9.218  0.00  0.00     0.033 C 
HETATM   23  C   UNK N   1      33.353  12.280   8.955  0.00  0.00     0.168 C 
HETATM   24  O   UNK N   1      32.646  13.272   8.251  0.00  0.00    -0.391 OA
HETATM   25  C   UNK N   1      33.254  13.364   6.990  0.00  0.00     0.168 C 
HETATM   26  C   UNK N   1      34.628  14.039   7.100  0.00  0.00     0.033 C 
ENDBRANCH  14  21
ENDBRANCH   1  14
TORSDOF 6
ENDMDL
MODEL 6
REMARK VINA RESULT:      -6.5      4.986      7.975
REMARK  6 active torsions:
REMARK  status: ('A' for Active; 'I' for Inactive)
REMARK    1  A    between atoms: C_1  and  S_9 
REMARK    2  A    between atoms: S_9  and  N_10 
REMARK    3  A    between atoms: C_11  and  N_10 
REMARK    4  A    between atoms: C_11  and  C_12 
REMARK    5  A    between atoms: C_11  and  C_18 
REMARK       I    between atoms: C_12  and  N_13 
REMARK    6  A    between atoms: N_13  and  O_14 
ROOT
HETATM    1  N   UNK N   1      35.209  15.078   8.801  0.00  0.00    -0.301 N 
HETATM    2  H   UNK N   1      35.858  15.092   8.014  0.00  0.00     0.173 HD
ENDROOT
BRANCH   1   3
HETATM    3  S   UNK N   1      35.744  15.384  10.472  0.00  0.00     0.259 S 
HETATM    4  O   UNK N   1      36.078  16.872  10.654  0.00  0.00    -0.201 OA
HETATM    5  O   UNK N   1      34.273  15.698  10.784  0.00  0.00    -0.201 OA
BRANCH   3   6
HETATM    6  C   UNK N   1      35.709  14.360  11.949  0.00  0.00     0.080 A 
HETATM    7  C   UNK N   1      36.360  14.802  13.110  0.00  0.00     0.035 A 
HETATM    8  C   UNK N   1      36.309  14.045  14.283  0.00  0.00    -0.022 A 
HETATM    9  C   UNK N   1      35.606  12.833  14.298  0.00  0.00     0.122 A 
HETATM   10  C   UNK N   1      36.995  14.542  15.507  0.00  0.00     0.051 C 
HETATM   11  C   UNK N   1      34.966  12.385  13.137  0.00  0.00     0.044 A 
HETATM   12  F   UNK N   1      35.537  12.092  15.432  0.00  0.00    -0.206 F 
HETATM   13  C   UNK N   1      35.017  13.147  11.965  0.00  0.00     0.028 A 
ENDBRANCH   3   6
ENDBRANCH   1   3
BRANCH   1  14
HETATM   14  C   UNK N   1      33.772  14.802   8.622  0.00  0.00     0.191 C 
BRANCH  14  15
HETATM   15  C   UNK N   1      33.503  13.311   8.583  0.00  0.00     0.264 C 
HETATM   16  N   UNK N   1      32.524  12.766   9.340  0.00  0.00    -0.236 N 
HETATM   17  H   UNK N   1      31.992  13.343   9.934  0.00  0.00     0.197 HD
HETATM   18  O   UNK N   1      34.155  12.596   7.832  0.00  0.00    -0.269 OA
BRANCH  16  19
HETATM   19  O   UNK N   1      32.268  11.452   9.294  0.00  0.00    -0.287 OA
HETATM   20  H   UNK N   1      31.358  11.118   9.251  0.00  0.00     0.244 HD
ENDBRANCH  16  19
ENDBRANCH  14  15
BRANCH  14  21
HETATM   21  C   UNK N   1      33.160  15.547   7.402  0.00  0.00     0.022 C 
HETATM   22  C   UNK N   1      31.857  16.290   7.766  0.00  0.00     0.033 C 
HETATM   23  C   UNK N   1      32.120  17.670   8.407  0.00  0.00     0.168 C 
HETATM   24  O   UNK N   1      33.491  17.896   8.631  0.00  0.00    -0.391 OA
HETATM   25  C   UNK N   1      34.091  17.936   7.363  0.00  0.00     0.168 C 
HETATM   26  C   UNK N   1      34.147  16.533   6.746  0.00  0.00     0.033 C 
ENDBRANCH  14  21
ENDBRANCH   1  14
TORSDOF 6
ENDMDL
MODEL 7
REMARK VINA RESULT:      -6.5     13.574     16.409
REMARK  6 active torsions:
REMARK  status: ('A' for Active; 'I' for Inactive)
REMARK    1  A    between atoms: C_1  and  S_9 
REMARK    2  A    between atoms: S_9  and  N_10 
REMARK    3  A    between atoms: C_11  and  N_10 
REMARK    4  A    between atoms: C_11  and  C_12 
REMARK    5  A    between atoms: C_11  and  C_18 
REMARK       I    between atoms: C_12  and  N_13 
REMARK    6  A    between atoms: N_13  and  O_14 
ROOT
HETATM    1  N   UNK N   1      27.673  25.422  -5.920  0.00  0.00    -0.301 N 
HETATM    2  H   UNK N   1      28.451  25.766  -6.484  0.00  0.00     0.173 HD
ENDROOT
BRANCH   1   3
HETATM    3  S   UNK N   1      27.914  24.272  -4.581  0.00  0.00     0.259 S 
HETATM    4  O   UNK N   1      26.579  24.008  -3.868  0.00  0.00    -0.201 OA
HETATM    5  O   UNK N   1      27.566  23.170  -5.593  0.00  0.00    -0.201 OA
BRANCH   3   6
HETATM    6  C   UNK N   1      29.312  23.239  -4.124  0.00  0.00     0.080 A 
HETATM    7  C   UNK N   1      29.716  22.206  -4.984  0.00  0.00     0.035 A 
HETATM    8  C   UNK N   1      30.827  21.419  -4.671  0.00  0.00    -0.022 A 
HETATM    9  C   UNK N   1      31.539  21.660  -3.489  0.00  0.00     0.122 A 
HETATM   10  C   UNK N   1      31.246  20.339  -5.606  0.00  0.00     0.051 C 
HETATM   11  C   UNK N   1      31.130  22.682  -2.625  0.00  0.00     0.044 A 
HETATM   12  F   UNK N   1      32.626  20.912  -3.177  0.00  0.00    -0.206 F 
HETATM   13  C   UNK N   1      30.019  23.471  -2.943  0.00  0.00     0.028 A 
ENDBRANCH   3   6
ENDBRANCH   1   3
BRANCH   1  14
HETATM   14  C   UNK N   1      26.283  25.848  -6.165  0.00  0.00     0.191 C 
BRANCH  14  15
HETATM   15  C   UNK N   1      25.754  25.264  -7.460  0.00  0.00     0.264 C 
HETATM   16  N   UNK N   1      25.251  24.009  -7.496  0.00  0.00    -0.236 N 
HETATM   17  H   UNK N   1      25.244  23.466  -6.676  0.00  0.00     0.197 HD
HETATM   18  O   UNK N   1      25.748  25.947  -8.477  0.00  0.00    -0.269 OA
BRANCH  16  19
HETATM   19  O   UNK N   1      24.762  23.495  -8.633  0.00  0.00    -0.287 OA
HETATM   20  H   UNK N   1      25.347  23.090  -9.293  0.00  0.00     0.244 HD
ENDBRANCH  16  19
ENDBRANCH  14  15
BRANCH  14  21
HETATM   21  C   UNK N   1      26.101  27.390  -6.093  0.00  0.00     0.022 C 
HETATM   22  C   UNK N   1      25.091  27.808  -5.003  0.00  0.00     0.033 C 
HETATM   23  C   UNK N   1      25.727  27.872  -3.598  0.00  0.00     0.168 C 
HETATM   24  O   UNK N   1      27.060  27.418  -3.600  0.00  0.00    -0.391 OA
HETATM   25  C   UNK N   1      27.780  28.324  -4.393  0.00  0.00     0.168 C 
HETATM   26  C   UNK N   1      27.430  28.141  -5.876  0.00  0.00     0.033 C 
ENDBRANCH  14  21
ENDBRANCH   1  14
TORSDOF 6
ENDMDL
MODEL 8
REMARK VINA RESULT:      -6.5      1.800      2.265
REMARK  6 active torsions:
REMARK  status: ('A' for Active; 'I' for Inactive)
REMARK    1  A    between atoms: C_1  and  S_9 
REMARK    2  A    between atoms: S_9  and  N_10 
REMARK    3  A    between atoms: C_11  and  N_10 
REMARK    4  A    between atoms: C_11  and  C_12 
REMARK    5  A    between atoms: C_11  and  C_18 
REMARK       I    between atoms: C_12  and  N_13 
REMARK    6  A    between atoms: N_13  and  O_14 
ROOT
HETATM    1  N   UNK N   1      31.302  17.899   8.971  0.00  0.00    -0.301 N 
HETATM    2  H   UNK N   1      31.531  18.555   9.718  0.00  0.00     0.173 HD
ENDROOT
BRANCH   1   3
HETATM    3  S   UNK N   1      29.640  17.710   8.357  0.00  0.00     0.259 S 
HETATM    4  O   UNK N   1      28.805  16.880   9.345  0.00  0.00    -0.201 OA
HETATM    5  O   UNK N   1      29.301  18.972   9.165  0.00  0.00    -0.201 OA
BRANCH   3   6
HETATM    6  C   UNK N   1      28.767  18.497   6.997  0.00  0.00     0.080 A 
HETATM    7  C   UNK N   1      27.997  19.644   7.243  0.00  0.00     0.035 A 
HETATM    8  C   UNK N   1      27.346  20.298   6.195  0.00  0.00    -0.022 A 
HETATM    9  C   UNK N   1      27.459  19.802   4.889  0.00  0.00     0.122 A 
HETATM   10  C   UNK N   1      26.548  21.521   6.479  0.00  0.00     0.051 C 
HETATM   11  C   UNK N   1      28.217  18.652   4.644  0.00  0.00     0.044 A 
HETATM   12  F   UNK N   1      26.842  20.433   3.859  0.00  0.00    -0.206 F 
HETATM   13  C   UNK N   1      28.870  18.001   5.696  0.00  0.00     0.028 A 
ENDBRANCH   3   6
ENDBRANCH   1   3
BRANCH   1  14
HETATM   14  C   UNK N   1      32.326  17.051   8.335  0.00  0.00     0.191 C 
BRANCH  14  15
HETATM   15  C   UNK N   1      33.722  17.550   8.655  0.00  0.00     0.264 C 
HETATM   16  N   UNK N   1      34.114  18.789   8.282  0.00  0.00    -0.236 N 
HETATM   17  H   UNK N   1      33.492  19.365   7.782  0.00  0.00     0.197 HD
HETATM   18  O   UNK N   1      34.490  16.839   9.290  0.00  0.00    -0.269 OA
BRANCH  16  19
HETATM   19  O   UNK N   1      35.339  19.243   8.580  0.00  0.00    -0.287 OA
HETATM   20  H   UNK N   1      35.922  19.604   7.894  0.00  0.00     0.244 HD
ENDBRANCH  16  19
ENDBRANCH  14  15
BRANCH  14  21
HETATM   21  C   UNK N   1      32.098  16.867   6.808  0.00  0.00     0.022 C 
HETATM   22  C   UNK N   1      33.402  17.032   5.999  0.00  0.00     0.033 C 
HETATM   23  C   UNK N   1      34.250  15.742   5.972  0.00  0.00     0.168 C 
HETATM   24  O   UNK N   1      33.708  14.735   6.793  0.00  0.00    -0.391 OA
HETATM   25  C   UNK N   1      32.469  14.397   6.228  0.00  0.00     0.168 C 
HETATM   26  C   UNK N   1      31.445  15.515   6.459  0.00  0.00     0.033 C 
ENDBRANCH  14  21
ENDBRANCH   1  14
TORSDOF 6
ENDMDL
MODEL 9
REMARK VINA RESULT:      -6.4      1.453      1.561
REMARK  6 active torsions:
REMARK  status: ('A' for Active; 'I' for Inactive)
REMARK    1  A    between atoms: C_1  and  S_9 
REMARK    2  A    between atoms: S_9  and  N_10 
REMARK    3  A    between atoms: C_11  and  N_10 
REMARK    4  A    between atoms: C_11  and  C_12 
REMARK    5  A    between atoms: C_11  and  C_18 
REMARK       I    between atoms: C_12  and  N_13 
REMARK    6  A    between atoms: N_13  and  O_14 
ROOT
HETATM    1  N   UNK N   1      31.464  17.621   7.902  0.00  0.00    -0.301 N 
HETATM    2  H   UNK N   1      31.978  18.502   7.875  0.00  0.00     0.173 HD
ENDROOT
BRANCH   1   3
HETATM    3  S   UNK N   1      29.690  17.568   8.057  0.00  0.00     0.259 S 
HETATM    4  O   UNK N   1      29.298  17.037   9.444  0.00  0.00    -0.201 OA
HETATM    5  O   UNK N   1      29.796  18.981   8.652  0.00  0.00    -0.201 OA
BRANCH   3   6
HETATM    6  C   UNK N   1      28.376  18.236   7.028  0.00  0.00     0.080 A 
HETATM    7  C   UNK N   1      28.049  19.597   7.123  0.00  0.00     0.035 A 
HETATM    8  C   UNK N   1      27.062  20.147   6.302  0.00  0.00    -0.022 A 
HETATM    9  C   UNK N   1      26.391  19.333   5.380  0.00  0.00     0.122 A 
HETATM   10  C   UNK N   1      26.743  21.597   6.411  0.00  0.00     0.051 C 
HETATM   11  C   UNK N   1      26.708  17.973   5.291  0.00  0.00     0.044 A 
HETATM   12  F   UNK N   1      25.439  19.856   4.568  0.00  0.00    -0.206 F 
HETATM   13  C   UNK N   1      27.699  17.426   6.113  0.00  0.00     0.028 A 
ENDBRANCH   3   6
ENDBRANCH   1   3
BRANCH   1  14
HETATM   14  C   UNK N   1      32.145  16.317   7.814  0.00  0.00     0.191 C 
BRANCH  14  15
HETATM   15  C   UNK N   1      32.905  16.012   9.089  0.00  0.00     0.264 C 
HETATM   16  N   UNK N   1      32.388  15.177  10.019  0.00  0.00    -0.236 N 
HETATM   17  H   UNK N   1      31.501  14.777   9.871  0.00  0.00     0.197 HD
HETATM   18  O   UNK N   1      34.016  16.497   9.264  0.00  0.00    -0.269 OA
BRANCH  16  19
HETATM   19  O   UNK N   1      33.065  14.887  11.138  0.00  0.00    -0.287 OA
HETATM   20  H   UNK N   1      34.016  14.696  11.115  0.00  0.00     0.244 HD
ENDBRANCH  16  19
ENDBRANCH  14  15
BRANCH  14  21
HETATM   21  C   UNK N   1      33.034  16.182   6.546  0.00  0.00     0.022 C 
HETATM   22  C   UNK N   1      32.698  14.916   5.730  0.00  0.00     0.033 C 
HETATM   23  C   UNK N   1      31.489  15.119   4.792  0.00  0.00     0.168 C 
HETATM   24  O   UNK N   1      30.881  16.375   4.977  0.00  0.00    -0.391 OA
HETATM   25  C   UNK N   1      31.835  17.330   4.591  0.00  0.00     0.168 C 
HETATM   26  C   UNK N   1      32.961  17.419   5.630  0.00  0.00     0.033 C 
ENDBRANCH  14  21
ENDBRANCH   1  14
TORSDOF 6
ENDMDL
