MODEL 1
REMARK VINA RESULT:      -5.7      0.000      0.000
REMARK  2 active torsions:
REMARK  status: ('A' for Active; 'I' for Inactive)
REMARK    1  A    between atoms: C_7  and  N_8 
REMARK    2  A    between atoms: N_9  and  C_10 
ROOT
HETATM    1  N   UNK N   1      35.920  17.037  10.603  0.00  0.00    -0.191 NA
HETATM    2  C   UNK N   1      35.681  16.026  11.112  0.00  0.00     0.104 C 
HETATM    3  C   UNK N   1      35.405  14.780  11.773  0.00  0.00     0.106 A 
HETATM    4  C   UNK N   1      34.627  13.724  11.329  0.00  0.00     0.134 A 
HETATM    5  N   UNK N   1      34.652  12.758  12.284  0.00  0.00    -0.302 N 
ATOM      6  HN  UNK N   1      34.170  11.861  12.235  1.00  0.00     0.186 HD
HETATM    7  C   UNK N   1      35.876  14.406  12.997  0.00  0.00     0.143 A 
HETATM    8  N   UNK N   1      35.409  13.177  13.289  0.00  0.00    -0.239 N 
ENDROOT
BRANCH   7   9
HETATM    9  N   UNK N   1      36.717  15.181  13.823  0.00  0.00    -0.383 N 
HETATM   10  H   UNK N   1      36.576  16.152  13.894  0.00  0.00     0.157 HD
HETATM   11  H   UNK N   1      37.444  14.750  14.328  0.00  0.00     0.157 HD
ENDBRANCH   7   9
BRANCH   8  12
HETATM   12  C   UNK N   1      35.667  12.414  14.485  0.00  0.00     0.058 A 
HETATM   13  C   UNK N   1      34.951  12.669  15.664  0.00  0.00     0.033 A 
HETATM   14  C   UNK N   1      35.210  11.921  16.820  0.00  0.00     0.026 A 
HETATM   15  C   UNK N   1      36.185  10.917  16.802  0.00  0.00     0.034 A 
HETATM   16 Cl   UNK N   1      36.519   9.977  18.238  0.00  0.00    -0.084 Cl
HETATM   17  C   UNK N   1      36.899  10.660  15.633  0.00  0.00     0.026 A 
HETATM   18  C   UNK N   1      36.640  11.404  14.484  0.00  0.00     0.033 A 
ENDBRANCH   8  12
TORSDOF 2
ENDMDL
MODEL 2
REMARK VINA RESULT:      -5.7      5.587      8.586
REMARK  2 active torsions:
REMARK  status: ('A' for Active; 'I' for Inactive)
REMARK    1  A    between atoms: C_7  and  N_8 
REMARK    2  A    between atoms: N_9  and  C_10 
ROOT
HETATM    1  N   UNK N   1      35.017  13.236  12.976  0.00  0.00    -0.191 NA
HETATM    2  C   UNK N   1      34.924  14.102  12.215  0.00  0.00     0.104 C 
HETATM    3  C   UNK N   1      34.786  15.156  11.248  0.00  0.00     0.106 A 
HETATM    4  C   UNK N   1      35.351  16.421  11.268  0.00  0.00     0.134 A 
HETATM    5  N   UNK N   1      34.944  17.075  10.149  0.00  0.00    -0.302 N 
ATOM      6  HN  UNK N   1      35.200  18.028   9.891  1.00  0.00     0.186 HD
HETATM    7  C   UNK N   1      34.049  15.095  10.102  0.00  0.00     0.143 A 
HETATM    8  N   UNK N   1      34.158  16.269   9.450  0.00  0.00    -0.239 N 
ENDROOT
BRANCH   7   9
HETATM    9  N   UNK N   1      33.296  13.984   9.671  0.00  0.00    -0.383 N 
HETATM   10  H   UNK N   1      32.802  14.025   8.820  0.00  0.00     0.157 HD
HETATM   11  H   UNK N   1      33.264  13.167  10.220  0.00  0.00     0.157 HD
ENDBRANCH   7   9
BRANCH   8  12
HETATM   12  C   UNK N   1      33.537  16.624   8.197  0.00  0.00     0.058 A 
HETATM   13  C   UNK N   1      32.162  16.895   8.133  0.00  0.00     0.033 A 
HETATM   14  C   UNK N   1      31.569  17.239   6.911  0.00  0.00     0.026 A 
HETATM   15  C   UNK N   1      32.348  17.312   5.750  0.00  0.00     0.034 A 
HETATM   16 Cl   UNK N   1      31.621  17.740   4.219  0.00  0.00    -0.084 Cl
HETATM   17  C   UNK N   1      33.714  17.044   5.809  0.00  0.00     0.026 A 
HETATM   18  C   UNK N   1      34.303  16.702   7.025  0.00  0.00     0.033 A 
ENDBRANCH   8  12
TORSDOF 2
ENDMDL
MODEL 3
REMARK VINA RESULT:      -5.4     10.735     12.942
REMARK  2 active torsions:
REMARK  status: ('A' for Active; 'I' for Inactive)
REMARK    1  A    between atoms: C_7  and  N_8 
REMARK    2  A    between atoms: N_9  and  C_10 
ROOT
HETATM    1  N   UNK N   1      24.862  20.802   2.103  0.00  0.00    -0.191 NA
HETATM    2  C   UNK N   1      25.208  20.092   2.948  0.00  0.00     0.104 C 
HETATM    3  C   UNK N   1      25.674  19.224   3.995  0.00  0.00     0.106 A 
HETATM    4  C   UNK N   1      24.950  18.303   4.733  0.00  0.00     0.134 A 
HETATM    5  N   UNK N   1      25.802  17.711   5.610  0.00  0.00    -0.302 N 
ATOM      6  HN  UNK N   1      25.553  16.989   6.286  1.00  0.00     0.186 HD
HETATM    7  C   UNK N   1      26.953  19.152   4.461  0.00  0.00     0.143 A 
HETATM    8  N   UNK N   1      27.010  18.229   5.440  0.00  0.00    -0.239 N 
ENDROOT
BRANCH   7   9
HETATM    9  N   UNK N   1      28.040  19.920   3.993  0.00  0.00    -0.383 N 
HETATM   10  H   UNK N   1      27.951  20.896   3.907  0.00  0.00     0.157 HD
HETATM   11  H   UNK N   1      28.887  19.479   3.753  0.00  0.00     0.157 HD
ENDBRANCH   7   9
BRANCH   8  12
HETATM   12  C   UNK N   1      28.175  17.842   6.198  0.00  0.00     0.058 A 
HETATM   13  C   UNK N   1      29.050  16.859   5.712  0.00  0.00     0.033 A 
HETATM   14  C   UNK N   1      30.178  16.492   6.457  0.00  0.00     0.026 A 
HETATM   15  C   UNK N   1      30.435  17.104   7.690  0.00  0.00     0.034 A 
HETATM   16 Cl   UNK N   1      31.839  16.655   8.629  0.00  0.00    -0.084 Cl
HETATM   17  C   UNK N   1      29.568  18.080   8.176  0.00  0.00     0.026 A 
HETATM   18  C   UNK N   1      28.446  18.446   7.435  0.00  0.00     0.033 A 
ENDBRANCH   8  12
TORSDOF 2
ENDMDL
MODEL 4
REMARK VINA RESULT:      -5.3      1.737      2.791
REMARK  2 active torsions:
REMARK  status: ('A' for Active; 'I' for Inactive)
REMARK    1  A    between atoms: C_7  and  N_8 
REMARK    2  A    between atoms: N_9  and  C_10 
ROOT
HETATM    1  N   UNK N   1      34.675  13.558  10.341  0.00  0.00    -0.191 NA
HETATM    2  C   UNK N   1      35.072  13.636  11.424  0.00  0.00     0.104 C 
HETATM    3  C   UNK N   1      35.543  13.703  12.780  0.00  0.00     0.106 A 
HETATM    4  C   UNK N   1      36.460  14.584  13.330  0.00  0.00     0.134 A 
HETATM    5  N   UNK N   1      36.597  14.274  14.645  0.00  0.00    -0.302 N 
ATOM      6  HN  UNK N   1      37.207  14.752  15.308  1.00  0.00     0.186 HD
HETATM    7  C   UNK N   1      35.158  12.884  13.800  0.00  0.00     0.143 A 
HETATM    8  N   UNK N   1      35.808  13.246  14.922  0.00  0.00    -0.239 N 
ENDROOT
BRANCH   7   9
HETATM    9  N   UNK N   1      34.228  11.828  13.695  0.00  0.00    -0.383 N 
HETATM   10  H   UNK N   1      34.369  11.112  13.034  0.00  0.00     0.157 HD
HETATM   11  H   UNK N   1      33.438  11.806  14.283  0.00  0.00     0.157 HD
ENDBRANCH   7   9
BRANCH   8  12
HETATM   12  C   UNK N   1      35.690  12.639  16.225  0.00  0.00     0.058 A 
HETATM   13  C   UNK N   1      36.036  11.293  16.421  0.00  0.00     0.033 A 
HETATM   14  C   UNK N   1      35.917  10.714  17.691  0.00  0.00     0.026 A 
HETATM   15  C   UNK N   1      35.453  11.477  18.769  0.00  0.00     0.034 A 
HETATM   16 Cl   UNK N   1      35.301  10.767  20.360  0.00  0.00    -0.084 Cl
HETATM   17  C   UNK N   1      35.109  12.814  18.579  0.00  0.00     0.026 A 
HETATM   18  C   UNK N   1      35.227  13.389  17.316  0.00  0.00     0.033 A 
ENDBRANCH   8  12
TORSDOF 2
ENDMDL
MODEL 5
REMARK VINA RESULT:      -5.2      2.130      2.656
REMARK  2 active torsions:
REMARK  status: ('A' for Active; 'I' for Inactive)
REMARK    1  A    between atoms: C_7  and  N_8 
REMARK    2  A    between atoms: N_9  and  C_10 
ROOT
HETATM    1  N   UNK N   1      35.248  14.953   7.763  0.00  0.00    -0.191 NA
HETATM    2  C   UNK N   1      35.705  14.605   8.766  0.00  0.00     0.104 C 
HETATM    3  C   UNK N   1      36.240  14.180  10.031  0.00  0.00     0.106 A 
HETATM    4  C   UNK N   1      37.514  13.717  10.313  0.00  0.00     0.134 A 
HETATM    5  N   UNK N   1      37.568  13.432  11.640  0.00  0.00    -0.302 N 
ATOM      6  HN  UNK N   1      38.382  13.072  12.139  1.00  0.00     0.186 HD
HETATM    7  C   UNK N   1      35.564  14.155  11.214  0.00  0.00     0.143 A 
HETATM    8  N   UNK N   1      36.387  13.699  12.179  0.00  0.00    -0.239 N 
ENDROOT
BRANCH   7   9
HETATM    9  N   UNK N   1      34.221  14.545  11.399  0.00  0.00    -0.383 N 
HETATM   10  H   UNK N   1      33.500  13.882  11.306  0.00  0.00     0.157 HD
HETATM   11  H   UNK N   1      34.005  15.480  11.622  0.00  0.00     0.157 HD
ENDBRANCH   7   9
BRANCH   8  12
HETATM   12  C   UNK N   1      36.069  13.518  13.574  0.00  0.00     0.058 A 
HETATM   13  C   UNK N   1      36.714  14.283  14.558  0.00  0.00     0.033 A 
HETATM   14  C   UNK N   1      36.397  14.098  15.911  0.00  0.00     0.026 A 
HETATM   15  C   UNK N   1      35.437  13.151  16.283  0.00  0.00     0.034 A 
HETATM   16 Cl   UNK N   1      35.033  12.911  17.968  0.00  0.00    -0.084 Cl
HETATM   17  C   UNK N   1      34.795  12.389  15.309  0.00  0.00     0.026 A 
HETATM   18  C   UNK N   1      35.110  12.573  13.965  0.00  0.00     0.033 A 
ENDBRANCH   8  12
TORSDOF 2
ENDMDL
MODEL 6
REMARK VINA RESULT:      -5.2      7.216     10.001
REMARK  2 active torsions:
REMARK  status: ('A' for Active; 'I' for Inactive)
REMARK    1  A    between atoms: C_7  and  N_8 
REMARK    2  A    between atoms: N_9  and  C_10 
ROOT
HETATM    1  N   UNK N   1      36.064  16.814  10.562  0.00  0.00    -0.191 NA
HETATM    2  C   UNK N   1      35.080  16.530  10.024  0.00  0.00     0.104 C 
HETATM    3  C   UNK N   1      33.857  16.213   9.339  0.00  0.00     0.106 A 
HETATM    4  C   UNK N   1      33.122  15.040   9.391  0.00  0.00     0.134 A 
HETATM    5  N   UNK N   1      32.041  15.191   8.582  0.00  0.00    -0.302 N 
ATOM      6  HN  UNK N   1      31.318  14.491   8.419  1.00  0.00     0.186 HD
HETATM    7  C   UNK N   1      33.182  17.038   8.490  0.00  0.00     0.143 A 
HETATM    8  N   UNK N   1      32.083  16.400   8.041  0.00  0.00    -0.239 N 
ENDROOT
BRANCH   7   9
HETATM    9  N   UNK N   1      33.571  18.348   8.138  0.00  0.00    -0.383 N 
HETATM   10  H   UNK N   1      33.230  19.116   8.650  0.00  0.00     0.157 HD
HETATM   11  H   UNK N   1      34.182  18.493   7.380  0.00  0.00     0.157 HD
ENDBRANCH   7   9
BRANCH   8  12
HETATM   12  C   UNK N   1      31.096  16.916   7.125  0.00  0.00     0.058 A 
HETATM   13  C   UNK N   1      31.329  16.900   5.741  0.00  0.00     0.033 A 
HETATM   14  C   UNK N   1      30.362  17.404   4.860  0.00  0.00     0.026 A 
HETATM   15  C   UNK N   1      29.163  17.925   5.358  0.00  0.00     0.034 A 
HETATM   16 Cl   UNK N   1      27.949  18.556   4.269  0.00  0.00    -0.084 Cl
HETATM   17  C   UNK N   1      28.928  17.942   6.731  0.00  0.00     0.026 A 
HETATM   18  C   UNK N   1      29.888  17.441   7.607  0.00  0.00     0.033 A 
ENDBRANCH   8  12
TORSDOF 2
ENDMDL
MODEL 7
REMARK VINA RESULT:      -5.1     20.361     22.517
REMARK  2 active torsions:
REMARK  status: ('A' for Active; 'I' for Inactive)
REMARK    1  A    between atoms: C_7  and  N_8 
REMARK    2  A    between atoms: N_9  and  C_10 
ROOT
HETATM    1  N   UNK N   1      30.441  22.980  -1.507  0.00  0.00    -0.191 NA
HETATM    2  C   UNK N   1      30.254  22.722  -2.619  0.00  0.00     0.104 C 
HETATM    3  C   UNK N   1      30.043  22.370  -3.997  0.00  0.00     0.106 A 
HETATM    4  C   UNK N   1      29.328  23.061  -4.961  0.00  0.00     0.134 A 
HETATM    5  N   UNK N   1      29.399  22.354  -6.118  0.00  0.00    -0.302 N 
ATOM      6  HN  UNK N   1      28.968  22.617  -7.004  1.00  0.00     0.186 HD
HETATM    7  C   UNK N   1      30.524  21.256  -4.618  0.00  0.00     0.143 A 
HETATM    8  N   UNK N   1      30.123  21.264  -5.904  0.00  0.00    -0.239 N 
ENDROOT
BRANCH   7   9
HETATM    9  N   UNK N   1      31.314  20.257  -4.011  0.00  0.00    -0.383 N 
HETATM   10  H   UNK N   1      31.844  20.469  -3.210  0.00  0.00     0.157 HD
HETATM   11  H   UNK N   1      31.336  19.348  -4.390  0.00  0.00     0.157 HD
ENDBRANCH   7   9
BRANCH   8  12
HETATM   12  C   UNK N   1      30.414  20.271  -6.908  0.00  0.00     0.058 A 
HETATM   13  C   UNK N   1      29.406  19.419  -7.383  0.00  0.00     0.033 A 
HETATM   14  C   UNK N   1      29.700  18.457  -8.359  0.00  0.00     0.026 A 
HETATM   15  C   UNK N   1      31.002  18.344  -8.862  0.00  0.00     0.034 A 
HETATM   16 Cl   UNK N   1      31.382  17.148 -10.079  0.00  0.00    -0.084 Cl
HETATM   17  C   UNK N   1      32.006  19.187  -8.392  0.00  0.00     0.026 A 
HETATM   18  C   UNK N   1      31.713  20.143  -7.422  0.00  0.00     0.033 A 
ENDBRANCH   8  12
TORSDOF 2
ENDMDL
MODEL 8
REMARK VINA RESULT:      -5.1      1.696      2.350
REMARK  2 active torsions:
REMARK  status: ('A' for Active; 'I' for Inactive)
REMARK    1  A    between atoms: C_7  and  N_8 
REMARK    2  A    between atoms: N_9  and  C_10 
ROOT
HETATM    1  N   UNK N   1      34.618  13.044   9.609  0.00  0.00    -0.191 NA
HETATM    2  C   UNK N   1      35.033  13.190  10.679  0.00  0.00     0.104 C 
HETATM    3  C   UNK N   1      35.527  13.342  12.020  0.00  0.00     0.106 A 
HETATM    4  C   UNK N   1      36.461  14.248  12.495  0.00  0.00     0.134 A 
HETATM    5  N   UNK N   1      36.617  14.025  13.825  0.00  0.00    -0.302 N 
ATOM      6  HN  UNK N   1      37.242  14.540  14.445  1.00  0.00     0.186 HD
HETATM    7  C   UNK N   1      35.150  12.597  13.097  0.00  0.00     0.143 A 
HETATM    8  N   UNK N   1      35.823  13.026  14.183  0.00  0.00    -0.239 N 
ENDROOT
BRANCH   7   9
HETATM    9  N   UNK N   1      34.209  11.546  13.079  0.00  0.00    -0.383 N 
HETATM   10  H   UNK N   1      34.345  10.775  12.482  0.00  0.00     0.157 HD
HETATM   11  H   UNK N   1      33.417  11.584  13.662  0.00  0.00     0.157 HD
ENDBRANCH   7   9
BRANCH   8  12
HETATM   12  C   UNK N   1      35.720  12.509  15.525  0.00  0.00     0.058 A 
HETATM   13  C   UNK N   1      35.142  13.280  16.546  0.00  0.00     0.033 A 
HETATM   14  C   UNK N   1      35.048  12.767  17.847  0.00  0.00     0.026 A 
HETATM   15  C   UNK N   1      35.531  11.484  18.131  0.00  0.00     0.034 A 
HETATM   16 Cl   UNK N   1      35.419  10.833  19.750  0.00  0.00    -0.084 Cl
HETATM   17  C   UNK N   1      36.105  10.716  17.121  0.00  0.00     0.026 A 
HETATM   18  C   UNK N   1      36.199  11.225  15.828  0.00  0.00     0.033 A 
ENDBRANCH   8  12
TORSDOF 2
ENDMDL
MODEL 9
REMARK VINA RESULT:      -5.1     25.637     26.538
REMARK  2 active torsions:
REMARK  status: ('A' for Active; 'I' for Inactive)
REMARK    1  A    between atoms: C_7  and  N_8 
REMARK    2  A    between atoms: N_9  and  C_10 
ROOT
HETATM    1  N   UNK N   1      25.526  20.741  -8.280  0.00  0.00    -0.191 NA
HETATM    2  C   UNK N   1      25.558  21.897  -8.273  0.00  0.00     0.104 C 
HETATM    3  C   UNK N   1      25.604  23.333  -8.227  0.00  0.00     0.106 A 
HETATM    4  C   UNK N   1      25.433  24.232  -9.266  0.00  0.00     0.134 A 
HETATM    5  N   UNK N   1      25.561  25.485  -8.757  0.00  0.00    -0.302 N 
ATOM      6  HN  UNK N   1      25.485  26.353  -9.287  1.00  0.00     0.186 HD
HETATM    7  C   UNK N   1      25.832  24.088  -7.115  0.00  0.00     0.143 A 
HETATM    8  N   UNK N   1      25.802  25.391  -7.457  0.00  0.00    -0.239 N 
ENDROOT
BRANCH   7   9
HETATM    9  N   UNK N   1      26.062  23.586  -5.817  0.00  0.00    -0.383 N 
HETATM   10  H   UNK N   1      26.909  23.130  -5.609  0.00  0.00     0.157 HD
HETATM   11  H   UNK N   1      25.376  23.692  -5.119  0.00  0.00     0.157 HD
ENDBRANCH   7   9
BRANCH   8  12
HETATM   12  C   UNK N   1      25.996  26.520  -6.582  0.00  0.00     0.058 A 
HETATM   13  C   UNK N   1      27.088  27.383  -6.760  0.00  0.00     0.033 A 
HETATM   14  C   UNK N   1      27.266  28.478  -5.903  0.00  0.00     0.026 A 
HETATM   15  C   UNK N   1      26.355  28.713  -4.868  0.00  0.00     0.034 A 
HETATM   16 Cl   UNK N   1      26.565  30.075  -3.792  0.00  0.00    -0.084 Cl
HETATM   17  C   UNK N   1      25.269  27.859  -4.687  0.00  0.00     0.026 A 
HETATM   18  C   UNK N   1      25.092  26.771  -5.539  0.00  0.00     0.033 A 
ENDBRANCH   8  12
TORSDOF 2
ENDMDL
