MODEL 1
REMARK VINA RESULT:      -5.4      0.000      0.000
REMARK  3 active torsions:
REMARK  status: ('A' for Active; 'I' for Inactive)
REMARK    1  A    between atoms: O_1  and  C_4 
REMARK    2  A    between atoms: C_7  and  C_8 
REMARK    3  A    between atoms: C_9  and  N_14 
ROOT
HETATM    1  C   UNK N   1      35.698  12.493  14.832  0.00  0.00     0.051 A 
HETATM    2  C   UNK N   1      36.714  12.831  12.843  0.00  0.00     0.142 A 
HETATM    3  C   UNK N   1      34.696  11.942  14.001  0.00  0.00     0.083 A 
HETATM    4  S   UNK N   1      35.288  12.111  12.459  0.00  0.00    -0.064 SA
HETATM    5  N   UNK N   1      36.813  12.982  14.178  0.00  0.00    -0.336 N 
ATOM      6  HN  UNK N   1      37.612  13.407  14.649  1.00  0.00     0.168 HD
ENDROOT
BRANCH   1   7
HETATM    7  C   UNK N   1      35.575  12.591  16.293  0.00  0.00    -0.009 A 
HETATM    8  C   UNK N   1      35.454  13.853  16.889  0.00  0.00     0.016 A 
HETATM    9  C   UNK N   1      35.298  13.968  18.270  0.00  0.00     0.037 A 
HETATM   10  C   UNK N   1      35.257  12.820  19.064  0.00  0.00     0.065 A 
HETATM   11  C   UNK N   1      35.383  11.557  18.478  0.00  0.00     0.037 A 
HETATM   12  C   UNK N   1      35.542  11.440  17.094  0.00  0.00     0.016 A 
BRANCH  10  13
HETATM   13  O   UNK N   1      35.095  12.932  20.391  0.00  0.00    -0.361 OA
HETATM   14  H   UNK N   1      34.235  12.930  20.760  0.00  0.00     0.217 HD
ENDBRANCH  10  13
ENDBRANCH   1   7
BRANCH   2  15
HETATM   15  N   UNK N   1      37.695  13.266  11.929  0.00  0.00    -0.380 N 
HETATM   16  H   UNK N   1      37.893  14.226  11.841  0.00  0.00     0.158 HD
HETATM   17  H   UNK N   1      38.181  12.610  11.381  0.00  0.00     0.158 HD
ENDBRANCH   2  15
TORSDOF 3
ENDMDL
MODEL 2
REMARK VINA RESULT:      -5.3      1.508      2.106
REMARK  3 active torsions:
REMARK  status: ('A' for Active; 'I' for Inactive)
REMARK    1  A    between atoms: O_1  and  C_4 
REMARK    2  A    between atoms: C_7  and  C_8 
REMARK    3  A    between atoms: C_9  and  N_14 
ROOT
HETATM    1  C   UNK N   1      35.560  13.015  15.160  0.00  0.00     0.051 A 
HETATM    2  C   UNK N   1      35.091  12.788  12.961  0.00  0.00     0.142 A 
HETATM    3  C   UNK N   1      36.408  14.033  14.670  0.00  0.00     0.083 A 
HETATM    4  S   UNK N   1      36.190  14.009  13.024  0.00  0.00    -0.064 SA
HETATM    5  N   UNK N   1      34.834  12.331  14.203  0.00  0.00    -0.336 N 
ATOM      6  HN  UNK N   1      34.184  11.574  14.410  1.00  0.00     0.168 HD
ENDROOT
BRANCH   1   7
HETATM    7  C   UNK N   1      35.464  12.654  16.580  0.00  0.00    -0.009 A 
HETATM    8  C   UNK N   1      35.689  11.328  16.970  0.00  0.00     0.016 A 
HETATM    9  C   UNK N   1      35.641  10.970  18.317  0.00  0.00     0.037 A 
HETATM   10  C   UNK N   1      35.372  11.940  19.285  0.00  0.00     0.065 A 
HETATM   11  C   UNK N   1      35.139  13.265  18.905  0.00  0.00     0.037 A 
HETATM   12  C   UNK N   1      35.185  13.624  17.555  0.00  0.00     0.016 A 
BRANCH  10  13
HETATM   13  O   UNK N   1      35.337  11.597  20.582  0.00  0.00    -0.361 OA
HETATM   14  H   UNK N   1      34.615  11.103  20.917  0.00  0.00     0.217 HD
ENDBRANCH  10  13
ENDBRANCH   1   7
BRANCH   2  15
HETATM   15  N   UNK N   1      34.511  12.254  11.793  0.00  0.00    -0.380 N 
HETATM   16  H   UNK N   1      34.500  11.281  11.650  0.00  0.00     0.158 HD
HETATM   17  H   UNK N   1      34.117  12.855  11.121  0.00  0.00     0.158 HD
ENDBRANCH   2  15
TORSDOF 3
ENDMDL
MODEL 3
REMARK VINA RESULT:      -5.2     25.971     26.841
REMARK  3 active torsions:
REMARK  status: ('A' for Active; 'I' for Inactive)
REMARK    1  A    between atoms: O_1  and  C_4 
REMARK    2  A    between atoms: C_7  and  C_8 
REMARK    3  A    between atoms: C_9  and  N_14 
ROOT
HETATM    1  C   UNK N   1      26.240  23.985  -6.356  0.00  0.00     0.051 A 
HETATM    2  C   UNK N   1      25.641  22.067  -7.391  0.00  0.00     0.142 A 
HETATM    3  C   UNK N   1      27.510  23.624  -6.857  0.00  0.00     0.083 A 
HETATM    4  S   UNK N   1      27.256  22.197  -7.668  0.00  0.00    -0.064 SA
HETATM    5  N   UNK N   1      25.210  23.113  -6.658  0.00  0.00    -0.336 N 
ATOM      6  HN  UNK N   1      24.243  23.245  -6.363  1.00  0.00     0.168 HD
ENDROOT
BRANCH   1   7
HETATM    7  C   UNK N   1      26.002  25.176  -5.530  0.00  0.00    -0.009 A 
HETATM    8  C   UNK N   1      26.540  25.236  -4.238  0.00  0.00     0.016 A 
HETATM    9  C   UNK N   1      26.359  26.373  -3.451  0.00  0.00     0.037 A 
HETATM   10  C   UNK N   1      25.642  27.461  -3.953  0.00  0.00     0.065 A 
HETATM   11  C   UNK N   1      25.097  27.407  -5.239  0.00  0.00     0.037 A 
HETATM   12  C   UNK N   1      25.275  26.267  -6.029  0.00  0.00     0.016 A 
BRANCH  10  13
HETATM   13  O   UNK N   1      25.479  28.558  -3.199  0.00  0.00    -0.361 OA
HETATM   14  H   UNK N   1      25.838  29.377  -3.479  0.00  0.00     0.217 HD
ENDBRANCH  10  13
ENDBRANCH   1   7
BRANCH   2  15
HETATM   15  N   UNK N   1      24.809  21.012  -7.816  0.00  0.00    -0.380 N 
HETATM   16  H   UNK N   1      25.206  20.160  -8.109  0.00  0.00     0.158 HD
HETATM   17  H   UNK N   1      23.832  21.127  -7.820  0.00  0.00     0.158 HD
ENDBRANCH   2  15
TORSDOF 3
ENDMDL
MODEL 4
REMARK VINA RESULT:      -5.1     17.932     19.276
REMARK  3 active torsions:
REMARK  status: ('A' for Active; 'I' for Inactive)
REMARK    1  A    between atoms: O_1  and  C_4 
REMARK    2  A    between atoms: C_7  and  C_8 
REMARK    3  A    between atoms: C_9  and  N_14 
ROOT
HETATM    1  C   UNK N   1      22.689  19.853   3.085  0.00  0.00     0.051 A 
HETATM    2  C   UNK N   1      20.907  20.450   1.831  0.00  0.00     0.142 A 
HETATM    3  C   UNK N   1      21.682  19.259   3.877  0.00  0.00     0.083 A 
HETATM    4  S   UNK N   1      20.263  19.607   3.086  0.00  0.00    -0.064 SA
HETATM    5  N   UNK N   1      22.247  20.511   1.953  0.00  0.00    -0.336 N 
ATOM      6  HN  UNK N   1      22.861  20.986   1.290  1.00  0.00     0.168 HD
ENDROOT
BRANCH   1   7
HETATM    7  C   UNK N   1      24.116  19.828   3.435  0.00  0.00    -0.009 A 
HETATM    8  C   UNK N   1      24.561  18.970   4.448  0.00  0.00     0.016 A 
HETATM    9  C   UNK N   1      25.916  18.902   4.770  0.00  0.00     0.037 A 
HETATM   10  C   UNK N   1      26.836  19.690   4.078  0.00  0.00     0.065 A 
HETATM   11  C   UNK N   1      26.400  20.555   3.070  0.00  0.00     0.037 A 
HETATM   12  C   UNK N   1      25.042  20.626   2.747  0.00  0.00     0.016 A 
BRANCH  10  13
HETATM   13  O   UNK N   1      28.141  19.615   4.381  0.00  0.00    -0.361 OA
HETATM   14  H   UNK N   1      28.443  18.981   5.001  0.00  0.00     0.217 HD
ENDBRANCH  10  13
ENDBRANCH   1   7
BRANCH   2  15
HETATM   15  N   UNK N   1      20.185  21.059   0.785  0.00  0.00    -0.380 N 
HETATM   16  H   UNK N   1      19.837  21.973   0.894  0.00  0.00     0.158 HD
HETATM   17  H   UNK N   1      20.029  20.570  -0.054  0.00  0.00     0.158 HD
ENDBRANCH   2  15
TORSDOF 3
ENDMDL
MODEL 5
REMARK VINA RESULT:      -5.1     14.617     16.134
REMARK  3 active torsions:
REMARK  status: ('A' for Active; 'I' for Inactive)
REMARK    1  A    between atoms: O_1  and  C_4 
REMARK    2  A    between atoms: C_7  and  C_8 
REMARK    3  A    between atoms: C_9  and  N_14 
ROOT
HETATM    1  C   UNK N   1      27.510  18.589   5.887  0.00  0.00     0.051 A 
HETATM    2  C   UNK N   1      28.305  18.325   7.986  0.00  0.00     0.142 A 
HETATM    3  C   UNK N   1      28.550  17.679   5.593  0.00  0.00     0.083 A 
HETATM    4  S   UNK N   1      29.265  17.366   7.058  0.00  0.00    -0.064 SA
HETATM    5  N   UNK N   1      27.384  18.939   7.219  0.00  0.00    -0.336 N 
ATOM      6  HN  UNK N   1      26.679  19.584   7.576  1.00  0.00     0.168 HD
ENDROOT
BRANCH   1   7
HETATM    7  C   UNK N   1      26.630  19.173   4.866  0.00  0.00    -0.009 A 
HETATM    8  C   UNK N   1      25.274  18.826   4.845  0.00  0.00     0.016 A 
HETATM    9  C   UNK N   1      24.413  19.398   3.909  0.00  0.00     0.037 A 
HETATM   10  C   UNK N   1      24.904  20.327   2.989  0.00  0.00     0.065 A 
HETATM   11  C   UNK N   1      26.258  20.675   2.999  0.00  0.00     0.037 A 
HETATM   12  C   UNK N   1      27.122  20.101   3.935  0.00  0.00     0.016 A 
BRANCH  10  13
HETATM   13  O   UNK N   1      24.073  20.886   2.096  0.00  0.00    -0.361 OA
HETATM   14  H   UNK N   1      24.083  20.601   1.205  0.00  0.00     0.217 HD
ENDBRANCH  10  13
ENDBRANCH   1   7
BRANCH   2  15
HETATM   15  N   UNK N   1      28.426  18.521   9.376  0.00  0.00    -0.380 N 
HETATM   16  H   UNK N   1      29.267  18.863   9.754  0.00  0.00     0.158 HD
HETATM   17  H   UNK N   1      27.668  18.315   9.969  0.00  0.00     0.158 HD
ENDBRANCH   2  15
TORSDOF 3
ENDMDL
MODEL 6
REMARK VINA RESULT:      -5.0      9.182     10.788
REMARK  3 active torsions:
REMARK  status: ('A' for Active; 'I' for Inactive)
REMARK    1  A    between atoms: O_1  and  C_4 
REMARK    2  A    between atoms: C_7  and  C_8 
REMARK    3  A    between atoms: C_9  and  N_14 
ROOT
HETATM    1  C   UNK N   1      32.545  16.904   8.317  0.00  0.00     0.051 A 
HETATM    2  C   UNK N   1      34.480  16.833   9.483  0.00  0.00     0.142 A 
HETATM    3  C   UNK N   1      33.194  15.899   7.565  0.00  0.00     0.083 A 
HETATM    4  S   UNK N   1      34.672  15.711   8.297  0.00  0.00    -0.064 SA
HETATM    5  N   UNK N   1      33.269  17.414   9.379  0.00  0.00    -0.336 N 
ATOM      6  HN  UNK N   1      32.927  18.142  10.007  1.00  0.00     0.168 HD
ENDROOT
BRANCH   1   7
HETATM    7  C   UNK N   1      31.210  17.423   7.995  0.00  0.00    -0.009 A 
HETATM    8  C   UNK N   1      30.618  17.087   6.771  0.00  0.00     0.016 A 
HETATM    9  C   UNK N   1      29.335  17.538   6.460  0.00  0.00     0.037 A 
HETATM   10  C   UNK N   1      28.633  18.325   7.375  0.00  0.00     0.065 A 
HETATM   11  C   UNK N   1      29.219  18.671   8.596  0.00  0.00     0.037 A 
HETATM   12  C   UNK N   1      30.505  18.221   8.908  0.00  0.00     0.016 A 
BRANCH  10  13
HETATM   13  O   UNK N   1      27.395  18.748   7.080  0.00  0.00    -0.361 OA
HETATM   14  H   UNK N   1      26.726  18.732   7.734  0.00  0.00     0.217 HD
ENDBRANCH  10  13
ENDBRANCH   1   7
BRANCH   2  15
HETATM   15  N   UNK N   1      35.436  17.180  10.458  0.00  0.00    -0.380 N 
HETATM   16  H   UNK N   1      36.191  17.765  10.221  0.00  0.00     0.158 HD
HETATM   17  H   UNK N   1      35.348  16.837  11.377  0.00  0.00     0.158 HD
ENDBRANCH   2  15
TORSDOF 3
ENDMDL
MODEL 7
REMARK VINA RESULT:      -5.0     18.096     19.495
REMARK  3 active torsions:
REMARK  status: ('A' for Active; 'I' for Inactive)
REMARK    1  A    between atoms: O_1  and  C_4 
REMARK    2  A    between atoms: C_7  and  C_8 
REMARK    3  A    between atoms: C_9  and  N_14 
ROOT
HETATM    1  C   UNK N   1      23.820  19.515   3.695  0.00  0.00     0.051 A 
HETATM    2  C   UNK N   1      25.721  19.245   4.887  0.00  0.00     0.142 A 
HETATM    3  C   UNK N   1      24.646  20.387   2.952  0.00  0.00     0.083 A 
HETATM    4  S   UNK N   1      26.124  20.315   3.707  0.00  0.00    -0.064 SA
HETATM    5  N   UNK N   1      24.428  18.886   4.766  0.00  0.00    -0.336 N 
ATOM      6  HN  UNK N   1      23.955  18.232   5.389  1.00  0.00     0.168 HD
ENDROOT
BRANCH   1   7
HETATM    7  C   UNK N   1      22.397  19.300   3.402  0.00  0.00    -0.009 A 
HETATM    8  C   UNK N   1      21.673  20.299   2.740  0.00  0.00     0.016 A 
HETATM    9  C   UNK N   1      20.331  20.100   2.417  0.00  0.00     0.037 A 
HETATM   10  C   UNK N   1      19.705  18.897   2.751  0.00  0.00     0.065 A 
HETATM   11  C   UNK N   1      20.419  17.897   3.417  0.00  0.00     0.037 A 
HETATM   12  C   UNK N   1      21.764  18.096   3.744  0.00  0.00     0.016 A 
BRANCH  10  13
HETATM   13  O   UNK N   1      18.417  18.703   2.429  0.00  0.00    -0.361 OA
HETATM   14  H   UNK N   1      17.987  17.909   2.676  0.00  0.00     0.217 HD
ENDBRANCH  10  13
ENDBRANCH   1   7
BRANCH   2  15
HETATM   15  N   UNK N   1      26.573  18.778   5.908  0.00  0.00    -0.380 N 
HETATM   16  H   UNK N   1      27.524  18.611   5.718  0.00  0.00     0.158 HD
HETATM   17  H   UNK N   1      26.216  18.618   6.811  0.00  0.00     0.158 HD
ENDBRANCH   2  15
TORSDOF 3
ENDMDL
MODEL 8
REMARK VINA RESULT:      -4.8     22.478     24.175
REMARK  3 active torsions:
REMARK  status: ('A' for Active; 'I' for Inactive)
REMARK    1  A    between atoms: O_1  and  C_4 
REMARK    2  A    between atoms: C_7  and  C_8 
REMARK    3  A    between atoms: C_9  and  N_14 
ROOT
HETATM    1  C   UNK N   1      28.405  23.211  -5.471  0.00  0.00     0.051 A 
HETATM    2  C   UNK N   1      26.489  24.291  -5.989  0.00  0.00     0.142 A 
HETATM    3  C   UNK N   1      28.382  22.922  -6.853  0.00  0.00     0.083 A 
HETATM    4  S   UNK N   1      27.002  23.656  -7.415  0.00  0.00    -0.064 SA
HETATM    5  N   UNK N   1      27.350  23.971  -5.003  0.00  0.00    -0.336 N 
ATOM      6  HN  UNK N   1      27.236  24.255  -4.030  1.00  0.00     0.168 HD
ENDROOT
BRANCH   1   7
HETATM    7  C   UNK N   1      29.443  22.717  -4.557  0.00  0.00    -0.009 A 
HETATM    8  C   UNK N   1      30.181  21.578  -4.904  0.00  0.00     0.016 A 
HETATM    9  C   UNK N   1      31.197  21.114  -4.070  0.00  0.00     0.037 A 
HETATM   10  C   UNK N   1      31.486  21.790  -2.883  0.00  0.00     0.065 A 
HETATM   11  C   UNK N   1      30.751  22.924  -2.525  0.00  0.00     0.037 A 
HETATM   12  C   UNK N   1      29.730  23.389  -3.359  0.00  0.00     0.016 A 
BRANCH  10  13
HETATM   13  O   UNK N   1      32.472  21.349  -2.086  0.00  0.00    -0.361 OA
HETATM   14  H   UNK N   1      32.738  20.452  -2.123  0.00  0.00     0.217 HD
ENDBRANCH  10  13
ENDBRANCH   1   7
BRANCH   2  15
HETATM   15  N   UNK N   1      25.309  25.036  -5.790  0.00  0.00    -0.380 N 
HETATM   16  H   UNK N   1      25.132  25.452  -4.916  0.00  0.00     0.158 HD
HETATM   17  H   UNK N   1      24.664  25.140  -6.525  0.00  0.00     0.158 HD
ENDBRANCH   2  15
TORSDOF 3
ENDMDL
MODEL 9
REMARK VINA RESULT:      -4.8      9.142     10.780
REMARK  3 active torsions:
REMARK  status: ('A' for Active; 'I' for Inactive)
REMARK    1  A    between atoms: O_1  and  C_4 
REMARK    2  A    between atoms: C_7  and  C_8 
REMARK    3  A    between atoms: C_9  and  N_14 
ROOT
HETATM    1  C   UNK N   1      33.704  16.204   5.231  0.00  0.00     0.051 A 
HETATM    2  C   UNK N   1      32.685  16.572   3.248  0.00  0.00     0.142 A 
HETATM    3  C   UNK N   1      34.192  15.070   4.544  0.00  0.00     0.083 A 
HETATM    4  S   UNK N   1      33.526  15.177   3.026  0.00  0.00    -0.064 SA
HETATM    5  N   UNK N   1      32.869  17.030   4.502  0.00  0.00    -0.336 N 
ATOM      6  HN  UNK N   1      32.444  17.882   4.868  1.00  0.00     0.168 HD
ENDROOT
BRANCH   1   7
HETATM    7  C   UNK N   1      34.010  16.493   6.638  0.00  0.00    -0.009 A 
HETATM    8  C   UNK N   1      34.355  15.442   7.498  0.00  0.00     0.016 A 
HETATM    9  C   UNK N   1      34.687  15.698   8.828  0.00  0.00     0.037 A 
HETATM   10  C   UNK N   1      34.681  17.010   9.306  0.00  0.00     0.065 A 
HETATM   11  C   UNK N   1      34.332  18.064   8.458  0.00  0.00     0.037 A 
HETATM   12  C   UNK N   1      33.997  17.809   7.125  0.00  0.00     0.016 A 
BRANCH  10  13
HETATM   13  O   UNK N   1      35.011  17.256  10.583  0.00  0.00    -0.361 OA
HETATM   14  H   UNK N   1      34.363  17.562  11.185  0.00  0.00     0.217 HD
ENDBRANCH  10  13
ENDBRANCH   1   7
BRANCH   2  15
HETATM   15  N   UNK N   1      31.859  17.201   2.296  0.00  0.00    -0.380 N 
HETATM   16  H   UNK N   1      32.042  17.091   1.336  0.00  0.00     0.158 HD
HETATM   17  H   UNK N   1      31.099  17.752   2.592  0.00  0.00     0.158 HD
ENDBRANCH   2  15
TORSDOF 3
ENDMDL
