REMARK  3 active torsions:
REMARK  status: ('A' for Active; 'I' for Inactive)
REMARK    1  A    between atoms: O_1  and  C_4 
REMARK    2  A    between atoms: C_7  and  C_8 
REMARK    3  A    between atoms: C_9  and  N_14 
ROOT
HETATM    1  C   UNK N   1      -0.025  -1.060   0.061  0.00  0.00     0.051 A 
HETATM    2  C   UNK N   1       0.746  -3.184   0.033  0.00  0.00     0.142 A 
HETATM    3  C   UNK N   1      -1.271  -1.723   0.002  0.00  0.00     0.083 A 
HETATM    4  S   UNK N   1      -0.889  -3.339  -0.028  0.00  0.00    -0.064 SA
HETATM    5  N   UNK N   1       1.087  -1.881   0.078  0.00  0.00    -0.336 N 
ATOM      6  HN  UNK N   1       2.048  -1.542   0.119  1.00  0.00     0.168 HD
ENDROOT
BRANCH   1   7
HETATM    7  C   UNK N   1       0.116   0.402   0.063  0.00  0.00    -0.009 A 
HETATM    8  C   UNK N   1       1.395   0.970   0.115  0.00  0.00     0.016 A 
HETATM    9  C   UNK N   1       1.554   2.355   0.079  0.00  0.00     0.037 A 
HETATM   10  C   UNK N   1       0.433   3.182  -0.014  0.00  0.00     0.065 A 
HETATM   11  C   UNK N   1      -0.848   2.624  -0.060  0.00  0.00     0.037 A 
HETATM   12  C   UNK N   1      -1.009   1.236  -0.022  0.00  0.00     0.016 A 
BRANCH  10  13
HETATM   13  O   UNK N   1       0.588   4.514  -0.060  0.00  0.00    -0.361 OA
HETATM   14  H   UNK N   1       1.447   4.885  -0.093  0.00  0.00     0.217 HD
ENDBRANCH  10  13
ENDBRANCH   1   7
BRANCH   2  15
HETATM   15  N   UNK N   1       1.680  -4.239   0.010  0.00  0.00    -0.380 N 
HETATM   16  H   UNK N   1       1.368  -5.172  -0.006  0.00  0.00     0.158 HD
HETATM   17  H   UNK N   1       2.644  -4.042   0.010  0.00  0.00     0.158 HD
ENDBRANCH   2  15
TORSDOF 3
