MODEL 1
REMARK VINA RESULT:      -5.5      0.000      0.000
REMARK  5 active torsions:
REMARK  status: ('A' for Active; 'I' for Inactive)
REMARK    1  A    between atoms: C_2  and  C_4 
REMARK    2  A    between atoms: C_4  and  N_5 
REMARK       I    between atoms: N_5  and  C_6 
REMARK    3  A    between atoms: C_6  and  O_8 
REMARK    4  A    between atoms: O_8  and  C_9 
REMARK    5  A    between atoms: C_9  and  C_10 
ROOT
HETATM    1  N   UNK N   1      28.678  23.857  -3.685  0.00  0.00    -0.330 N 
HETATM    2  C   UNK N   1      27.362  24.166  -3.735  0.00  0.00     0.361 C 
HETATM    3  O   UNK N   1      26.654  24.053  -2.745  0.00  0.00    -0.238 OA
HETATM    4  H   UNK N   1      29.217  23.966  -4.501  0.00  0.00     0.165 HD
ENDROOT
BRANCH   2   5
HETATM    5  O   UNK N   1      26.848  24.579  -4.915  0.00  0.00    -0.299 OA
BRANCH   5   6
HETATM    6  C   UNK N   1      25.739  25.384  -5.034  0.00  0.00     0.219 C 
BRANCH   6   7
HETATM    7  C   UNK N   1      26.147  26.824  -4.959  0.00  0.00    -0.034 A 
HETATM    8  C   UNK N   1      25.727  27.602  -3.876  0.00  0.00     0.009 A 
HETATM    9  C   UNK N   1      26.129  28.939  -3.775  0.00  0.00     0.001 A 
HETATM   10  C   UNK N   1      26.946  29.503  -4.760  0.00  0.00     0.000 A 
HETATM   11  C   UNK N   1      27.361  28.733  -5.849  0.00  0.00     0.001 A 
HETATM   12  C   UNK N   1      26.965  27.396  -5.948  0.00  0.00     0.009 A 
ENDBRANCH   6   7
ENDBRANCH   5   6
ENDBRANCH   2   5
BRANCH   1  13
HETATM   13  C   UNK N   1      29.328  23.376  -2.492  0.00  0.00     0.202 C 
BRANCH  13  14
HETATM   14  C   UNK N   1      30.404  22.388  -2.842  0.00  0.00     0.140 C 
HETATM   15  O   UNK N   1      31.394  22.308  -2.136  0.00  0.00    -0.297 OA
HETATM   16  C   UNK N   1      30.280  21.484  -4.029  0.00  0.00     0.092 C 
ENDBRANCH  13  14
ENDBRANCH   1  13
TORSDOF 5
ENDMDL
MODEL 2
REMARK VINA RESULT:      -5.4     18.806     22.687
REMARK  5 active torsions:
REMARK  status: ('A' for Active; 'I' for Inactive)
REMARK    1  A    between atoms: C_2  and  C_4 
REMARK    2  A    between atoms: C_4  and  N_5 
REMARK       I    between atoms: N_5  and  C_6 
REMARK    3  A    between atoms: C_6  and  O_8 
REMARK    4  A    between atoms: O_8  and  C_9 
REMARK    5  A    between atoms: C_9  and  C_10 
ROOT
HETATM    1  N   UNK N   1      34.299  15.301  11.218  0.00  0.00    -0.330 N 
HETATM    2  C   UNK N   1      34.913  14.182  11.664  0.00  0.00     0.361 C 
HETATM    3  O   UNK N   1      35.413  13.387  10.881  0.00  0.00    -0.238 OA
HETATM    4  H   UNK N   1      33.913  15.920  11.879  0.00  0.00     0.165 HD
ENDROOT
BRANCH   2   5
HETATM    5  O   UNK N   1      34.934  13.953  12.996  0.00  0.00    -0.299 OA
BRANCH   5   6
HETATM    6  C   UNK N   1      36.067  14.023  13.773  0.00  0.00     0.219 C 
BRANCH   6   7
HETATM    7  C   UNK N   1      36.008  12.984  14.851  0.00  0.00    -0.034 A 
HETATM    8  C   UNK N   1      36.761  11.813  14.720  0.00  0.00     0.009 A 
HETATM    9  C   UNK N   1      36.741  10.849  15.735  0.00  0.00     0.001 A 
HETATM   10  C   UNK N   1      35.964  11.051  16.880  0.00  0.00     0.000 A 
HETATM   11  C   UNK N   1      35.203  12.215  17.012  0.00  0.00     0.001 A 
HETATM   12  C   UNK N   1      35.227  13.180  16.002  0.00  0.00     0.009 A 
ENDBRANCH   6   7
ENDBRANCH   5   6
ENDBRANCH   2   5
BRANCH   1  13
HETATM   13  C   UNK N   1      34.185  15.632   9.819  0.00  0.00     0.202 C 
BRANCH  13  14
HETATM   14  C   UNK N   1      34.778  16.986   9.550  0.00  0.00     0.140 C 
HETATM   15  O   UNK N   1      35.607  17.438  10.320  0.00  0.00    -0.297 OA
HETATM   16  C   UNK N   1      34.390  17.784   8.345  0.00  0.00     0.092 C 
ENDBRANCH  13  14
ENDBRANCH   1  13
TORSDOF 5
ENDMDL
MODEL 3
REMARK VINA RESULT:      -5.4     11.621     13.478
REMARK  5 active torsions:
REMARK  status: ('A' for Active; 'I' for Inactive)
REMARK    1  A    between atoms: C_2  and  C_4 
REMARK    2  A    between atoms: C_4  and  N_5 
REMARK       I    between atoms: N_5  and  C_6 
REMARK    3  A    between atoms: C_6  and  O_8 
REMARK    4  A    between atoms: O_8  and  C_9 
REMARK    5  A    between atoms: C_9  and  C_10 
ROOT
HETATM    1  N   UNK N   1      31.864  17.923   8.724  0.00  0.00    -0.330 N 
HETATM    2  C   UNK N   1      30.684  17.549   8.179  0.00  0.00     0.361 C 
HETATM    3  O   UNK N   1      30.602  16.537   7.497  0.00  0.00    -0.238 OA
HETATM    4  H   UNK N   1      31.890  18.740   9.272  0.00  0.00     0.165 HD
ENDROOT
BRANCH   2   5
HETATM    5  O   UNK N   1      29.606  18.337   8.386  0.00  0.00    -0.299 OA
BRANCH   5   6
HETATM    6  C   UNK N   1      28.334  18.033   7.960  0.00  0.00     0.219 C 
BRANCH   6   7
HETATM    7  C   UNK N   1      28.017  18.807   6.716  0.00  0.00    -0.034 A 
HETATM    8  C   UNK N   1      28.020  18.154   5.480  0.00  0.00     0.009 A 
HETATM    9  C   UNK N   1      27.693  18.857   4.315  0.00  0.00     0.001 A 
HETATM   10  C   UNK N   1      27.369  20.216   4.382  0.00  0.00     0.000 A 
HETATM   11  C   UNK N   1      27.373  20.875   5.613  0.00  0.00     0.001 A 
HETATM   12  C   UNK N   1      27.693  20.173   6.778  0.00  0.00     0.009 A 
ENDBRANCH   6   7
ENDBRANCH   5   6
ENDBRANCH   2   5
BRANCH   1  13
HETATM   13  C   UNK N   1      33.086  17.180   8.543  0.00  0.00     0.202 C 
BRANCH  13  14
HETATM   14  C   UNK N   1      33.909  17.783   7.441  0.00  0.00     0.140 C 
HETATM   15  O   UNK N   1      34.768  18.603   7.718  0.00  0.00    -0.297 OA
HETATM   16  C   UNK N   1      33.714  17.386   6.011  0.00  0.00     0.092 C 
ENDBRANCH  13  14
ENDBRANCH   1  13
TORSDOF 5
ENDMDL
MODEL 4
REMARK VINA RESULT:      -5.3     17.231     18.429
REMARK  5 active torsions:
REMARK  status: ('A' for Active; 'I' for Inactive)
REMARK    1  A    between atoms: C_2  and  C_4 
REMARK    2  A    between atoms: C_4  and  N_5 
REMARK       I    between atoms: N_5  and  C_6 
REMARK    3  A    between atoms: C_6  and  O_8 
REMARK    4  A    between atoms: O_8  and  C_9 
REMARK    5  A    between atoms: C_9  and  C_10 
ROOT
HETATM    1  N   UNK N   1      21.412  14.347   9.789  0.00  0.00    -0.330 N 
HETATM    2  C   UNK N   1      20.741  14.876   8.741  0.00  0.00     0.361 C 
HETATM    3  O   UNK N   1      20.075  14.167   8.001  0.00  0.00    -0.238 OA
HETATM    4  H   UNK N   1      21.934  14.950  10.366  0.00  0.00     0.165 HD
ENDROOT
BRANCH   2   5
HETATM    5  O   UNK N   1      20.850  16.205   8.520  0.00  0.00    -0.299 OA
BRANCH   5   6
HETATM    6  C   UNK N   1      19.863  16.976   7.950  0.00  0.00     0.219 C 
BRANCH   6   7
HETATM    7  C   UNK N   1      19.067  17.654   9.023  0.00  0.00    -0.034 A 
HETATM    8  C   UNK N   1      19.615  18.748   9.700  0.00  0.00     0.009 A 
HETATM    9  C   UNK N   1      18.869  19.411  10.681  0.00  0.00     0.001 A 
HETATM   10  C   UNK N   1      17.575  18.980  10.991  0.00  0.00     0.000 A 
HETATM   11  C   UNK N   1      17.026  17.883  10.325  0.00  0.00     0.001 A 
HETATM   12  C   UNK N   1      17.767  17.223   9.341  0.00  0.00     0.009 A 
ENDBRANCH   6   7
ENDBRANCH   5   6
ENDBRANCH   2   5
BRANCH   1  13
HETATM   13  C   UNK N   1      21.397  12.939  10.103  0.00  0.00     0.202 C 
BRANCH  13  14
HETATM   14  C   UNK N   1      22.783  12.459  10.426  0.00  0.00     0.140 C 
HETATM   15  O   UNK N   1      22.930  11.570  11.247  0.00  0.00    -0.297 OA
HETATM   16  C   UNK N   1      23.988  13.033   9.749  0.00  0.00     0.092 C 
ENDBRANCH  13  14
ENDBRANCH   1  13
TORSDOF 5
ENDMDL
MODEL 5
REMARK VINA RESULT:      -5.2     16.762     20.663
REMARK  5 active torsions:
REMARK  status: ('A' for Active; 'I' for Inactive)
REMARK    1  A    between atoms: C_2  and  C_4 
REMARK    2  A    between atoms: C_4  and  N_5 
REMARK       I    between atoms: N_5  and  C_6 
REMARK    3  A    between atoms: C_6  and  O_8 
REMARK    4  A    between atoms: O_8  and  C_9 
REMARK    5  A    between atoms: C_9  and  C_10 
ROOT
HETATM    1  N   UNK N   1      33.945  16.352   9.793  0.00  0.00    -0.330 N 
HETATM    2  C   UNK N   1      35.037  16.682  10.518  0.00  0.00     0.361 C 
HETATM    3  O   UNK N   1      35.656  17.711  10.286  0.00  0.00    -0.238 OA
HETATM    4  H   UNK N   1      33.469  15.519  10.012  0.00  0.00     0.165 HD
ENDROOT
BRANCH   2   5
HETATM    5  O   UNK N   1      35.441  15.831  11.487  0.00  0.00    -0.299 OA
BRANCH   5   6
HETATM    6  C   UNK N   1      35.184  14.480  11.484  0.00  0.00     0.219 C 
BRANCH   6   7
HETATM    7  C   UNK N   1      35.521  13.896  12.822  0.00  0.00    -0.034 A 
HETATM    8  C   UNK N   1      36.384  14.588  13.677  0.00  0.00     0.009 A 
HETATM    9  C   UNK N   1      36.681  14.070  14.943  0.00  0.00     0.001 A 
HETATM   10  C   UNK N   1      36.119  12.858  15.356  0.00  0.00     0.000 A 
HETATM   11  C   UNK N   1      35.263  12.158  14.503  0.00  0.00     0.001 A 
HETATM   12  C   UNK N   1      34.961  12.676  13.241  0.00  0.00     0.009 A 
ENDBRANCH   6   7
ENDBRANCH   5   6
ENDBRANCH   2   5
BRANCH   1  13
HETATM   13  C   UNK N   1      33.442  17.165   8.713  0.00  0.00     0.202 C 
BRANCH  13  14
HETATM   14  C   UNK N   1      34.245  16.937   7.465  0.00  0.00     0.140 C 
HETATM   15  O   UNK N   1      34.559  17.891   6.775  0.00  0.00    -0.297 OA
HETATM   16  C   UNK N   1      34.687  15.566   7.059  0.00  0.00     0.092 C 
ENDBRANCH  13  14
ENDBRANCH   1  13
TORSDOF 5
ENDMDL
MODEL 6
REMARK VINA RESULT:      -5.2     16.462     17.957
REMARK  5 active torsions:
REMARK  status: ('A' for Active; 'I' for Inactive)
REMARK    1  A    between atoms: C_2  and  C_4 
REMARK    2  A    between atoms: C_4  and  N_5 
REMARK       I    between atoms: N_5  and  C_6 
REMARK    3  A    between atoms: C_6  and  O_8 
REMARK    4  A    between atoms: O_8  and  C_9 
REMARK    5  A    between atoms: C_9  and  C_10 
ROOT
HETATM    1  N   UNK N   1      22.452  13.202  10.039  0.00  0.00    -0.330 N 
HETATM    2  C   UNK N   1      21.198  13.701   9.961  0.00  0.00     0.361 C 
HETATM    3  O   UNK N   1      20.234  13.028  10.296  0.00  0.00    -0.238 OA
HETATM    4  H   UNK N   1      23.204  13.776   9.765  0.00  0.00     0.165 HD
ENDROOT
BRANCH   2   5
HETATM    5  O   UNK N   1      21.038  14.954   9.479  0.00  0.00    -0.299 OA
BRANCH   5   6
HETATM    6  C   UNK N   1      20.295  15.262   8.363  0.00  0.00     0.219 C 
BRANCH   6   7
HETATM    7  C   UNK N   1      21.115  16.091   7.421  0.00  0.00    -0.034 A 
HETATM    8  C   UNK N   1      22.272  15.548   6.854  0.00  0.00     0.009 A 
HETATM    9  C   UNK N   1      23.028  16.299   5.947  0.00  0.00     0.001 A 
HETATM   10  C   UNK N   1      22.633  17.598   5.610  0.00  0.00     0.000 A 
HETATM   11  C   UNK N   1      21.484  18.149   6.181  0.00  0.00     0.001 A 
HETATM   12  C   UNK N   1      20.725  17.398   7.082  0.00  0.00     0.009 A 
ENDBRANCH   6   7
ENDBRANCH   5   6
ENDBRANCH   2   5
BRANCH   1  13
HETATM   13  C   UNK N   1      22.742  11.869  10.504  0.00  0.00     0.202 C 
BRANCH  13  14
HETATM   14  C   UNK N   1      23.642  11.916  11.706  0.00  0.00     0.140 C 
HETATM   15  O   UNK N   1      24.845  12.028  11.546  0.00  0.00    -0.297 OA
HETATM   16  C   UNK N   1      23.094  11.849  13.097  0.00  0.00     0.092 C 
ENDBRANCH  13  14
ENDBRANCH   1  13
TORSDOF 5
ENDMDL
MODEL 7
REMARK VINA RESULT:      -5.2     14.469     17.326
REMARK  5 active torsions:
REMARK  status: ('A' for Active; 'I' for Inactive)
REMARK    1  A    between atoms: C_2  and  C_4 
REMARK    2  A    between atoms: C_4  and  N_5 
REMARK       I    between atoms: N_5  and  C_6 
REMARK    3  A    between atoms: C_6  and  O_8 
REMARK    4  A    between atoms: O_8  and  C_9 
REMARK    5  A    between atoms: C_9  and  C_10 
ROOT
HETATM    1  N   UNK N   1      35.212  15.184  10.266  0.00  0.00    -0.330 N 
HETATM    2  C   UNK N   1      35.032  16.494   9.983  0.00  0.00     0.361 C 
HETATM    3  O   UNK N   1      35.761  17.346  10.470  0.00  0.00    -0.238 OA
HETATM    4  H   UNK N   1      34.608  14.526   9.851  0.00  0.00     0.165 HD
ENDROOT
BRANCH   2   5
HETATM    5  O   UNK N   1      34.009  16.836   9.170  0.00  0.00    -0.299 OA
BRANCH   5   6
HETATM    6  C   UNK N   1      34.060  17.864   8.257  0.00  0.00     0.219 C 
BRANCH   6   7
HETATM    7  C   UNK N   1      33.150  17.564   7.104  0.00  0.00    -0.034 A 
HETATM    8  C   UNK N   1      31.795  17.318   7.343  0.00  0.00     0.009 A 
HETATM    9  C   UNK N   1      30.928  17.070   6.272  0.00  0.00     0.001 A 
HETATM   10  C   UNK N   1      31.415  17.061   4.961  0.00  0.00     0.000 A 
HETATM   11  C   UNK N   1      32.770  17.298   4.718  0.00  0.00     0.001 A 
HETATM   12  C   UNK N   1      33.635  17.552   5.785  0.00  0.00     0.009 A 
ENDBRANCH   6   7
ENDBRANCH   5   6
ENDBRANCH   2   5
BRANCH   1  13
HETATM   13  C   UNK N   1      36.247  14.703  11.147  0.00  0.00     0.202 C 
BRANCH  13  14
HETATM   14  C   UNK N   1      35.668  14.318  12.478  0.00  0.00     0.140 C 
HETATM   15  O   UNK N   1      34.571  13.789  12.521  0.00  0.00    -0.297 OA
HETATM   16  C   UNK N   1      36.416  14.551  13.754  0.00  0.00     0.092 C 
ENDBRANCH  13  14
ENDBRANCH   1  13
TORSDOF 5
ENDMDL
MODEL 8
REMARK VINA RESULT:      -5.1     16.522     18.908
REMARK  5 active torsions:
REMARK  status: ('A' for Active; 'I' for Inactive)
REMARK    1  A    between atoms: C_2  and  C_4 
REMARK    2  A    between atoms: C_4  and  N_5 
REMARK       I    between atoms: N_5  and  C_6 
REMARK    3  A    between atoms: C_6  and  O_8 
REMARK    4  A    between atoms: O_8  and  C_9 
REMARK    5  A    between atoms: C_9  and  C_10 
ROOT
HETATM    1  N   UNK N   1      20.726  15.591   7.913  0.00  0.00    -0.330 N 
HETATM    2  C   UNK N   1      19.963  14.846   8.745  0.00  0.00     0.361 C 
HETATM    3  O   UNK N   1      19.029  15.346   9.354  0.00  0.00    -0.238 OA
HETATM    4  H   UNK N   1      21.466  15.153   7.435  0.00  0.00     0.165 HD
ENDROOT
BRANCH   2   5
HETATM    5  O   UNK N   1      20.280  13.542   8.904  0.00  0.00    -0.299 OA
BRANCH   5   6
HETATM    6  C   UNK N   1      21.407  12.952   8.381  0.00  0.00     0.219 C 
BRANCH   6   7
HETATM    7  C   UNK N   1      22.361  12.614   9.486  0.00  0.00    -0.034 A 
HETATM    8  C   UNK N   1      23.738  12.692   9.255  0.00  0.00     0.009 A 
HETATM    9  C   UNK N   1      24.639  12.412  10.288  0.00  0.00     0.001 A 
HETATM   10  C   UNK N   1      24.168  12.046  11.553  0.00  0.00     0.000 A 
HETATM   11  C   UNK N   1      22.794  11.957  11.787  0.00  0.00     0.001 A 
HETATM   12  C   UNK N   1      21.892  12.243  10.758  0.00  0.00     0.009 A 
ENDBRANCH   6   7
ENDBRANCH   5   6
ENDBRANCH   2   5
BRANCH   1  13
HETATM   13  C   UNK N   1      20.504  16.999   7.691  0.00  0.00     0.202 C 
BRANCH  13  14
HETATM   14  C   UNK N   1      21.391  17.503   6.588  0.00  0.00     0.140 C 
HETATM   15  O   UNK N   1      21.277  18.656   6.210  0.00  0.00    -0.297 OA
HETATM   16  C   UNK N   1      22.428  16.627   5.956  0.00  0.00     0.092 C 
ENDBRANCH  13  14
ENDBRANCH   1  13
TORSDOF 5
ENDMDL
MODEL 9
REMARK VINA RESULT:      -5.1     11.898     14.215
REMARK  5 active torsions:
REMARK  status: ('A' for Active; 'I' for Inactive)
REMARK    1  A    between atoms: C_2  and  C_4 
REMARK    2  A    between atoms: C_4  and  N_5 
REMARK       I    between atoms: N_5  and  C_6 
REMARK    3  A    between atoms: C_6  and  O_8 
REMARK    4  A    between atoms: O_8  and  C_9 
REMARK    5  A    between atoms: C_9  and  C_10 
ROOT
HETATM    1  N   UNK N   1      32.546  17.648   8.707  0.00  0.00    -0.330 N 
HETATM    2  C   UNK N   1      31.676  17.431   7.696  0.00  0.00     0.361 C 
HETATM    3  O   UNK N   1      32.073  17.262   6.552  0.00  0.00    -0.238 OA
HETATM    4  H   UNK N   1      32.189  17.775   9.615  0.00  0.00     0.165 HD
ENDROOT
BRANCH   2   5
HETATM    5  O   UNK N   1      30.354  17.432   7.980  0.00  0.00    -0.299 OA
BRANCH   5   6
HETATM    6  C   UNK N   1      29.376  17.030   7.101  0.00  0.00     0.219 C 
BRANCH   6   7
HETATM    7  C   UNK N   1      28.689  18.231   6.524  0.00  0.00    -0.034 A 
HETATM    8  C   UNK N   1      28.070  19.147   7.379  0.00  0.00     0.009 A 
HETATM    9  C   UNK N   1      27.454  20.290   6.856  0.00  0.00     0.001 A 
HETATM   10  C   UNK N   1      27.450  20.516   5.476  0.00  0.00     0.000 A 
HETATM   11  C   UNK N   1      28.058  19.599   4.616  0.00  0.00     0.001 A 
HETATM   12  C   UNK N   1      28.679  18.461   5.137  0.00  0.00     0.009 A 
ENDBRANCH   6   7
ENDBRANCH   5   6
ENDBRANCH   2   5
BRANCH   1  13
HETATM   13  C   UNK N   1      33.975  17.702   8.518  0.00  0.00     0.202 C 
BRANCH  13  14
HETATM   14  C   UNK N   1      34.676  16.907   9.582  0.00  0.00     0.140 C 
HETATM   15  O   UNK N   1      35.551  17.437  10.244  0.00  0.00    -0.297 OA
HETATM   16  C   UNK N   1      34.311  15.483   9.863  0.00  0.00     0.092 C 
ENDBRANCH  13  14
ENDBRANCH   1  13
TORSDOF 5
ENDMDL
