REMARK  7 active torsions:
REMARK  status: ('A' for Active; 'I' for Inactive)
REMARK    1  A    between atoms: O_1  and  C_2 
REMARK    2  A    between atoms: C_2  and  C_4 
REMARK       I    between atoms: C_4  and  N_6 
REMARK    3  A    between atoms: N_6  and  C_7 
REMARK    4  A    between atoms: N_6  and  C_16 
REMARK    5  A    between atoms: C_12  and  C_13 
REMARK    6  A    between atoms: C_13  and  O_15 
REMARK    7  A    between atoms: C_23  and  O_24 
ROOT
HETATM    1  C   UNK N   1       1.158  -1.593  -0.637  0.00  0.00     0.326 C 
HETATM    2  O   UNK N   1       1.900  -1.133  -1.493  0.00  0.00    -0.260 OA
HETATM    3  N   UNK N   1       0.103  -0.808  -0.163  0.00  0.00    -0.272 N 
ENDROOT
BRANCH   3   4
HETATM    4  C   UNK N   1      -1.226  -1.467   0.070  0.00  0.00     0.060 A 
HETATM    5  C   UNK N   1      -1.231  -2.851   0.341  0.00  0.00     0.031 A 
HETATM    6  C   UNK N   1      -2.364  -3.613   0.589  0.00  0.00     0.002 A 
HETATM    7  C   UNK N   1      -3.599  -3.011   0.597  0.00  0.00     0.001 A 
HETATM    8  C   UNK N   1      -3.696  -1.670   0.277  0.00  0.00     0.020 A 
HETATM    9  C   UNK N   1      -2.571  -0.876  -0.035  0.00  0.00     0.065 A 
BRANCH   9  10
HETATM   10  C   UNK N   1      -2.975   0.438  -0.600  0.00  0.00     0.178 C 
HETATM   11  O   UNK N   1      -4.030   0.952  -0.251  0.00  0.00    -0.646 OA
BRANCH  10  12
HETATM   12  O   UNK N   1      -2.297   0.980  -1.630  0.00  0.00    -0.773 OA
HETATM   13  H   UNK N   1      -1.734   0.760  -2.347  0.00  0.00     0.167 HD
ENDBRANCH  10  12
ENDBRANCH   9  10
ENDBRANCH   3   4
BRANCH   3  14
HETATM   14  C   UNK N   1       0.356   0.645   0.047  0.00  0.00     0.054 C 
HETATM   15  C   UNK N   1      -0.707   1.498   0.337  0.00  0.00     0.031 C 
HETATM   16  C   UNK N   1      -0.587   2.870   0.516  0.00  0.00     0.003 C 
HETATM   17  C   UNK N   1       0.655   3.467   0.476  0.00  0.00     0.012 C 
HETATM   18  C   UNK N   1       1.787   2.686   0.315  0.00  0.00    -0.024 A 
HETATM   19  C   UNK N   1       3.033   3.317   0.377  0.00  0.00     0.015 A 
HETATM   20  C   UNK N   1       1.680   1.271   0.125  0.00  0.00     0.004 A 
HETATM   21  C   UNK N   1       4.205   2.574   0.291  0.00  0.00     0.037 A 
HETATM   22  C   UNK N   1       4.137   1.193   0.155  0.00  0.00     0.066 A 
HETATM   23  C   UNK N   1       2.894   0.557   0.076  0.00  0.00     0.051 A 
BRANCH  22  24
HETATM   24  O   UNK N   1       5.267   0.469   0.099  0.00  0.00    -0.361 OA
HETATM   25  H   UNK N   1       5.224  -0.466   0.060  0.00  0.00     0.217 HD
ENDBRANCH  22  24
ENDBRANCH   3  14
BRANCH   1  26
HETATM   26  C   UNK N   1       1.486  -2.984  -0.173  0.00  0.00     0.237 C 
HETATM   27  O   UNK N   1       2.265  -3.664  -0.820  0.00  0.00    -0.643 OA
BRANCH  26  28
HETATM   28  O   UNK N   1       1.142  -3.405   1.064  0.00  0.00    -0.769 OA
HETATM   29  H   UNK N   1       0.770  -3.344   1.921  0.00  0.00     0.168 HD
ENDBRANCH  26  28
ENDBRANCH   1  26
TORSDOF 7
