MODEL 1
REMARK VINA RESULT:      -7.5      0.000      0.000
REMARK  7 active torsions:
REMARK  status: ('A' for Active; 'I' for Inactive)
REMARK    1  A    between atoms: O_1  and  C_2 
REMARK    2  A    between atoms: C_2  and  C_4 
REMARK       I    between atoms: C_4  and  N_6 
REMARK    3  A    between atoms: N_6  and  C_7 
REMARK    4  A    between atoms: N_6  and  C_16 
REMARK    5  A    between atoms: C_12  and  C_13 
REMARK    6  A    between atoms: C_13  and  O_15 
REMARK    7  A    between atoms: C_23  and  O_24 
ROOT
HETATM    1  C   UNK N   1      28.210  16.174   5.404  0.00  0.00     0.326 C 
HETATM    2  O   UNK N   1      28.552  15.353   4.564  0.00  0.00    -0.260 OA
HETATM    3  N   UNK N   1      28.966  17.340   5.557  0.00  0.00    -0.272 N 
ENDROOT
BRANCH   3   4
HETATM    4  C   UNK N   1      28.240  18.637   5.767  0.00  0.00     0.060 A 
HETATM    5  C   UNK N   1      27.921  19.400   4.624  0.00  0.00     0.031 A 
HETATM    6  C   UNK N   1      27.246  20.612   4.635  0.00  0.00     0.002 A 
HETATM    7  C   UNK N   1      26.822  21.143   5.829  0.00  0.00     0.001 A 
HETATM    8  C   UNK N   1      27.147  20.496   7.006  0.00  0.00     0.020 A 
HETATM    9  C   UNK N   1      27.880  19.289   7.037  0.00  0.00     0.065 A 
BRANCH   9  10
HETATM   10  C   UNK N   1      28.322  18.959   8.417  0.00  0.00     0.178 C 
HETATM   11  O   UNK N   1      29.496  19.107   8.732  0.00  0.00    -0.646 OA
BRANCH  10  12
HETATM   12  O   UNK N   1      27.496  18.320   9.268  0.00  0.00    -0.773 OA
HETATM   13  H   UNK N   1      27.395  18.085  10.170  0.00  0.00     0.167 HD
ENDBRANCH  10  12
ENDBRANCH   9  10
ENDBRANCH   3   4
BRANCH   3  14
HETATM   14  C   UNK N   1      30.449  17.225   5.468  0.00  0.00     0.054 C 
HETATM   15  C   UNK N   1      31.113  17.703   4.340  0.00  0.00     0.031 C 
HETATM   16  C   UNK N   1      32.485  17.615   4.140  0.00  0.00     0.003 C 
HETATM   17  C   UNK N   1      33.294  17.084   5.121  0.00  0.00     0.012 C 
HETATM   18  C   UNK N   1      32.742  16.693   6.329  0.00  0.00    -0.024 A 
HETATM   19  C   UNK N   1      33.609  16.250   7.333  0.00  0.00     0.015 A 
HETATM   20  C   UNK N   1      31.330  16.773   6.549  0.00  0.00     0.004 A 
HETATM   21  C   UNK N   1      33.118  15.910   8.588  0.00  0.00     0.037 A 
HETATM   22  C   UNK N   1      31.759  16.023   8.851  0.00  0.00     0.066 A 
HETATM   23  C   UNK N   1      30.884  16.449   7.846  0.00  0.00     0.051 A 
BRANCH  22  24
HETATM   24  O   UNK N   1      31.285  15.721  10.071  0.00  0.00    -0.361 OA
HETATM   25  H   UNK N   1      30.557  16.195  10.422  0.00  0.00     0.217 HD
ENDBRANCH  22  24
ENDBRANCH   3  14
BRANCH   1  26
HETATM   26  C   UNK N   1      26.990  15.815   6.203  0.00  0.00     0.237 C 
HETATM   27  O   UNK N   1      26.155  15.068   5.720  0.00  0.00    -0.643 OA
BRANCH  26  28
HETATM   28  O   UNK N   1      26.915  16.092   7.523  0.00  0.00    -0.769 OA
HETATM   29  H   UNK N   1      26.662  16.566   8.290  0.00  0.00     0.168 HD
ENDBRANCH  26  28
ENDBRANCH   1  26
TORSDOF 7
ENDMDL
MODEL 2
REMARK VINA RESULT:      -7.1      2.893      6.959
REMARK  7 active torsions:
REMARK  status: ('A' for Active; 'I' for Inactive)
REMARK    1  A    between atoms: O_1  and  C_2 
REMARK    2  A    between atoms: C_2  and  C_4 
REMARK       I    between atoms: C_4  and  N_6 
REMARK    3  A    between atoms: N_6  and  C_7 
REMARK    4  A    between atoms: N_6  and  C_16 
REMARK    5  A    between atoms: C_12  and  C_13 
REMARK    6  A    between atoms: C_13  and  O_15 
REMARK    7  A    between atoms: C_23  and  O_24 
ROOT
HETATM    1  C   UNK N   1      34.402  17.437   8.347  0.00  0.00     0.326 C 
HETATM    2  O   UNK N   1      34.385  18.626   8.063  0.00  0.00    -0.260 OA
HETATM    3  N   UNK N   1      33.934  16.511   7.410  0.00  0.00    -0.272 N 
ENDROOT
BRANCH   3   4
HETATM    4  C   UNK N   1      34.695  15.229   7.235  0.00  0.00     0.060 A 
HETATM    5  C   UNK N   1      35.656  15.174   6.204  0.00  0.00     0.031 A 
HETATM    6  C   UNK N   1      36.452  14.076   5.911  0.00  0.00     0.002 A 
HETATM    7  C   UNK N   1      36.341  12.935   6.668  0.00  0.00     0.001 A 
HETATM    8  C   UNK N   1      35.379  12.875   7.659  0.00  0.00     0.020 A 
HETATM    9  C   UNK N   1      34.514  13.953   7.949  0.00  0.00     0.065 A 
BRANCH   9  10
HETATM   10  C   UNK N   1      33.412  13.535   8.855  0.00  0.00     0.178 C 
HETATM   11  O   UNK N   1      32.255  13.552   8.454  0.00  0.00    -0.646 OA
BRANCH  10  12
HETATM   12  O   UNK N   1      33.644  13.323  10.165  0.00  0.00    -0.773 OA
HETATM   13  H   UNK N   1      33.298  13.499  11.018  0.00  0.00     0.167 HD
ENDBRANCH  10  12
ENDBRANCH   9  10
ENDBRANCH   3   4
BRANCH   3  14
HETATM   14  C   UNK N   1      32.726  16.874   6.616  0.00  0.00     0.054 C 
HETATM   15  C   UNK N   1      32.783  16.861   5.224  0.00  0.00     0.031 C 
HETATM   16  C   UNK N   1      31.729  17.214   4.392  0.00  0.00     0.003 C 
HETATM   17  C   UNK N   1      30.504  17.546   4.929  0.00  0.00     0.012 C 
HETATM   18  C   UNK N   1      30.312  17.470   6.299  0.00  0.00    -0.024 A 
HETATM   19  C   UNK N   1      29.030  17.721   6.796  0.00  0.00     0.015 A 
HETATM   20  C   UNK N   1      31.390  17.112   7.171  0.00  0.00     0.004 A 
HETATM   21  C   UNK N   1      28.762  17.592   8.154  0.00  0.00     0.037 A 
HETATM   22  C   UNK N   1      29.774  17.199   9.021  0.00  0.00     0.066 A 
HETATM   23  C   UNK N   1      31.063  16.962   8.533  0.00  0.00     0.051 A 
BRANCH  22  24
HETATM   24  O   UNK N   1      29.512  17.046  10.330  0.00  0.00    -0.361 OA
HETATM   25  H   UNK N   1      29.086  16.270  10.636  0.00  0.00     0.217 HD
ENDBRANCH  22  24
ENDBRANCH   3  14
BRANCH   1  26
HETATM   26  C   UNK N   1      34.927  17.103   9.714  0.00  0.00     0.237 C 
HETATM   27  O   UNK N   1      35.845  17.758  10.181  0.00  0.00    -0.643 OA
BRANCH  26  28
HETATM   28  O   UNK N   1      34.251  16.271  10.537  0.00  0.00    -0.769 OA
HETATM   29  H   UNK N   1      33.795  15.493  10.788  0.00  0.00     0.168 HD
ENDBRANCH  26  28
ENDBRANCH   1  26
TORSDOF 7
ENDMDL
MODEL 3
REMARK VINA RESULT:      -7.1     11.489     14.576
REMARK  7 active torsions:
REMARK  status: ('A' for Active; 'I' for Inactive)
REMARK    1  A    between atoms: O_1  and  C_2 
REMARK    2  A    between atoms: C_2  and  C_4 
REMARK       I    between atoms: C_4  and  N_6 
REMARK    3  A    between atoms: N_6  and  C_7 
REMARK    4  A    between atoms: N_6  and  C_16 
REMARK    5  A    between atoms: C_12  and  C_13 
REMARK    6  A    between atoms: C_13  and  O_15 
REMARK    7  A    between atoms: C_23  and  O_24 
ROOT
HETATM    1  C   UNK N   1      28.823  23.575  -2.992  0.00  0.00     0.326 C 
HETATM    2  O   UNK N   1      27.775  23.634  -2.364  0.00  0.00    -0.260 OA
HETATM    3  N   UNK N   1      28.979  24.379  -4.126  0.00  0.00    -0.272 N 
ENDROOT
BRANCH   3   4
HETATM    4  C   UNK N   1      30.305  25.047  -4.347  0.00  0.00     0.060 A 
HETATM    5  C   UNK N   1      30.446  26.381  -3.910  0.00  0.00     0.031 A 
HETATM    6  C   UNK N   1      31.600  27.142  -4.027  0.00  0.00     0.002 A 
HETATM    7  C   UNK N   1      32.724  26.589  -4.592  0.00  0.00     0.001 A 
HETATM    8  C   UNK N   1      32.658  25.309  -5.107  0.00  0.00     0.020 A 
HETATM    9  C   UNK N   1      31.485  24.525  -5.057  0.00  0.00     0.065 A 
BRANCH   9  10
HETATM   10  C   UNK N   1      31.604  23.316  -5.913  0.00  0.00     0.178 C 
HETATM   11  O   UNK N   1      31.150  23.327  -7.049  0.00  0.00    -0.646 OA
BRANCH  10  12
HETATM   12  O   UNK N   1      32.030  22.147  -5.395  0.00  0.00    -0.773 OA
HETATM   13  H   UNK N   1      32.704  21.500  -5.477  0.00  0.00     0.167 HD
ENDBRANCH  10  12
ENDBRANCH   9  10
ENDBRANCH   3   4
BRANCH   3  14
HETATM   14  C   UNK N   1      27.803  24.550  -5.025  0.00  0.00     0.054 C 
HETATM   15  C   UNK N   1      27.460  23.535  -5.916  0.00  0.00     0.031 C 
HETATM   16  C   UNK N   1      26.407  23.605  -6.819  0.00  0.00     0.003 C 
HETATM   17  C   UNK N   1      25.579  24.707  -6.832  0.00  0.00     0.012 C 
HETATM   18  C   UNK N   1      25.765  25.716  -5.902  0.00  0.00    -0.024 A 
HETATM   19  C   UNK N   1      24.846  26.769  -5.885  0.00  0.00     0.015 A 
HETATM   20  C   UNK N   1      26.847  25.660  -4.966  0.00  0.00     0.004 A 
HETATM   21  C   UNK N   1      24.942  27.774  -4.929  0.00  0.00     0.037 A 
HETATM   22  C   UNK N   1      25.952  27.724  -3.976  0.00  0.00     0.066 A 
HETATM   23  C   UNK N   1      26.885  26.683  -3.997  0.00  0.00     0.051 A 
BRANCH  22  24
HETATM   24  O   UNK N   1      26.032  28.679  -3.034  0.00  0.00    -0.361 OA
HETATM   25  H   UNK N   1      26.239  28.449  -2.150  0.00  0.00     0.217 HD
ENDBRANCH  22  24
ENDBRANCH   3  14
BRANCH   1  26
HETATM   26  C   UNK N   1      29.843  22.608  -2.463  0.00  0.00     0.237 C 
HETATM   27  O   UNK N   1      30.145  21.631  -3.128  0.00  0.00    -0.643 OA
BRANCH  26  28
HETATM   28  O   UNK N   1      30.613  22.920  -1.398  0.00  0.00    -0.769 OA
HETATM   29  H   UNK N   1      30.861  23.380  -0.621  0.00  0.00     0.168 HD
ENDBRANCH  26  28
ENDBRANCH   1  26
TORSDOF 7
ENDMDL
MODEL 4
REMARK VINA RESULT:      -7.1      6.574     10.177
REMARK  7 active torsions:
REMARK  status: ('A' for Active; 'I' for Inactive)
REMARK    1  A    between atoms: O_1  and  C_2 
REMARK    2  A    between atoms: C_2  and  C_4 
REMARK       I    between atoms: C_4  and  N_6 
REMARK    3  A    between atoms: N_6  and  C_7 
REMARK    4  A    between atoms: N_6  and  C_16 
REMARK    5  A    between atoms: C_12  and  C_13 
REMARK    6  A    between atoms: C_13  and  O_15 
REMARK    7  A    between atoms: C_23  and  O_24 
ROOT
HETATM    1  C   UNK N   1      37.141  12.356  11.102  0.00  0.00     0.326 C 
HETATM    2  O   UNK N   1      37.958  11.975  11.928  0.00  0.00    -0.260 OA
HETATM    3  N   UNK N   1      35.960  12.958  11.546  0.00  0.00    -0.272 N 
ENDROOT
BRANCH   3   4
HETATM    4  C   UNK N   1      35.449  14.158  10.803  0.00  0.00     0.060 A 
HETATM    5  C   UNK N   1      35.850  15.430  11.261  0.00  0.00     0.031 A 
HETATM    6  C   UNK N   1      35.481  16.639  10.688  0.00  0.00     0.002 A 
HETATM    7  C   UNK N   1      34.675  16.645   9.575  0.00  0.00     0.001 A 
HETATM    8  C   UNK N   1      34.181  15.447   9.095  0.00  0.00     0.020 A 
HETATM    9  C   UNK N   1      34.490  14.202   9.686  0.00  0.00     0.065 A 
BRANCH   9  10
HETATM   10  C   UNK N   1      33.624  13.119   9.152  0.00  0.00     0.178 C 
HETATM   11  O   UNK N   1      34.119  12.207   8.503  0.00  0.00    -0.646 OA
BRANCH  10  12
HETATM   12  O   UNK N   1      32.282  13.225   9.205  0.00  0.00    -0.773 OA
HETATM   13  H   UNK N   1      31.591  13.745   9.569  0.00  0.00     0.167 HD
ENDBRANCH  10  12
ENDBRANCH   9  10
ENDBRANCH   3   4
BRANCH   3  14
HETATM   14  C   UNK N   1      35.301  12.389  12.755  0.00  0.00     0.054 C 
HETATM   15  C   UNK N   1      34.518  11.242  12.642  0.00  0.00     0.031 C 
HETATM   16  C   UNK N   1      33.833  10.651  13.696  0.00  0.00     0.003 C 
HETATM   17  C   UNK N   1      33.955  11.159  14.971  0.00  0.00     0.012 C 
HETATM   18  C   UNK N   1      34.807  12.224  15.207  0.00  0.00    -0.024 A 
HETATM   19  C   UNK N   1      34.977  12.648  16.529  0.00  0.00     0.015 A 
HETATM   20  C   UNK N   1      35.517  12.847  14.131  0.00  0.00     0.004 A 
HETATM   21  C   UNK N   1      35.872  13.667  16.834  0.00  0.00     0.037 A 
HETATM   22  C   UNK N   1      36.613  14.260  15.819  0.00  0.00     0.066 A 
HETATM   23  C   UNK N   1      36.436  13.852  14.493  0.00  0.00     0.051 A 
BRANCH  22  24
HETATM   24  O   UNK N   1      37.499  15.226  16.113  0.00  0.00    -0.361 OA
HETATM   25  H   UNK N   1      37.270  16.126  15.988  0.00  0.00     0.217 HD
ENDBRANCH  22  24
ENDBRANCH   3  14
BRANCH   1  26
HETATM   26  C   UNK N   1      37.508  12.113   9.665  0.00  0.00     0.237 C 
HETATM   27  O   UNK N   1      38.593  12.488   9.252  0.00  0.00    -0.643 OA
BRANCH  26  28
HETATM   28  O   UNK N   1      36.782  11.275   8.893  0.00  0.00    -0.769 OA
HETATM   29  H   UNK N   1      36.065  11.005   8.355  0.00  0.00     0.168 HD
ENDBRANCH  26  28
ENDBRANCH   1  26
TORSDOF 7
ENDMDL
MODEL 5
REMARK VINA RESULT:      -7.1      6.013      8.900
REMARK  7 active torsions:
REMARK  status: ('A' for Active; 'I' for Inactive)
REMARK    1  A    between atoms: O_1  and  C_2 
REMARK    2  A    between atoms: C_2  and  C_4 
REMARK       I    between atoms: C_4  and  N_6 
REMARK    3  A    between atoms: N_6  and  C_7 
REMARK    4  A    between atoms: N_6  and  C_16 
REMARK    5  A    between atoms: C_12  and  C_13 
REMARK    6  A    between atoms: C_13  and  O_15 
REMARK    7  A    between atoms: C_23  and  O_24 
ROOT
HETATM    1  C   UNK N   1      21.147  16.923   5.012  0.00  0.00     0.326 C 
HETATM    2  O   UNK N   1      21.718  17.304   6.024  0.00  0.00    -0.260 OA
HETATM    3  N   UNK N   1      21.804  17.034   3.782  0.00  0.00    -0.272 N 
ENDROOT
BRANCH   3   4
HETATM    4  C   UNK N   1      21.684  15.899   2.806  0.00  0.00     0.060 A 
HETATM    5  C   UNK N   1      22.530  14.786   2.990  0.00  0.00     0.031 A 
HETATM    6  C   UNK N   1      22.544  13.652   2.191  0.00  0.00     0.002 A 
HETATM    7  C   UNK N   1      21.671  13.555   1.134  0.00  0.00     0.001 A 
HETATM    8  C   UNK N   1      20.850  14.626   0.839  0.00  0.00     0.020 A 
HETATM    9  C   UNK N   1      20.847  15.818   1.597  0.00  0.00     0.065 A 
BRANCH   9  10
HETATM   10  C   UNK N   1      20.084  16.893   0.912  0.00  0.00     0.178 C 
HETATM   11  O   UNK N   1      20.375  17.212  -0.234  0.00  0.00    -0.646 OA
BRANCH  10  12
HETATM   12  O   UNK N   1      19.206  17.653   1.595  0.00  0.00    -0.773 OA
HETATM   13  H   UNK N   1      18.359  17.631   1.997  0.00  0.00     0.167 HD
ENDBRANCH  10  12
ENDBRANCH   9  10
ENDBRANCH   3   4
BRANCH   3  14
HETATM   14  C   UNK N   1      22.612  18.260   3.533  0.00  0.00     0.054 C 
HETATM   15  C   UNK N   1      21.977  19.447   3.175  0.00  0.00     0.031 C 
HETATM   16  C   UNK N   1      22.637  20.635   2.888  0.00  0.00     0.003 C 
HETATM   17  C   UNK N   1      24.008  20.713   3.011  0.00  0.00     0.012 C 
HETATM   18  C   UNK N   1      24.718  19.620   3.479  0.00  0.00    -0.024 A 
HETATM   19  C   UNK N   1      26.093  19.769   3.682  0.00  0.00     0.015 A 
HETATM   20  C   UNK N   1      24.053  18.387   3.775  0.00  0.00     0.004 A 
HETATM   21  C   UNK N   1      26.845  18.728   4.214  0.00  0.00     0.037 A 
HETATM   22  C   UNK N   1      26.222  17.535   4.559  0.00  0.00     0.066 A 
HETATM   23  C   UNK N   1      24.850  17.372   4.343  0.00  0.00     0.051 A 
BRANCH  22  24
HETATM   24  O   UNK N   1      26.940  16.536   5.099  0.00  0.00    -0.361 OA
HETATM   25  H   UNK N   1      26.827  16.311   6.001  0.00  0.00     0.217 HD
ENDBRANCH  22  24
ENDBRANCH   3  14
BRANCH   1  26
HETATM   26  C   UNK N   1      19.762  16.376   5.214  0.00  0.00     0.237 C 
HETATM   27  O   UNK N   1      19.459  15.894   6.293  0.00  0.00    -0.643 OA
BRANCH  26  28
HETATM   28  O   UNK N   1      18.776  16.631   4.326  0.00  0.00    -0.769 OA
HETATM   29  H   UNK N   1      18.373  16.698   3.484  0.00  0.00     0.168 HD
ENDBRANCH  26  28
ENDBRANCH   1  26
TORSDOF 7
ENDMDL
MODEL 6
REMARK VINA RESULT:      -7.1      8.208     10.677
REMARK  7 active torsions:
REMARK  status: ('A' for Active; 'I' for Inactive)
REMARK    1  A    between atoms: O_1  and  C_2 
REMARK    2  A    between atoms: C_2  and  C_4 
REMARK       I    between atoms: C_4  and  N_6 
REMARK    3  A    between atoms: N_6  and  C_7 
REMARK    4  A    between atoms: N_6  and  C_16 
REMARK    5  A    between atoms: C_12  and  C_13 
REMARK    6  A    between atoms: C_13  and  O_15 
REMARK    7  A    between atoms: C_23  and  O_24 
ROOT
HETATM    1  C   UNK N   1      20.093  17.545   2.030  0.00  0.00     0.326 C 
HETATM    2  O   UNK N   1      20.552  17.702   0.908  0.00  0.00    -0.260 OA
HETATM    3  N   UNK N   1      20.358  16.351   2.709  0.00  0.00    -0.272 N 
ENDROOT
BRANCH   3   4
HETATM    4  C   UNK N   1      20.675  16.421   4.175  0.00  0.00     0.060 A 
HETATM    5  C   UNK N   1      22.000  16.732   4.543  0.00  0.00     0.031 A 
HETATM    6  C   UNK N   1      22.462  16.846   5.846  0.00  0.00     0.002 A 
HETATM    7  C   UNK N   1      21.591  16.666   6.894  0.00  0.00     0.001 A 
HETATM    8  C   UNK N   1      20.287  16.294   6.628  0.00  0.00     0.020 A 
HETATM    9  C   UNK N   1      19.796  16.114   5.316  0.00  0.00     0.065 A 
BRANCH   9  10
HETATM   10  C   UNK N   1      18.463  15.458   5.322  0.00  0.00     0.178 C 
HETATM   11  O   UNK N   1      17.534  15.974   5.930  0.00  0.00    -0.646 OA
BRANCH  10  12
HETATM   12  O   UNK N   1      18.308  14.213   4.832  0.00  0.00    -0.773 OA
HETATM   13  H   UNK N   1      17.761  13.454   4.891  0.00  0.00     0.167 HD
ENDBRANCH  10  12
ENDBRANCH   9  10
ENDBRANCH   3   4
BRANCH   3  14
HETATM   14  C   UNK N   1      20.344  15.086   1.923  0.00  0.00     0.054 C 
HETATM   15  C   UNK N   1      19.129  14.534   1.521  0.00  0.00     0.031 C 
HETATM   16  C   UNK N   1      19.001  13.343   0.817  0.00  0.00     0.003 C 
HETATM   17  C   UNK N   1      20.125  12.656   0.410  0.00  0.00     0.012 C 
HETATM   18  C   UNK N   1      21.380  13.187   0.655  0.00  0.00    -0.024 A 
HETATM   19  C   UNK N   1      22.490  12.510   0.142  0.00  0.00     0.015 A 
HETATM   20  C   UNK N   1      21.529  14.411   1.383  0.00  0.00     0.004 A 
HETATM   21  C   UNK N   1      23.769  13.032   0.298  0.00  0.00     0.037 A 
HETATM   22  C   UNK N   1      23.944  14.242   0.957  0.00  0.00     0.066 A 
HETATM   23  C   UNK N   1      22.840  14.917   1.487  0.00  0.00     0.051 A 
BRANCH  22  24
HETATM   24  O   UNK N   1      25.175  14.764   1.085  0.00  0.00    -0.361 OA
HETATM   25  H   UNK N   1      25.557  14.863   1.935  0.00  0.00     0.217 HD
ENDBRANCH  22  24
ENDBRANCH   3  14
BRANCH   1  26
HETATM   26  C   UNK N   1      19.263  18.681   2.558  0.00  0.00     0.237 C 
HETATM   27  O   UNK N   1      19.816  19.642   3.066  0.00  0.00    -0.643 OA
BRANCH  26  28
HETATM   28  O   UNK N   1      17.949  18.781   2.259  0.00  0.00    -0.769 OA
HETATM   29  H   UNK N   1      17.031  18.628   2.356  0.00  0.00     0.168 HD
ENDBRANCH  26  28
ENDBRANCH   1  26
TORSDOF 7
ENDMDL
MODEL 7
REMARK VINA RESULT:      -6.9      7.531     10.461
REMARK  7 active torsions:
REMARK  status: ('A' for Active; 'I' for Inactive)
REMARK    1  A    between atoms: O_1  and  C_2 
REMARK    2  A    between atoms: C_2  and  C_4 
REMARK       I    between atoms: C_4  and  N_6 
REMARK    3  A    between atoms: N_6  and  C_7 
REMARK    4  A    between atoms: N_6  and  C_16 
REMARK    5  A    between atoms: C_12  and  C_13 
REMARK    6  A    between atoms: C_13  and  O_15 
REMARK    7  A    between atoms: C_23  and  O_24 
ROOT
HETATM    1  C   UNK N   1      34.969  14.785  11.068  0.00  0.00     0.326 C 
HETATM    2  O   UNK N   1      33.772  14.896  11.290  0.00  0.00    -0.260 OA
HETATM    3  N   UNK N   1      35.569  13.530  11.205  0.00  0.00    -0.272 N 
ENDROOT
BRANCH   3   4
HETATM    4  C   UNK N   1      36.583  13.110  10.181  0.00  0.00     0.060 A 
HETATM    5  C   UNK N   1      37.900  12.868  10.625  0.00  0.00     0.031 A 
HETATM    6  C   UNK N   1      38.955  12.465   9.819  0.00  0.00     0.002 A 
HETATM    7  C   UNK N   1      38.743  12.256   8.477  0.00  0.00     0.001 A 
HETATM    8  C   UNK N   1      37.498  12.531   7.942  0.00  0.00     0.020 A 
HETATM    9  C   UNK N   1      36.417  12.996   8.722  0.00  0.00     0.065 A 
BRANCH   9  10
HETATM   10  C   UNK N   1      35.296  13.467   7.868  0.00  0.00     0.178 C 
HETATM   11  O   UNK N   1      35.479  14.376   7.069  0.00  0.00    -0.646 OA
BRANCH  10  12
HETATM   12  O   UNK N   1      34.037  13.043   8.093  0.00  0.00    -0.773 OA
HETATM   13  H   UNK N   1      33.378  12.992   8.758  0.00  0.00     0.167 HD
ENDBRANCH  10  12
ENDBRANCH   9  10
ENDBRANCH   3   4
BRANCH   3  14
HETATM   14  C   UNK N   1      35.136  12.672  12.344  0.00  0.00     0.054 C 
HETATM   15  C   UNK N   1      34.466  11.476  12.094  0.00  0.00     0.031 C 
HETATM   16  C   UNK N   1      33.989  10.622  13.080  0.00  0.00     0.003 C 
HETATM   17  C   UNK N   1      34.225  10.900  14.409  0.00  0.00     0.012 C 
HETATM   18  C   UNK N   1      34.988  12.003  14.755  0.00  0.00    -0.024 A 
HETATM   19  C   UNK N   1      35.285  12.196  16.108  0.00  0.00     0.015 A 
HETATM   20  C   UNK N   1      35.483  12.895  13.751  0.00  0.00     0.004 A 
HETATM   21  C   UNK N   1      36.104  13.246  16.507  0.00  0.00     0.037 A 
HETATM   22  C   UNK N   1      36.640  14.102  15.553  0.00  0.00     0.066 A 
HETATM   23  C   UNK N   1      36.334  13.925  14.200  0.00  0.00     0.051 A 
BRANCH  22  24
HETATM   24  O   UNK N   1      37.454  15.102  15.933  0.00  0.00    -0.361 OA
HETATM   25  H   UNK N   1      38.107  15.424  15.344  0.00  0.00     0.217 HD
ENDBRANCH  22  24
ENDBRANCH   3  14
BRANCH   1  26
HETATM   26  C   UNK N   1      35.676  16.051  10.673  0.00  0.00     0.237 C 
HETATM   27  O   UNK N   1      35.022  17.023  10.335  0.00  0.00    -0.643 OA
BRANCH  26  28
HETATM   28  O   UNK N   1      36.993  16.220  10.925  0.00  0.00    -0.769 OA
HETATM   29  H   UNK N   1      37.755  16.398  11.439  0.00  0.00     0.168 HD
ENDBRANCH  26  28
ENDBRANCH   1  26
TORSDOF 7
ENDMDL
MODEL 8
REMARK VINA RESULT:      -6.9     12.775     16.412
REMARK  7 active torsions:
REMARK  status: ('A' for Active; 'I' for Inactive)
REMARK    1  A    between atoms: O_1  and  C_2 
REMARK    2  A    between atoms: C_2  and  C_4 
REMARK       I    between atoms: C_4  and  N_6 
REMARK    3  A    between atoms: N_6  and  C_7 
REMARK    4  A    between atoms: N_6  and  C_16 
REMARK    5  A    between atoms: C_12  and  C_13 
REMARK    6  A    between atoms: C_13  and  O_15 
REMARK    7  A    between atoms: C_23  and  O_24 
ROOT
HETATM    1  C   UNK N   1      36.353   9.696  20.581  0.00  0.00     0.326 C 
HETATM    2  O   UNK N   1      37.344   9.696  19.865  0.00  0.00    -0.260 OA
HETATM    3  N   UNK N   1      35.129  10.100  20.041  0.00  0.00    -0.272 N 
ENDROOT
BRANCH   3   4
HETATM    4  C   UNK N   1      33.897   9.328  20.415  0.00  0.00     0.060 A 
HETATM    5  C   UNK N   1      33.432   8.356  19.504  0.00  0.00     0.031 A 
HETATM    6  C   UNK N   1      32.320   7.549  19.694  0.00  0.00     0.002 A 
HETATM    7  C   UNK N   1      31.591   7.659  20.854  0.00  0.00     0.001 A 
HETATM    8  C   UNK N   1      31.935   8.630  21.775  0.00  0.00     0.020 A 
HETATM    9  C   UNK N   1      33.027   9.506  21.590  0.00  0.00     0.065 A 
BRANCH   9  10
HETATM   10  C   UNK N   1      33.007  10.613  22.582  0.00  0.00     0.178 C 
HETATM   11  O   UNK N   1      32.796  10.368  23.763  0.00  0.00    -0.646 OA
BRANCH  10  12
HETATM   12  O   UNK N   1      33.027  11.897  22.177  0.00  0.00    -0.773 OA
HETATM   13  H   UNK N   1      32.885  12.442  21.427  0.00  0.00     0.167 HD
ENDBRANCH  10  12
ENDBRANCH   9  10
ENDBRANCH   3   4
BRANCH   3  14
HETATM   14  C   UNK N   1      35.130  11.253  19.098  0.00  0.00     0.054 C 
HETATM   15  C   UNK N   1      35.237  12.552  19.592  0.00  0.00     0.031 C 
HETATM   16  C   UNK N   1      35.214  13.696  18.805  0.00  0.00     0.003 C 
HETATM   17  C   UNK N   1      35.144  13.590  17.432  0.00  0.00     0.012 C 
HETATM   18  C   UNK N   1      35.157  12.340  16.839  0.00  0.00    -0.024 A 
HETATM   19  C   UNK N   1      35.183  12.277  15.442  0.00  0.00     0.015 A 
HETATM   20  C   UNK N   1      35.177  11.150  17.636  0.00  0.00     0.004 A 
HETATM   21  C   UNK N   1      35.266  11.051  14.793  0.00  0.00     0.037 A 
HETATM   22  C   UNK N   1      35.336   9.880  15.537  0.00  0.00     0.066 A 
HETATM   23  C   UNK N   1      35.294   9.934  16.934  0.00  0.00     0.051 A 
BRANCH  22  24
HETATM   24  O   UNK N   1      35.443   8.695  14.914  0.00  0.00    -0.361 OA
HETATM   25  H   UNK N   1      36.171   8.527  14.348  0.00  0.00     0.217 HD
ENDBRANCH  22  24
ENDBRANCH   3  14
BRANCH   1  26
HETATM   26  C   UNK N   1      36.579   9.262  22.001  0.00  0.00     0.237 C 
HETATM   27  O   UNK N   1      37.190   8.230  22.223  0.00  0.00    -0.643 OA
BRANCH  26  28
HETATM   28  O   UNK N   1      36.347  10.104  23.033  0.00  0.00    -0.769 OA
HETATM   29  H   UNK N   1      36.005  10.376  23.861  0.00  0.00     0.168 HD
ENDBRANCH  26  28
ENDBRANCH   1  26
TORSDOF 7
ENDMDL
MODEL 9
REMARK VINA RESULT:      -6.9      3.007      6.625
REMARK  7 active torsions:
REMARK  status: ('A' for Active; 'I' for Inactive)
REMARK    1  A    between atoms: O_1  and  C_2 
REMARK    2  A    between atoms: C_2  and  C_4 
REMARK       I    between atoms: C_4  and  N_6 
REMARK    3  A    between atoms: N_6  and  C_7 
REMARK    4  A    between atoms: N_6  and  C_16 
REMARK    5  A    between atoms: C_12  and  C_13 
REMARK    6  A    between atoms: C_13  and  O_15 
REMARK    7  A    between atoms: C_23  and  O_24 
ROOT
HETATM    1  C   UNK N   1      32.444  14.774   7.043  0.00  0.00     0.326 C 
HETATM    2  O   UNK N   1      31.477  14.084   6.756  0.00  0.00    -0.260 OA
HETATM    3  N   UNK N   1      32.292  15.791   7.991  0.00  0.00    -0.272 N 
ENDROOT
BRANCH   3   4
HETATM    4  C   UNK N   1      33.387  15.994   8.998  0.00  0.00     0.060 A 
HETATM    5  C   UNK N   1      33.376  15.179  10.149  0.00  0.00     0.031 A 
HETATM    6  C   UNK N   1      34.313  15.227  11.171  0.00  0.00     0.002 A 
HETATM    7  C   UNK N   1      35.362  16.111  11.091  0.00  0.00     0.001 A 
HETATM    8  C   UNK N   1      35.418  16.994  10.029  0.00  0.00     0.020 A 
HETATM    9  C   UNK N   1      34.452  17.012   9.000  0.00  0.00     0.065 A 
BRANCH   9  10
HETATM   10  C   UNK N   1      34.594  18.219   8.144  0.00  0.00     0.178 C 
HETATM   11  O   UNK N   1      34.225  18.185   6.977  0.00  0.00    -0.646 OA
BRANCH  10  12
HETATM   12  O   UNK N   1      35.296  19.285   8.573  0.00  0.00    -0.773 OA
HETATM   13  H   UNK N   1      35.901  19.559   9.236  0.00  0.00     0.167 HD
ENDBRANCH  10  12
ENDBRANCH   9  10
ENDBRANCH   3   4
BRANCH   3  14
HETATM   14  C   UNK N   1      31.033  16.586   7.963  0.00  0.00     0.054 C 
HETATM   15  C   UNK N   1      30.488  17.061   9.154  0.00  0.00     0.031 C 
HETATM   16  C   UNK N   1      29.303  17.780   9.244  0.00  0.00     0.003 C 
HETATM   17  C   UNK N   1      28.617  18.128   8.100  0.00  0.00     0.012 C 
HETATM   18  C   UNK N   1      29.143  17.808   6.860  0.00  0.00    -0.024 A 
HETATM   19  C   UNK N   1      28.466  18.263   5.724  0.00  0.00     0.015 A 
HETATM   20  C   UNK N   1      30.360  17.063   6.750  0.00  0.00     0.004 A 
HETATM   21  C   UNK N   1      28.984  18.031   4.454  0.00  0.00     0.037 A 
HETATM   22  C   UNK N   1      30.189  17.353   4.315  0.00  0.00     0.066 A 
HETATM   23  C   UNK N   1      30.862  16.881   5.446  0.00  0.00     0.051 A 
BRANCH  22  24
HETATM   24  O   UNK N   1      30.706  17.151   3.092  0.00  0.00    -0.361 OA
HETATM   25  H   UNK N   1      30.158  17.216   2.334  0.00  0.00     0.217 HD
ENDBRANCH  22  24
ENDBRANCH   3  14
BRANCH   1  26
HETATM   26  C   UNK N   1      33.715  14.447   6.312  0.00  0.00     0.237 C 
HETATM   27  O   UNK N   1      34.061  15.140   5.369  0.00  0.00    -0.643 OA
BRANCH  26  28
HETATM   28  O   UNK N   1      34.607  13.569   6.823  0.00  0.00    -0.769 OA
HETATM   29  H   UNK N   1      35.078  12.764   6.891  0.00  0.00     0.168 HD
ENDBRANCH  26  28
ENDBRANCH   1  26
TORSDOF 7
ENDMDL
