MODEL 1
REMARK VINA RESULT:      -8.0      0.000      0.000
REMARK  3 active torsions:
REMARK  status: ('A' for Active; 'I' for Inactive)
REMARK    1  A    between atoms: C_10  and  C_11 
REMARK    2  A    between atoms: C_13  and  O_25 
REMARK    3  A    between atoms: C_14  and  C_18 
ROOT
HETATM    1  C   UNK N   1      36.434  14.920  12.710  0.00  0.00     0.052 C 
HETATM    2  C   UNK N   1      35.928  14.022  13.564  0.00  0.00     0.114 A 
HETATM    3  C   UNK N   1      36.377  13.780  14.936  0.00  0.00     0.117 A 
HETATM    4  C   UNK N   1      35.591  12.835  15.454  0.00  0.00     0.086 A 
HETATM    5  C   UNK N   1      34.632  12.499  14.393  0.00  0.00     0.302 A 
HETATM    6  O   UNK N   1      33.719  11.690  14.481  0.00  0.00    -0.259 OA
HETATM    7  O   UNK N   1      34.879  13.216  13.282  0.00  0.00    -0.272 OA
ENDROOT
BRANCH   1   8
HETATM    8  C   UNK N   1      35.962  15.019  11.311  0.00  0.00    -0.022 A 
HETATM    9  C   UNK N   1      36.588  14.290  10.281  0.00  0.00    -0.016 A 
HETATM   10  C   UNK N   1      37.684  13.454  10.547  0.00  0.00     0.013 A 
HETATM   11  C   UNK N   1      36.125  14.423   8.949  0.00  0.00    -0.025 A 
HETATM   12  C   UNK N   1      38.313  12.768   9.506  0.00  0.00     0.001 A 
HETATM   13  C   UNK N   1      37.854  12.908   8.193  0.00  0.00     0.001 A 
HETATM   14  C   UNK N   1      36.761  13.732   7.916  0.00  0.00     0.012 A 
HETATM   15  C   UNK N   1      35.042  15.259   8.663  0.00  0.00     0.012 A 
HETATM   16  C   UNK N   1      34.420  15.972   9.686  0.00  0.00     0.002 A 
HETATM   17  C   UNK N   1      34.881  15.861  10.998  0.00  0.00     0.012 A 
ENDBRANCH   1   8
BRANCH   3  18
HETATM   18  O   UNK N   1      37.411  14.387  15.552  0.00  0.00    -0.357 OA
HETATM   19  H   UNK N   1      37.320  14.846  16.364  0.00  0.00     0.217 HD
ENDBRANCH   3  18
BRANCH   4  20
HETATM   20  C   UNK N   1      35.679  12.218  16.800  0.00  0.00    -0.017 A 
HETATM   21  C   UNK N   1      36.158  10.910  16.965  0.00  0.00     0.014 A 
HETATM   22  C   UNK N   1      36.178  10.321  18.233  0.00  0.00     0.024 A 
HETATM   23  C   UNK N   1      35.717  11.034  19.343  0.00  0.00     0.034 A 
HETATM   24 Cl   UNK N   1      35.714  10.287  20.924  0.00  0.00    -0.084 Cl
HETATM   25  C   UNK N   1      35.248  12.339  19.188  0.00  0.00     0.024 A 
HETATM   26  C   UNK N   1      35.228  12.928  17.922  0.00  0.00     0.014 A 
ENDBRANCH   4  20
TORSDOF 3
ENDMDL
MODEL 2
REMARK VINA RESULT:      -7.9     10.582     14.545
REMARK  3 active torsions:
REMARK  status: ('A' for Active; 'I' for Inactive)
REMARK    1  A    between atoms: C_10  and  C_11 
REMARK    2  A    between atoms: C_13  and  O_25 
REMARK    3  A    between atoms: C_14  and  C_18 
ROOT
HETATM    1  C   UNK N   1      29.278  16.753   4.399  0.00  0.00     0.052 C 
HETATM    2  C   UNK N   1      28.372  17.738   4.391  0.00  0.00     0.114 A 
HETATM    3  C   UNK N   1      26.964  17.618   4.011  0.00  0.00     0.117 A 
HETATM    4  C   UNK N   1      26.402  18.816   4.176  0.00  0.00     0.086 A 
HETATM    5  C   UNK N   1      27.473  19.685   4.682  0.00  0.00     0.302 A 
HETATM    6  O   UNK N   1      27.356  20.863   4.989  0.00  0.00    -0.259 OA
HETATM    7  O   UNK N   1      28.631  19.007   4.778  0.00  0.00    -0.272 OA
ENDROOT
BRANCH   1   8
HETATM    8  C   UNK N   1      30.702  17.003   4.715  0.00  0.00    -0.022 A 
HETATM    9  C   UNK N   1      31.142  17.102   6.050  0.00  0.00    -0.016 A 
HETATM   10  C   UNK N   1      30.243  16.975   7.121  0.00  0.00     0.013 A 
HETATM   11  C   UNK N   1      32.508  17.363   6.318  0.00  0.00    -0.025 A 
HETATM   12  C   UNK N   1      30.693  17.112   8.436  0.00  0.00     0.001 A 
HETATM   13  C   UNK N   1      32.042  17.374   8.693  0.00  0.00     0.001 A 
HETATM   14  C   UNK N   1      32.947  17.497   7.637  0.00  0.00     0.012 A 
HETATM   15  C   UNK N   1      33.416  17.503   5.266  0.00  0.00     0.012 A 
HETATM   16  C   UNK N   1      32.978  17.395   3.946  0.00  0.00     0.002 A 
HETATM   17  C   UNK N   1      31.631  17.157   3.672  0.00  0.00     0.012 A 
ENDBRANCH   1   8
BRANCH   3  18
HETATM   18  O   UNK N   1      26.355  16.505   3.555  0.00  0.00    -0.357 OA
HETATM   19  H   UNK N   1      25.471  16.284   3.772  0.00  0.00     0.217 HD
ENDBRANCH   3  18
BRANCH   4  20
HETATM   20  C   UNK N   1      25.002  19.211   3.881  0.00  0.00    -0.017 A 
HETATM   21  C   UNK N   1      23.921  18.491   4.412  0.00  0.00     0.014 A 
HETATM   22  C   UNK N   1      22.610  18.839   4.076  0.00  0.00     0.024 A 
HETATM   23  C   UNK N   1      22.370  19.906   3.207  0.00  0.00     0.034 A 
HETATM   24 Cl   UNK N   1      20.730  20.322   2.762  0.00  0.00    -0.084 Cl
HETATM   25  C   UNK N   1      23.439  20.633   2.683  0.00  0.00     0.024 A 
HETATM   26  C   UNK N   1      24.750  20.286   3.018  0.00  0.00     0.014 A 
ENDBRANCH   4  20
TORSDOF 3
ENDMDL
MODEL 3
REMARK VINA RESULT:      -7.9      4.127      6.709
REMARK  3 active torsions:
REMARK  status: ('A' for Active; 'I' for Inactive)
REMARK    1  A    between atoms: C_10  and  C_11 
REMARK    2  A    between atoms: C_13  and  O_25 
REMARK    3  A    between atoms: C_14  and  C_18 
ROOT
HETATM    1  C   UNK N   1      33.419  17.270   8.272  0.00  0.00     0.052 C 
HETATM    2  C   UNK N   1      33.863  16.106   8.760  0.00  0.00     0.114 A 
HETATM    3  C   UNK N   1      34.591  15.912  10.014  0.00  0.00     0.117 A 
HETATM    4  C   UNK N   1      34.816  14.604  10.149  0.00  0.00     0.086 A 
HETATM    5  C   UNK N   1      34.202  13.978   8.969  0.00  0.00     0.302 A 
HETATM    6  O   UNK N   1      34.165  12.780   8.731  0.00  0.00    -0.259 OA
HETATM    7  O   UNK N   1      33.662  14.909   8.163  0.00  0.00    -0.272 OA
ENDROOT
BRANCH   1   8
HETATM    8  C   UNK N   1      32.770  17.365   6.945  0.00  0.00    -0.022 A 
HETATM    9  C   UNK N   1      31.367  17.381   6.824  0.00  0.00    -0.016 A 
HETATM   10  C   UNK N   1      30.540  17.298   7.955  0.00  0.00     0.013 A 
HETATM   11  C   UNK N   1      30.777  17.452   5.538  0.00  0.00    -0.025 A 
HETATM   12  C   UNK N   1      29.151  17.279   7.811  0.00  0.00     0.001 A 
HETATM   13  C   UNK N   1      28.576  17.345   6.539  0.00  0.00     0.001 A 
HETATM   14  C   UNK N   1      29.387  17.433   5.405  0.00  0.00     0.012 A 
HETATM   15  C   UNK N   1      31.583  17.524   4.399  0.00  0.00     0.012 A 
HETATM   16  C   UNK N   1      32.972  17.518   4.524  0.00  0.00     0.002 A 
HETATM   17  C   UNK N   1      33.561  17.429   5.786  0.00  0.00     0.012 A 
ENDBRANCH   1   8
BRANCH   3  18
HETATM   18  O   UNK N   1      34.984  16.882  10.863  0.00  0.00    -0.357 OA
HETATM   19  H   UNK N   1      34.441  17.614  11.084  0.00  0.00     0.217 HD
ENDBRANCH   3  18
BRANCH   4  20
HETATM   20  C   UNK N   1      35.558  13.917  11.234  0.00  0.00    -0.017 A 
HETATM   21  C   UNK N   1      36.805  13.320  10.992  0.00  0.00     0.014 A 
HETATM   22  C   UNK N   1      37.463  12.625  12.009  0.00  0.00     0.024 A 
HETATM   23  C   UNK N   1      36.880  12.518  13.274  0.00  0.00     0.034 A 
HETATM   24 Cl   UNK N   1      37.689  11.622  14.540  0.00  0.00    -0.084 Cl
HETATM   25  C   UNK N   1      35.644  13.117  13.526  0.00  0.00     0.024 A 
HETATM   26  C   UNK N   1      34.986  13.811  12.509  0.00  0.00     0.014 A 
ENDBRANCH   4  20
TORSDOF 3
ENDMDL
MODEL 4
REMARK VINA RESULT:      -7.9     10.662     14.481
REMARK  3 active torsions:
REMARK  status: ('A' for Active; 'I' for Inactive)
REMARK    1  A    between atoms: C_10  and  C_11 
REMARK    2  A    between atoms: C_13  and  O_25 
REMARK    3  A    between atoms: C_14  and  C_18 
ROOT
HETATM    1  C   UNK N   1      28.530  16.792   5.980  0.00  0.00     0.052 C 
HETATM    2  C   UNK N   1      27.659  17.767   5.699  0.00  0.00     0.114 A 
HETATM    3  C   UNK N   1      26.417  17.629   4.936  0.00  0.00     0.117 A 
HETATM    4  C   UNK N   1      25.824  18.823   4.916  0.00  0.00     0.086 A 
HETATM    5  C   UNK N   1      26.703  19.710   5.691  0.00  0.00     0.302 A 
HETATM    6  O   UNK N   1      26.497  20.890   5.933  0.00  0.00    -0.259 OA
HETATM    7  O   UNK N   1      27.789  19.045   6.123  0.00  0.00    -0.272 OA
ENDROOT
BRANCH   1   8
HETATM    8  C   UNK N   1      29.804  17.061   6.684  0.00  0.00    -0.022 A 
HETATM    9  C   UNK N   1      31.012  17.192   5.973  0.00  0.00    -0.016 A 
HETATM   10  C   UNK N   1      31.049  17.062   4.575  0.00  0.00     0.013 A 
HETATM   11  C   UNK N   1      32.217  17.430   6.679  0.00  0.00    -0.025 A 
HETATM   12  C   UNK N   1      32.263  17.160   3.892  0.00  0.00     0.001 A 
HETATM   13  C   UNK N   1      33.449  17.390   4.596  0.00  0.00     0.001 A 
HETATM   14  C   UNK N   1      33.425  17.526   5.985  0.00  0.00     0.012 A 
HETATM   15  C   UNK N   1      32.203  17.551   8.070  0.00  0.00     0.012 A 
HETATM   16  C   UNK N   1      31.003  17.430   8.770  0.00  0.00     0.002 A 
HETATM   17  C   UNK N   1      29.814  17.177   8.085  0.00  0.00     0.012 A 
ENDBRANCH   1   8
BRANCH   3  18
HETATM   18  O   UNK N   1      25.970  16.504   4.344  0.00  0.00    -0.357 OA
HETATM   19  H   UNK N   1      26.103  16.321   3.434  0.00  0.00     0.217 HD
ENDBRANCH   3  18
BRANCH   4  20
HETATM   20  C   UNK N   1      24.564  19.200   4.229  0.00  0.00    -0.017 A 
HETATM   21  C   UNK N   1      24.541  20.229   3.275  0.00  0.00     0.014 A 
HETATM   22  C   UNK N   1      23.336  20.613   2.681  0.00  0.00     0.024 A 
HETATM   23  C   UNK N   1      22.146  19.974   3.038  0.00  0.00     0.034 A 
HETATM   24 Cl   UNK N   1      20.632  20.475   2.317  0.00  0.00    -0.084 Cl
HETATM   25  C   UNK N   1      22.162  18.944   3.979  0.00  0.00     0.024 A 
HETATM   26  C   UNK N   1      23.366  18.560   4.573  0.00  0.00     0.014 A 
ENDBRANCH   4  20
TORSDOF 3
ENDMDL
MODEL 5
REMARK VINA RESULT:      -7.9      4.515      8.990
REMARK  3 active torsions:
REMARK  status: ('A' for Active; 'I' for Inactive)
REMARK    1  A    between atoms: C_10  and  C_11 
REMARK    2  A    between atoms: C_13  and  O_25 
REMARK    3  A    between atoms: C_14  and  C_18 
ROOT
HETATM    1  C   UNK N   1      34.726  13.432  12.044  0.00  0.00     0.052 C 
HETATM    2  C   UNK N   1      34.768  14.444  11.171  0.00  0.00     0.114 A 
HETATM    3  C   UNK N   1      34.206  14.449   9.820  0.00  0.00     0.117 A 
HETATM    4  C   UNK N   1      34.429  15.656   9.297  0.00  0.00     0.086 A 
HETATM    5  C   UNK N   1      35.124  16.414  10.346  0.00  0.00     0.302 A 
HETATM    6  O   UNK N   1      35.481  17.581  10.271  0.00  0.00    -0.259 OA
HETATM    7  O   UNK N   1      35.320  15.650  11.436  0.00  0.00    -0.272 OA
ENDROOT
BRANCH   1   8
HETATM    8  C   UNK N   1      35.407  13.502  13.356  0.00  0.00    -0.022 A 
HETATM    9  C   UNK N   1      35.188  12.519  14.341  0.00  0.00    -0.016 A 
HETATM   10  C   UNK N   1      34.309  11.448  14.114  0.00  0.00     0.013 A 
HETATM   11  C   UNK N   1      35.840  12.627  15.594  0.00  0.00    -0.025 A 
HETATM   12  C   UNK N   1      34.077  10.505  15.117  0.00  0.00     0.001 A 
HETATM   13  C   UNK N   1      34.721  10.620  16.352  0.00  0.00     0.001 A 
HETATM   14  C   UNK N   1      35.602  11.677  16.589  0.00  0.00     0.012 A 
HETATM   15  C   UNK N   1      36.709  13.692  15.843  0.00  0.00     0.012 A 
HETATM   16  C   UNK N   1      36.931  14.658  14.862  0.00  0.00     0.002 A 
HETATM   17  C   UNK N   1      36.279  14.570  13.632  0.00  0.00     0.012 A 
ENDBRANCH   1   8
BRANCH   3  18
HETATM   18  O   UNK N   1      33.596  13.414   9.209  0.00  0.00    -0.357 OA
HETATM   19  H   UNK N   1      33.521  12.566   9.600  0.00  0.00     0.217 HD
ENDBRANCH   3  18
BRANCH   4  20
HETATM   20  C   UNK N   1      34.088  16.133   7.935  0.00  0.00    -0.017 A 
HETATM   21  C   UNK N   1      33.051  17.057   7.731  0.00  0.00     0.014 A 
HETATM   22  C   UNK N   1      32.701  17.451   6.437  0.00  0.00     0.024 A 
HETATM   23  C   UNK N   1      33.382  16.923   5.337  0.00  0.00     0.034 A 
HETATM   24 Cl   UNK N   1      32.925  17.393   3.715  0.00  0.00    -0.084 Cl
HETATM   25  C   UNK N   1      34.421  16.012   5.532  0.00  0.00     0.024 A 
HETATM   26  C   UNK N   1      34.771  15.617   6.825  0.00  0.00     0.014 A 
ENDBRANCH   4  20
TORSDOF 3
ENDMDL
MODEL 6
REMARK VINA RESULT:      -7.7      3.840      8.374
REMARK  3 active torsions:
REMARK  status: ('A' for Active; 'I' for Inactive)
REMARK    1  A    between atoms: C_10  and  C_11 
REMARK    2  A    between atoms: C_13  and  O_25 
REMARK    3  A    between atoms: C_14  and  C_18 
ROOT
HETATM    1  C   UNK N   1      36.839  13.289  13.559  0.00  0.00     0.052 C 
HETATM    2  C   UNK N   1      36.157  13.301  12.408  0.00  0.00     0.114 A 
HETATM    3  C   UNK N   1      36.021  14.433  11.492  0.00  0.00     0.117 A 
HETATM    4  C   UNK N   1      35.297  14.022  10.450  0.00  0.00     0.086 A 
HETATM    5  C   UNK N   1      34.994  12.609  10.718  0.00  0.00     0.302 A 
HETATM    6  O   UNK N   1      34.368  11.858   9.984  0.00  0.00    -0.259 OA
HETATM    7  O   UNK N   1      35.510  12.227  11.900  0.00  0.00    -0.272 OA
ENDROOT
BRANCH   1   8
HETATM    8  C   UNK N   1      36.835  12.112  14.457  0.00  0.00    -0.022 A 
HETATM    9  C   UNK N   1      36.240  12.174  15.732  0.00  0.00    -0.016 A 
HETATM   10  C   UNK N   1      35.640  13.356  16.196  0.00  0.00     0.013 A 
HETATM   11  C   UNK N   1      36.272  11.037  16.575  0.00  0.00    -0.025 A 
HETATM   12  C   UNK N   1      35.088  13.408  17.477  0.00  0.00     0.001 A 
HETATM   13  C   UNK N   1      35.127  12.282  18.305  0.00  0.00     0.001 A 
HETATM   14  C   UNK N   1      35.716  11.099  17.855  0.00  0.00     0.012 A 
HETATM   15  C   UNK N   1      36.874   9.855  16.136  0.00  0.00     0.012 A 
HETATM   16  C   UNK N   1      37.454   9.794  14.870  0.00  0.00     0.002 A 
HETATM   17  C   UNK N   1      37.444  10.916  14.040  0.00  0.00     0.012 A 
ENDBRANCH   1   8
BRANCH   3  18
HETATM   18  O   UNK N   1      36.519  15.672  11.680  0.00  0.00    -0.357 OA
HETATM   19  H   UNK N   1      36.628  16.287  10.981  0.00  0.00     0.217 HD
ENDBRANCH   3  18
BRANCH   4  20
HETATM   20  C   UNK N   1      34.852  14.819   9.281  0.00  0.00    -0.017 A 
HETATM   21  C   UNK N   1      35.449  14.651   8.022  0.00  0.00     0.014 A 
HETATM   22  C   UNK N   1      35.061  15.452   6.945  0.00  0.00     0.024 A 
HETATM   23  C   UNK N   1      34.076  16.427   7.118  0.00  0.00     0.034 A 
HETATM   24 Cl   UNK N   1      33.611  17.451   5.777  0.00  0.00    -0.084 Cl
HETATM   25  C   UNK N   1      33.470  16.594   8.364  0.00  0.00     0.024 A 
HETATM   26  C   UNK N   1      33.858  15.794   9.441  0.00  0.00     0.014 A 
ENDBRANCH   4  20
TORSDOF 3
ENDMDL
MODEL 7
REMARK VINA RESULT:      -7.7     19.079     22.509
REMARK  3 active torsions:
REMARK  status: ('A' for Active; 'I' for Inactive)
REMARK    1  A    between atoms: C_10  and  C_11 
REMARK    2  A    between atoms: C_13  and  O_25 
REMARK    3  A    between atoms: C_14  and  C_18 
ROOT
HETATM    1  C   UNK N   1      29.846  26.065  -5.008  0.00  0.00     0.052 C 
HETATM    2  C   UNK N   1      30.244  24.973  -4.344  0.00  0.00     0.114 A 
HETATM    3  C   UNK N   1      31.114  23.914  -4.858  0.00  0.00     0.117 A 
HETATM    4  C   UNK N   1      31.296  23.033  -3.874  0.00  0.00     0.086 A 
HETATM    5  C   UNK N   1      30.542  23.562  -2.729  0.00  0.00     0.302 A 
HETATM    6  O   UNK N   1      30.477  23.057  -1.618  0.00  0.00    -0.259 OA
HETATM    7  O   UNK N   1      29.919  24.708  -3.058  0.00  0.00    -0.272 OA
ENDROOT
BRANCH   1   8
HETATM    8  C   UNK N   1      28.890  27.030  -4.421  0.00  0.00    -0.022 A 
HETATM    9  C   UNK N   1      27.528  27.010  -4.779  0.00  0.00    -0.016 A 
HETATM   10  C   UNK N   1      27.036  26.082  -5.711  0.00  0.00     0.013 A 
HETATM   11  C   UNK N   1      26.642  27.961  -4.215  0.00  0.00    -0.025 A 
HETATM   12  C   UNK N   1      25.689  26.102  -6.080  0.00  0.00     0.001 A 
HETATM   13  C   UNK N   1      24.822  27.047  -5.522  0.00  0.00     0.001 A 
HETATM   14  C   UNK N   1      25.297  27.972  -4.591  0.00  0.00     0.012 A 
HETATM   15  C   UNK N   1      27.114  28.900  -3.295  0.00  0.00     0.012 A 
HETATM   16  C   UNK N   1      28.462  28.910  -2.935  0.00  0.00     0.002 A 
HETATM   17  C   UNK N   1      29.344  27.990  -3.501  0.00  0.00     0.012 A 
ENDBRANCH   1   8
BRANCH   3  18
HETATM   18  O   UNK N   1      31.618  23.835  -6.105  0.00  0.00    -0.357 OA
HETATM   19  H   UNK N   1      31.357  24.412  -6.796  0.00  0.00     0.217 HD
ENDBRANCH   3  18
BRANCH   4  20
HETATM   20  C   UNK N   1      32.063  21.764  -3.921  0.00  0.00    -0.017 A 
HETATM   21  C   UNK N   1      33.326  21.660  -3.317  0.00  0.00     0.014 A 
HETATM   22  C   UNK N   1      34.062  20.477  -3.422  0.00  0.00     0.024 A 
HETATM   23  C   UNK N   1      33.545  19.391  -4.134  0.00  0.00     0.034 A 
HETATM   24 Cl   UNK N   1      34.479  17.921  -4.291  0.00  0.00    -0.084 Cl
HETATM   25  C   UNK N   1      32.286  19.484  -4.730  0.00  0.00     0.024 A 
HETATM   26  C   UNK N   1      31.550  20.666  -4.625  0.00  0.00     0.014 A 
ENDBRANCH   4  20
TORSDOF 3
ENDMDL
MODEL 8
REMARK VINA RESULT:      -7.5      1.158      2.541
REMARK  3 active torsions:
REMARK  status: ('A' for Active; 'I' for Inactive)
REMARK    1  A    between atoms: C_10  and  C_11 
REMARK    2  A    between atoms: C_13  and  O_25 
REMARK    3  A    between atoms: C_14  and  C_18 
ROOT
HETATM    1  C   UNK N   1      36.430  14.556  11.391  0.00  0.00     0.052 C 
HETATM    2  C   UNK N   1      35.963  13.730  12.334  0.00  0.00     0.114 A 
HETATM    3  C   UNK N   1      36.237  13.810  13.770  0.00  0.00     0.117 A 
HETATM    4  C   UNK N   1      35.556  12.828  14.363  0.00  0.00     0.086 A 
HETATM    5  C   UNK N   1      34.837  12.142  13.281  0.00  0.00     0.302 A 
HETATM    6  O   UNK N   1      34.073  11.197  13.414  0.00  0.00    -0.259 OA
HETATM    7  O   UNK N   1      35.121  12.700  12.091  0.00  0.00    -0.272 OA
ENDROOT
BRANCH   1   8
HETATM    8  C   UNK N   1      36.162  14.329   9.953  0.00  0.00    -0.022 A 
HETATM    9  C   UNK N   1      35.479  15.290   9.182  0.00  0.00    -0.016 A 
HETATM   10  C   UNK N   1      35.020  16.487   9.755  0.00  0.00     0.013 A 
HETATM   11  C   UNK N   1      35.220  15.033   7.813  0.00  0.00    -0.025 A 
HETATM   12  C   UNK N   1      34.312  17.410   8.983  0.00  0.00     0.001 A 
HETATM   13  C   UNK N   1      34.057  17.148   7.633  0.00  0.00     0.001 A 
HETATM   14  C   UNK N   1      34.512  15.964   7.050  0.00  0.00     0.012 A 
HETATM   15  C   UNK N   1      35.658  13.843   7.227  0.00  0.00     0.012 A 
HETATM   16  C   UNK N   1      36.343  12.899   7.991  0.00  0.00     0.002 A 
HETATM   17  C   UNK N   1      36.585  13.135   9.345  0.00  0.00     0.012 A 
ENDBRANCH   1   8
BRANCH   3  18
HETATM   18  O   UNK N   1      37.048  14.699  14.376  0.00  0.00    -0.357 OA
HETATM   19  H   UNK N   1      36.739  15.326  15.001  0.00  0.00     0.217 HD
ENDBRANCH   3  18
BRANCH   4  20
HETATM   20  C   UNK N   1      35.545  12.471  15.802  0.00  0.00    -0.017 A 
HETATM   21  C   UNK N   1      35.933  11.193  16.232  0.00  0.00     0.014 A 
HETATM   22  C   UNK N   1      35.861  10.852  17.586  0.00  0.00     0.024 A 
HETATM   23  C   UNK N   1      35.398  11.784  18.518  0.00  0.00     0.034 A 
HETATM   24 Cl   UNK N   1      35.279  11.348  20.208  0.00  0.00    -0.084 Cl
HETATM   25  C   UNK N   1      35.020  13.061  18.100  0.00  0.00     0.024 A 
HETATM   26  C   UNK N   1      35.092  13.402  16.748  0.00  0.00     0.014 A 
ENDBRANCH   4  20
TORSDOF 3
ENDMDL
MODEL 9
REMARK VINA RESULT:      -7.4      7.628     10.730
REMARK  3 active torsions:
REMARK  status: ('A' for Active; 'I' for Inactive)
REMARK    1  A    between atoms: C_10  and  C_11 
REMARK    2  A    between atoms: C_13  and  O_25 
REMARK    3  A    between atoms: C_14  and  C_18 
ROOT
HETATM    1  C   UNK N   1      28.271  18.250   7.301  0.00  0.00     0.052 C 
HETATM    2  C   UNK N   1      29.515  17.759   7.255  0.00  0.00     0.114 A 
HETATM    3  C   UNK N   1      30.351  17.408   8.403  0.00  0.00     0.117 A 
HETATM    4  C   UNK N   1      31.500  16.923   7.929  0.00  0.00     0.086 A 
HETATM    5  C   UNK N   1      31.365  16.959   6.466  0.00  0.00     0.302 A 
HETATM    6  O   UNK N   1      32.197  16.569   5.660  0.00  0.00    -0.259 OA
HETATM    7  O   UNK N   1      30.176  17.478   6.110  0.00  0.00    -0.272 OA
ENDROOT
BRANCH   1   8
HETATM    8  C   UNK N   1      27.546  18.656   6.076  0.00  0.00    -0.022 A 
HETATM    9  C   UNK N   1      26.730  17.744   5.379  0.00  0.00    -0.016 A 
HETATM   10  C   UNK N   1      26.587  16.418   5.817  0.00  0.00     0.013 A 
HETATM   11  C   UNK N   1      26.067  18.159   4.199  0.00  0.00    -0.025 A 
HETATM   12  C   UNK N   1      25.803  15.518   5.092  0.00  0.00     0.001 A 
HETATM   13  C   UNK N   1      25.154  15.934   3.925  0.00  0.00     0.001 A 
HETATM   14  C   UNK N   1      25.284  17.251   3.481  0.00  0.00     0.012 A 
HETATM   15  C   UNK N   1      26.206  19.471   3.740  0.00  0.00     0.012 A 
HETATM   16  C   UNK N   1      27.006  20.375   4.438  0.00  0.00     0.002 A 
HETATM   17  C   UNK N   1      27.679  19.969   5.591  0.00  0.00     0.012 A 
ENDBRANCH   1   8
BRANCH   3  18
HETATM   18  O   UNK N   1      30.027  17.569   9.702  0.00  0.00    -0.357 OA
HETATM   19  H   UNK N   1      29.557  18.315  10.020  0.00  0.00     0.217 HD
ENDBRANCH   3  18
BRANCH   4  20
HETATM   20  C   UNK N   1      32.684  16.474   8.701  0.00  0.00    -0.017 A 
HETATM   21  C   UNK N   1      32.691  15.233   9.357  0.00  0.00     0.014 A 
HETATM   22  C   UNK N   1      33.791  14.850  10.130  0.00  0.00     0.024 A 
HETATM   23  C   UNK N   1      34.889  15.705  10.255  0.00  0.00     0.034 A 
HETATM   24 Cl   UNK N   1      36.253  15.240  11.247  0.00  0.00    -0.084 Cl
HETATM   25  C   UNK N   1      34.894  16.936   9.598  0.00  0.00     0.024 A 
HETATM   26  C   UNK N   1      33.795  17.319   8.826  0.00  0.00     0.014 A 
ENDBRANCH   4  20
TORSDOF 3
ENDMDL
