MODEL 1
REMARK VINA RESULT:      -7.9      0.000      0.000
REMARK  6 active torsions:
REMARK  status: ('A' for Active; 'I' for Inactive)
REMARK    1  A    between atoms: C_6  and  N_12 
REMARK    2  A    between atoms: C_10  and  C_22 
REMARK    3  A    between atoms: C_11  and  C_16 
REMARK    4  A    between atoms: N_12  and  C_13 
REMARK    5  A    between atoms: C_13  and  C_14 
REMARK    6  A    between atoms: C_14  and  N_15 
ROOT
HETATM    1  C   UNK N   1      26.108  14.628   1.940  0.00  0.00     0.184 A 
HETATM    2  N   UNK N   1      27.431  14.532   2.251  0.00  0.00    -0.332 N 
ATOM      3  HN  UNK N   1      27.997  13.766   1.886  1.00  0.00     0.168 HD
HETATM    4  C   UNK N   1      27.977  15.473   3.055  0.00  0.00     0.164 A 
HETATM    5  C   UNK N   1      27.261  16.516   3.572  0.00  0.00     0.073 A 
HETATM    6  C   UNK N   1      25.886  16.590   3.279  0.00  0.00     0.117 A 
HETATM    7  N   UNK N   1      25.350  15.643   2.454  0.00  0.00    -0.338 N 
ATOM      8  HN  UNK N   1      24.358  15.694   2.216  1.00  0.00     0.168 HD
HETATM    9  O   UNK N   1      29.225  15.517   3.433  0.00  0.00    -0.291 OA
HETATM   10  C   UNK N   1      29.402  16.582   4.196  0.00  0.00     0.100 A 
HETATM   11  C   UNK N   1      28.170  17.270   4.325  0.00  0.00     0.027 A 
ENDROOT
BRANCH   6  12
HETATM   12  N   UNK N   1      25.034  17.559   3.850  0.00  0.00    -0.374 N 
HETATM   13  H   UNK N   1      25.409  18.397   4.206  0.00  0.00     0.161 HD
BRANCH  12  14
HETATM   14  C   UNK N   1      23.612  17.322   3.913  0.00  0.00     0.151 C 
BRANCH  14  15
HETATM   15  C   UNK N   1      22.875  18.465   4.615  0.00  0.00     0.292 C 
BRANCH  15  16
HETATM   16  N   UNK N   1      21.695  18.937   3.894  0.00  0.00     0.093 N 
HETATM   17  C   UNK N   1      22.075  19.991   2.950  0.00  0.00     0.291 C 
HETATM   18  C   UNK N   1      20.853  20.411   2.138  0.00  0.00     0.144 C 
HETATM   19  N   UNK N   1      20.371  19.269   1.366  0.00  0.00    -0.418 N 
HETATM   20  C   UNK N   1      19.989  18.202   2.290  0.00  0.00     0.144 C 
HETATM   21  H   UNK N   1      20.311  19.223   0.349  0.00  0.00     0.153 HD
HETATM   22  C   UNK N   1      21.191  17.789   3.140  0.00  0.00     0.291 C 
ENDBRANCH  15  16
ENDBRANCH  14  15
ENDBRANCH  12  14
ENDBRANCH   6  12
BRANCH  11  23
HETATM   23  C   UNK N   1      27.900  18.530   5.074  0.00  0.00    -0.022 A 
HETATM   24  C   UNK N   1      27.901  18.542   6.477  0.00  0.00     0.012 A 
HETATM   25  C   UNK N   1      27.645  19.723   7.180  0.00  0.00     0.001 A 
HETATM   26  C   UNK N   1      27.394  20.909   6.488  0.00  0.00     0.000 A 
HETATM   27  C   UNK N   1      27.393  20.912   5.092  0.00  0.00     0.001 A 
HETATM   28  C   UNK N   1      27.644  19.729   4.393  0.00  0.00     0.012 A 
ENDBRANCH  11  23
BRANCH  10  29
HETATM   29  C   UNK N   1      30.762  16.943   4.676  0.00  0.00    -0.001 A 
HETATM   30  C   UNK N   1      31.794  17.309   3.803  0.00  0.00     0.014 A 
HETATM   31  C   UNK N   1      33.074  17.591   4.286  0.00  0.00     0.001 A 
HETATM   32  C   UNK N   1      33.338  17.499   5.653  0.00  0.00     0.000 A 
HETATM   33  C   UNK N   1      32.324  17.119   6.534  0.00  0.00     0.001 A 
HETATM   34  C   UNK N   1      31.044  16.836   6.046  0.00  0.00     0.014 A 
ENDBRANCH  10  29
TORSDOF 6
ENDMDL
MODEL 2
REMARK VINA RESULT:      -7.8      1.392      1.631
REMARK  6 active torsions:
REMARK  status: ('A' for Active; 'I' for Inactive)
REMARK    1  A    between atoms: C_6  and  N_12 
REMARK    2  A    between atoms: C_10  and  C_22 
REMARK    3  A    between atoms: C_11  and  C_16 
REMARK    4  A    between atoms: N_12  and  C_13 
REMARK    5  A    between atoms: C_13  and  C_14 
REMARK    6  A    between atoms: C_14  and  N_15 
ROOT
HETATM    1  C   UNK N   1      25.642  13.443   5.023  0.00  0.00     0.184 A 
HETATM    2  N   UNK N   1      27.003  13.489   5.079  0.00  0.00    -0.332 N 
ATOM      3  HN  UNK N   1      27.554  12.632   5.040  1.00  0.00     0.168 HD
HETATM    4  C   UNK N   1      27.606  14.695   5.189  0.00  0.00     0.164 A 
HETATM    5  C   UNK N   1      26.912  15.871   5.248  0.00  0.00     0.073 A 
HETATM    6  C   UNK N   1      25.506  15.816   5.228  0.00  0.00     0.117 A 
HETATM    7  N   UNK N   1      24.908  14.594   5.102  0.00  0.00    -0.338 N 
ATOM      8  HN  UNK N   1      23.890  14.539   5.067  1.00  0.00     0.168 HD
HETATM    9  O   UNK N   1      28.894  14.898   5.247  0.00  0.00    -0.291 OA
HETATM   10  C   UNK N   1      29.118  16.197   5.331  0.00  0.00     0.100 A 
HETATM   11  C   UNK N   1      27.877  16.882   5.338  0.00  0.00     0.027 A 
ENDROOT
BRANCH   6  12
HETATM   12  N   UNK N   1      24.693  16.957   5.397  0.00  0.00    -0.374 N 
HETATM   13  H   UNK N   1      24.817  17.538   6.182  0.00  0.00     0.161 HD
BRANCH  12  14
HETATM   14  C   UNK N   1      23.681  17.274   4.418  0.00  0.00     0.151 C 
BRANCH  14  15
HETATM   15  C   UNK N   1      23.543  18.784   4.211  0.00  0.00     0.292 C 
BRANCH  15  16
HETATM   16  N   UNK N   1      22.187  19.211   3.871  0.00  0.00     0.093 N 
HETATM   17  C   UNK N   1      22.231  20.205   2.796  0.00  0.00     0.291 C 
HETATM   18  C   UNK N   1      20.808  20.574   2.387  0.00  0.00     0.144 C 
HETATM   19  N   UNK N   1      20.129  19.387   1.874  0.00  0.00    -0.418 N 
HETATM   20  C   UNK N   1      20.078  18.379   2.932  0.00  0.00     0.144 C 
HETATM   21  H   UNK N   1      19.754  19.279   0.933  0.00  0.00     0.153 HD
HETATM   22  C   UNK N   1      21.494  18.019   3.383  0.00  0.00     0.291 C 
ENDBRANCH  15  16
ENDBRANCH  14  15
ENDBRANCH  12  14
ENDBRANCH   6  12
BRANCH  11  23
HETATM   23  C   UNK N   1      27.644  18.353   5.400  0.00  0.00    -0.022 A 
HETATM   24  C   UNK N   1      27.293  19.071   4.247  0.00  0.00     0.012 A 
HETATM   25  C   UNK N   1      27.078  20.451   4.305  0.00  0.00     0.001 A 
HETATM   26  C   UNK N   1      27.203  21.129   5.520  0.00  0.00     0.000 A 
HETATM   27  C   UNK N   1      27.548  20.426   6.675  0.00  0.00     0.001 A 
HETATM   28  C   UNK N   1      27.768  19.048   6.612  0.00  0.00     0.012 A 
ENDBRANCH  11  23
BRANCH  10  29
HETATM   29  C   UNK N   1      30.508  16.723   5.297  0.00  0.00    -0.001 A 
HETATM   30  C   UNK N   1      31.145  17.084   4.103  0.00  0.00     0.014 A 
HETATM   31  C   UNK N   1      32.470  17.525   4.104  0.00  0.00     0.001 A 
HETATM   32  C   UNK N   1      33.179  17.599   5.304  0.00  0.00     0.000 A 
HETATM   33  C   UNK N   1      32.562  17.227   6.500  0.00  0.00     0.001 A 
HETATM   34  C   UNK N   1      31.235  16.785   6.495  0.00  0.00     0.014 A 
ENDBRANCH  10  29
TORSDOF 6
ENDMDL
MODEL 3
REMARK VINA RESULT:      -7.7      4.372      9.424
REMARK  6 active torsions:
REMARK  status: ('A' for Active; 'I' for Inactive)
REMARK    1  A    between atoms: C_6  and  N_12 
REMARK    2  A    between atoms: C_10  and  C_22 
REMARK    3  A    between atoms: C_11  and  C_16 
REMARK    4  A    between atoms: N_12  and  C_13 
REMARK    5  A    between atoms: C_13  and  C_14 
REMARK    6  A    between atoms: C_14  and  N_15 
ROOT
HETATM    1  C   UNK N   1      29.689  18.162  10.150  0.00  0.00     0.184 A 
HETATM    2  N   UNK N   1      28.646  18.685   9.447  0.00  0.00    -0.332 N 
ATOM      3  HN  UNK N   1      27.926  19.235   9.916  1.00  0.00     0.168 HD
HETATM    4  C   UNK N   1      28.584  18.458   8.115  0.00  0.00     0.164 A 
HETATM    5  C   UNK N   1      29.521  17.726   7.441  0.00  0.00     0.073 A 
HETATM    6  C   UNK N   1      30.577  17.156   8.178  0.00  0.00     0.117 A 
HETATM    7  N   UNK N   1      30.636  17.404   9.519  0.00  0.00    -0.338 N 
ATOM      8  HN  UNK N   1      31.406  17.014  10.064  1.00  0.00     0.168 HD
HETATM    9  O   UNK N   1      27.654  18.897   7.312  0.00  0.00    -0.291 OA
HETATM   10  C   UNK N   1      27.929  18.498   6.083  0.00  0.00     0.100 A 
HETATM   11  C   UNK N   1      29.123  17.735   6.098  0.00  0.00     0.027 A 
ENDROOT
BRANCH   6  12
HETATM   12  N   UNK N   1      31.532  16.292   7.601  0.00  0.00    -0.374 N 
HETATM   13  H   UNK N   1      31.279  15.373   7.354  0.00  0.00     0.161 HD
BRANCH  12  14
HETATM   14  C   UNK N   1      32.879  16.755   7.374  0.00  0.00     0.151 C 
BRANCH  14  15
HETATM   15  C   UNK N   1      33.885  15.601   7.372  0.00  0.00     0.292 C 
BRANCH  15  16
HETATM   16  N   UNK N   1      34.657  15.490   8.608  0.00  0.00     0.093 N 
HETATM   17  C   UNK N   1      34.670  16.779   9.305  0.00  0.00     0.291 C 
HETATM   18  C   UNK N   1      35.401  16.628  10.637  0.00  0.00     0.144 C 
HETATM   19  N   UNK N   1      34.684  15.671  11.475  0.00  0.00    -0.418 N 
HETATM   20  C   UNK N   1      34.656  14.377  10.795  0.00  0.00     0.144 C 
HETATM   21  H   UNK N   1      34.271  15.872  12.385  0.00  0.00     0.153 HD
HETATM   22  C   UNK N   1      33.959  14.510   9.441  0.00  0.00     0.291 C 
ENDBRANCH  15  16
ENDBRANCH  14  15
ENDBRANCH  12  14
ENDBRANCH   6  12
BRANCH  11  23
HETATM   23  C   UNK N   1      29.819  17.102   4.943  0.00  0.00    -0.022 A 
HETATM   24  C   UNK N   1      31.032  17.622   4.466  0.00  0.00     0.012 A 
HETATM   25  C   UNK N   1      31.684  17.031   3.381  0.00  0.00     0.001 A 
HETATM   26  C   UNK N   1      31.135  15.905   2.763  0.00  0.00     0.000 A 
HETATM   27  C   UNK N   1      29.931  15.375   3.229  0.00  0.00     0.001 A 
HETATM   28  C   UNK N   1      29.280  15.972   4.311  0.00  0.00     0.012 A 
ENDBRANCH  11  23
BRANCH  10  29
HETATM   29  C   UNK N   1      27.091  18.952   4.942  0.00  0.00    -0.001 A 
HETATM   30  C   UNK N   1      27.342  20.148   4.256  0.00  0.00     0.014 A 
HETATM   31  C   UNK N   1      26.502  20.570   3.222  0.00  0.00     0.001 A 
HETATM   32  C   UNK N   1      25.393  19.801   2.869  0.00  0.00     0.000 A 
HETATM   33  C   UNK N   1      25.121  18.616   3.554  0.00  0.00     0.001 A 
HETATM   34  C   UNK N   1      25.963  18.197   4.590  0.00  0.00     0.014 A 
ENDBRANCH  10  29
TORSDOF 6
ENDMDL
MODEL 4
REMARK VINA RESULT:      -7.7      4.759      9.984
REMARK  6 active torsions:
REMARK  status: ('A' for Active; 'I' for Inactive)
REMARK    1  A    between atoms: C_6  and  N_12 
REMARK    2  A    between atoms: C_10  and  C_22 
REMARK    3  A    between atoms: C_11  and  C_16 
REMARK    4  A    between atoms: N_12  and  C_13 
REMARK    5  A    between atoms: C_13  and  C_14 
REMARK    6  A    between atoms: C_14  and  N_15 
ROOT
HETATM    1  C   UNK N   1      29.317  18.410   9.808  0.00  0.00     0.184 A 
HETATM    2  N   UNK N   1      28.326  17.999   8.969  0.00  0.00    -0.332 N 
ATOM      3  HN  UNK N   1      27.347  18.067   9.248  1.00  0.00     0.168 HD
HETATM    4  C   UNK N   1      28.667  17.499   7.760  0.00  0.00     0.164 A 
HETATM    5  C   UNK N   1      29.964  17.385   7.341  0.00  0.00     0.073 A 
HETATM    6  C   UNK N   1      30.986  17.774   8.227  0.00  0.00     0.117 A 
HETATM    7  N   UNK N   1      30.629  18.292   9.439  0.00  0.00    -0.338 N 
ATOM      8  HN  UNK N   1      31.357  18.597  10.085  1.00  0.00     0.168 HD
HETATM    9  O   UNK N   1      27.834  17.074   6.850  0.00  0.00    -0.291 OA
HETATM   10  C   UNK N   1      28.521  16.676   5.794  0.00  0.00     0.100 A 
HETATM   11  C   UNK N   1      29.904  16.850   6.048  0.00  0.00     0.027 A 
ENDROOT
BRANCH   6  12
HETATM   12  N   UNK N   1      32.356  17.594   7.940  0.00  0.00    -0.374 N 
HETATM   13  H   UNK N   1      32.852  18.288   7.450  0.00  0.00     0.161 HD
BRANCH  12  14
HETATM   14  C   UNK N   1      33.030  16.391   8.365  0.00  0.00     0.151 C 
BRANCH  14  15
HETATM   15  C   UNK N   1      34.332  16.700   9.106  0.00  0.00     0.292 C 
BRANCH  15  16
HETATM   16  N   UNK N   1      34.778  15.622   9.988  0.00  0.00     0.093 N 
HETATM   17  C   UNK N   1      35.803  14.820   9.316  0.00  0.00     0.291 C 
HETATM   18  C   UNK N   1      36.327  13.756  10.277  0.00  0.00     0.144 C 
HETATM   19  N   UNK N   1      36.949  14.408  11.426  0.00  0.00    -0.418 N 
HETATM   20  C   UNK N   1      35.943  15.219  12.111  0.00  0.00     0.144 C 
HETATM   21  H   UNK N   1      37.925  14.314  11.705  0.00  0.00     0.153 HD
HETATM   22  C   UNK N   1      35.377  16.270  11.155  0.00  0.00     0.291 C 
ENDBRANCH  15  16
ENDBRANCH  14  15
ENDBRANCH  12  14
ENDBRANCH   6  12
BRANCH  11  23
HETATM   23  C   UNK N   1      31.046  16.555   5.137  0.00  0.00    -0.022 A 
HETATM   24  C   UNK N   1      31.547  17.543   4.276  0.00  0.00     0.012 A 
HETATM   25  C   UNK N   1      32.616  17.265   3.418  0.00  0.00     0.001 A 
HETATM   26  C   UNK N   1      33.202  15.998   3.418  0.00  0.00     0.000 A 
HETATM   27  C   UNK N   1      32.715  15.007   4.271  0.00  0.00     0.001 A 
HETATM   28  C   UNK N   1      31.644  15.286   5.123  0.00  0.00     0.012 A 
ENDBRANCH  11  23
BRANCH  10  29
HETATM   29  C   UNK N   1      27.815  16.246   4.558  0.00  0.00    -0.001 A 
HETATM   30  C   UNK N   1      28.290  15.209   3.745  0.00  0.00     0.014 A 
HETATM   31  C   UNK N   1      27.629  14.867   2.563  0.00  0.00     0.001 A 
HETATM   32  C   UNK N   1      26.488  15.569   2.175  0.00  0.00     0.000 A 
HETATM   33  C   UNK N   1      26.011  16.615   2.967  0.00  0.00     0.001 A 
HETATM   34  C   UNK N   1      26.677  16.956   4.149  0.00  0.00     0.014 A 
ENDBRANCH  10  29
TORSDOF 6
ENDMDL
MODEL 5
REMARK VINA RESULT:      -7.5      4.315      9.213
REMARK  6 active torsions:
REMARK  status: ('A' for Active; 'I' for Inactive)
REMARK    1  A    between atoms: C_6  and  N_12 
REMARK    2  A    between atoms: C_10  and  C_22 
REMARK    3  A    between atoms: C_11  and  C_16 
REMARK    4  A    between atoms: N_12  and  C_13 
REMARK    5  A    between atoms: C_13  and  C_14 
REMARK    6  A    between atoms: C_14  and  N_15 
ROOT
HETATM    1  C   UNK N   1      31.733  14.097   3.626  0.00  0.00     0.184 A 
HETATM    2  N   UNK N   1      30.857  14.976   3.065  0.00  0.00    -0.332 N 
ATOM      3  HN  UNK N   1      30.677  14.963   2.061  1.00  0.00     0.168 HD
HETATM    4  C   UNK N   1      30.231  15.867   3.868  0.00  0.00     0.164 A 
HETATM    5  C   UNK N   1      30.439  15.926   5.217  0.00  0.00     0.073 A 
HETATM    6  C   UNK N   1      31.375  15.042   5.787  0.00  0.00     0.117 A 
HETATM    7  N   UNK N   1      31.989  14.137   4.969  0.00  0.00    -0.338 N 
ATOM      8  HN  UNK N   1      32.655  13.475   5.369  1.00  0.00     0.168 HD
HETATM    9  O   UNK N   1      29.365  16.762   3.480  0.00  0.00    -0.291 OA
HETATM   10  C   UNK N   1      28.950  17.440   4.535  0.00  0.00     0.100 A 
HETATM   11  C   UNK N   1      29.608  16.950   5.690  0.00  0.00     0.027 A 
ENDROOT
BRANCH   6  12
HETATM   12  N   UNK N   1      31.747  15.094   7.147  0.00  0.00    -0.374 N 
HETATM   13  H   UNK N   1      31.067  14.979   7.849  0.00  0.00     0.161 HD
BRANCH  12  14
HETATM   14  C   UNK N   1      33.126  15.316   7.509  0.00  0.00     0.151 C 
BRANCH  14  15
HETATM   15  C   UNK N   1      33.259  15.861   8.933  0.00  0.00     0.292 C 
BRANCH  15  16
HETATM   16  N   UNK N   1      34.306  15.208   9.718  0.00  0.00     0.093 N 
HETATM   17  C   UNK N   1      35.340  14.677   8.826  0.00  0.00     0.291 C 
HETATM   18  C   UNK N   1      36.471  14.080   9.659  0.00  0.00     0.144 C 
HETATM   19  N   UNK N   1      37.076  15.130  10.474  0.00  0.00    -0.418 N 
HETATM   20  C   UNK N   1      36.059  15.677  11.370  0.00  0.00     0.144 C 
HETATM   21  H   UNK N   1      38.049  15.432  10.426  0.00  0.00     0.153 HD
HETATM   22  C   UNK N   1      34.897  16.250  10.558  0.00  0.00     0.291 C 
ENDBRANCH  15  16
ENDBRANCH  14  15
ENDBRANCH  12  14
ENDBRANCH   6  12
BRANCH  11  23
HETATM   23  C   UNK N   1      29.438  17.401   7.100  0.00  0.00    -0.022 A 
HETATM   24  C   UNK N   1      28.245  17.147   7.794  0.00  0.00     0.012 A 
HETATM   25  C   UNK N   1      28.085  17.572   9.116  0.00  0.00     0.001 A 
HETATM   26  C   UNK N   1      29.119  18.249   9.763  0.00  0.00     0.000 A 
HETATM   27  C   UNK N   1      30.313  18.506   9.086  0.00  0.00     0.001 A 
HETATM   28  C   UNK N   1      30.468  18.084   7.764  0.00  0.00     0.012 A 
ENDBRANCH  11  23
BRANCH  10  29
HETATM   29  C   UNK N   1      27.870  18.453   4.398  0.00  0.00    -0.001 A 
HETATM   30  C   UNK N   1      28.040  19.788   4.790  0.00  0.00     0.014 A 
HETATM   31  C   UNK N   1      26.986  20.700   4.696  0.00  0.00     0.001 A 
HETATM   32  C   UNK N   1      25.744  20.283   4.218  0.00  0.00     0.000 A 
HETATM   33  C   UNK N   1      25.555  18.953   3.839  0.00  0.00     0.001 A 
HETATM   34  C   UNK N   1      26.612  18.041   3.936  0.00  0.00     0.014 A 
ENDBRANCH  10  29
TORSDOF 6
ENDMDL
MODEL 6
REMARK VINA RESULT:      -7.4      1.590      1.927
REMARK  6 active torsions:
REMARK  status: ('A' for Active; 'I' for Inactive)
REMARK    1  A    between atoms: C_6  and  N_12 
REMARK    2  A    between atoms: C_10  and  C_22 
REMARK    3  A    between atoms: C_11  and  C_16 
REMARK    4  A    between atoms: N_12  and  C_13 
REMARK    5  A    between atoms: C_13  and  C_14 
REMARK    6  A    between atoms: C_14  and  N_15 
ROOT
HETATM    1  C   UNK N   1      26.939  13.318   4.335  0.00  0.00     0.184 A 
HETATM    2  N   UNK N   1      28.219  13.446   4.785  0.00  0.00    -0.332 N 
ATOM      3  HN  UNK N   1      28.844  12.641   4.809  1.00  0.00     0.168 HD
HETATM    4  C   UNK N   1      28.640  14.662   5.201  0.00  0.00     0.164 A 
HETATM    5  C   UNK N   1      27.840  15.770   5.192  0.00  0.00     0.073 A 
HETATM    6  C   UNK N   1      26.507  15.625   4.762  0.00  0.00     0.117 A 
HETATM    7  N   UNK N   1      26.097  14.396   4.331  0.00  0.00    -0.338 N 
ATOM      8  HN  UNK N   1      25.140  14.279   3.997  1.00  0.00     0.168 HD
HETATM    9  O   UNK N   1      29.833  14.940   5.650  0.00  0.00    -0.291 OA
HETATM   10  C   UNK N   1      29.890  16.227   5.943  0.00  0.00     0.100 A 
HETATM   11  C   UNK N   1      28.632  16.821   5.670  0.00  0.00     0.027 A 
ENDROOT
BRANCH   6  12
HETATM   12  N   UNK N   1      25.567  16.676   4.819  0.00  0.00    -0.374 N 
HETATM   13  H   UNK N   1      25.609  17.335   5.549  0.00  0.00     0.161 HD
BRANCH  12  14
HETATM   14  C   UNK N   1      24.543  16.784   3.808  0.00  0.00     0.151 C 
BRANCH  14  15
HETATM   15  C   UNK N   1      23.161  17.023   4.421  0.00  0.00     0.292 C 
BRANCH  15  16
HETATM   16  N   UNK N   1      22.148  17.431   3.449  0.00  0.00     0.093 N 
HETATM   17  C   UNK N   1      21.255  16.306   3.157  0.00  0.00     0.291 C 
HETATM   18  C   UNK N   1      20.149  16.768   2.213  0.00  0.00     0.144 C 
HETATM   19  N   UNK N   1      19.360  17.810   2.866  0.00  0.00    -0.418 N 
HETATM   20  C   UNK N   1      20.235  18.942   3.170  0.00  0.00     0.144 C 
HETATM   21  H   UNK N   1      18.365  17.756   3.077  0.00  0.00     0.153 HD
HETATM   22  C   UNK N   1      21.374  18.495   4.087  0.00  0.00     0.291 C 
ENDBRANCH  15  16
ENDBRANCH  14  15
ENDBRANCH  12  14
ENDBRANCH   6  12
BRANCH  11  23
HETATM   23  C   UNK N   1      28.241  18.250   5.831  0.00  0.00    -0.022 A 
HETATM   24  C   UNK N   1      27.960  18.776   7.101  0.00  0.00     0.012 A 
HETATM   25  C   UNK N   1      27.590  20.116   7.252  0.00  0.00     0.001 A 
HETATM   26  C   UNK N   1      27.507  20.948   6.135  0.00  0.00     0.000 A 
HETATM   27  C   UNK N   1      27.787  20.439   4.866  0.00  0.00     0.001 A 
HETATM   28  C   UNK N   1      28.151  19.099   4.718  0.00  0.00     0.012 A 
ENDBRANCH  11  23
BRANCH  10  29
HETATM   29  C   UNK N   1      31.173  16.843   6.371  0.00  0.00    -0.001 A 
HETATM   30  C   UNK N   1      32.275  16.957   5.513  0.00  0.00     0.014 A 
HETATM   31  C   UNK N   1      33.482  17.494   5.965  0.00  0.00     0.001 A 
HETATM   32  C   UNK N   1      33.604  17.915   7.290  0.00  0.00     0.000 A 
HETATM   33  C   UNK N   1      32.521  17.793   8.161  0.00  0.00     0.001 A 
HETATM   34  C   UNK N   1      31.313  17.253   7.705  0.00  0.00     0.014 A 
ENDBRANCH  10  29
TORSDOF 6
ENDMDL
MODEL 7
REMARK VINA RESULT:      -7.2      3.506      6.489
REMARK  6 active torsions:
REMARK  status: ('A' for Active; 'I' for Inactive)
REMARK    1  A    between atoms: C_6  and  N_12 
REMARK    2  A    between atoms: C_10  and  C_22 
REMARK    3  A    between atoms: C_11  and  C_16 
REMARK    4  A    between atoms: N_12  and  C_13 
REMARK    5  A    between atoms: C_13  and  C_14 
REMARK    6  A    between atoms: C_14  and  N_15 
ROOT
HETATM    1  C   UNK N   1      19.662  19.555   2.821  0.00  0.00     0.184 A 
HETATM    2  N   UNK N   1      20.839  20.234   2.914  0.00  0.00    -0.332 N 
ATOM      3  HN  UNK N   1      20.886  21.228   2.690  1.00  0.00     0.168 HD
HETATM    4  C   UNK N   1      21.945  19.561   3.308  0.00  0.00     0.164 A 
HETATM    5  C   UNK N   1      21.935  18.229   3.615  0.00  0.00     0.073 A 
HETATM    6  C   UNK N   1      20.724  17.524   3.481  0.00  0.00     0.117 A 
HETATM    7  N   UNK N   1      19.612  18.217   3.097  0.00  0.00    -0.338 N 
ATOM      8  HN  UNK N   1      18.722  17.724   3.014  1.00  0.00     0.168 HD
HETATM    9  O   UNK N   1      23.136  20.074   3.449  0.00  0.00    -0.291 OA
HETATM   10  C   UNK N   1      23.961  19.129   3.865  0.00  0.00     0.100 A 
HETATM   11  C   UNK N   1      23.246  17.912   3.991  0.00  0.00     0.027 A 
ENDROOT
BRANCH   6  12
HETATM   12  N   UNK N   1      20.628  16.128   3.664  0.00  0.00    -0.374 N 
HETATM   13  H   UNK N   1      21.173  15.520   3.113  0.00  0.00     0.161 HD
BRANCH  12  14
HETATM   14  C   UNK N   1      19.731  15.590   4.657  0.00  0.00     0.151 C 
BRANCH  14  15
HETATM   15  C   UNK N   1      20.035  16.138   6.054  0.00  0.00     0.292 C 
BRANCH  15  16
HETATM   16  N   UNK N   1      20.174  15.102   7.076  0.00  0.00     0.093 N 
HETATM   17  C   UNK N   1      20.941  13.974   6.542  0.00  0.00     0.291 C 
HETATM   18  C   UNK N   1      21.158  12.940   7.643  0.00  0.00     0.144 C 
HETATM   19  N   UNK N   1      21.937  13.542   8.723  0.00  0.00    -0.418 N 
HETATM   20  C   UNK N   1      21.189  14.674   9.269  0.00  0.00     0.144 C 
HETATM   21  H   UNK N   1      22.851  13.225   9.043  0.00  0.00     0.153 HD
HETATM   22  C   UNK N   1      20.928  15.708   8.173  0.00  0.00     0.291 C 
ENDBRANCH  15  16
ENDBRANCH  14  15
ENDBRANCH  12  14
ENDBRANCH   6  12
BRANCH  11  23
HETATM   23  C   UNK N   1      23.764  16.590   4.446  0.00  0.00    -0.022 A 
HETATM   24  C   UNK N   1      24.208  15.638   3.517  0.00  0.00     0.012 A 
HETATM   25  C   UNK N   1      24.691  14.397   3.943  0.00  0.00     0.001 A 
HETATM   26  C   UNK N   1      24.743  14.097   5.306  0.00  0.00     0.000 A 
HETATM   27  C   UNK N   1      24.307  15.037   6.241  0.00  0.00     0.001 A 
HETATM   28  C   UNK N   1      23.820  16.273   5.811  0.00  0.00     0.012 A 
ENDBRANCH  11  23
BRANCH  10  29
HETATM   29  C   UNK N   1      25.366  19.462   4.218  0.00  0.00    -0.001 A 
HETATM   30  C   UNK N   1      26.456  18.729   3.731  0.00  0.00     0.014 A 
HETATM   31  C   UNK N   1      27.760  19.038   4.125  0.00  0.00     0.001 A 
HETATM   32  C   UNK N   1      27.987  20.081   5.024  0.00  0.00     0.000 A 
HETATM   33  C   UNK N   1      26.910  20.809   5.531  0.00  0.00     0.001 A 
HETATM   34  C   UNK N   1      25.605  20.496   5.134  0.00  0.00     0.014 A 
ENDBRANCH  10  29
TORSDOF 6
ENDMDL
MODEL 8
REMARK VINA RESULT:      -7.2      4.644      9.385
REMARK  6 active torsions:
REMARK  status: ('A' for Active; 'I' for Inactive)
REMARK    1  A    between atoms: C_6  and  N_12 
REMARK    2  A    between atoms: C_10  and  C_22 
REMARK    3  A    between atoms: C_11  and  C_16 
REMARK    4  A    between atoms: N_12  and  C_13 
REMARK    5  A    between atoms: C_13  and  C_14 
REMARK    6  A    between atoms: C_14  and  N_15 
ROOT
HETATM    1  C   UNK N   1      30.244  12.062   4.608  0.00  0.00     0.184 A 
HETATM    2  N   UNK N   1      29.338  13.071   4.466  0.00  0.00    -0.332 N 
ATOM      3  HN  UNK N   1      28.440  12.903   4.013  1.00  0.00     0.168 HD
HETATM    4  C   UNK N   1      29.657  14.298   4.937  0.00  0.00     0.164 A 
HETATM    5  C   UNK N   1      30.849  14.574   5.547  0.00  0.00     0.073 A 
HETATM    6  C   UNK N   1      31.796  13.539   5.657  0.00  0.00     0.117 A 
HETATM    7  N   UNK N   1      31.457  12.300   5.192  0.00  0.00    -0.338 N 
ATOM      8  HN  UNK N   1      32.125  11.534   5.281  1.00  0.00     0.168 HD
HETATM    9  O   UNK N   1      28.895  15.355   4.880  0.00  0.00    -0.291 OA
HETATM   10  C   UNK N   1      29.523  16.366   5.453  0.00  0.00     0.100 A 
HETATM   11  C   UNK N   1      30.793  15.927   5.905  0.00  0.00     0.027 A 
ENDROOT
BRANCH   6  12
HETATM   12  N   UNK N   1      33.096  13.743   6.167  0.00  0.00    -0.374 N 
HETATM   13  H   UNK N   1      33.724  14.333   5.691  0.00  0.00     0.161 HD
BRANCH  12  14
HETATM   14  C   UNK N   1      33.505  13.086   7.385  0.00  0.00     0.151 C 
BRANCH  14  15
HETATM   15  C   UNK N   1      33.321  13.988   8.607  0.00  0.00     0.292 C 
BRANCH  15  16
HETATM   16  N   UNK N   1      34.464  13.984   9.519  0.00  0.00     0.093 N 
HETATM   17  C   UNK N   1      35.651  14.502   8.834  0.00  0.00     0.291 C 
HETATM   18  C   UNK N   1      36.813  14.579   9.820  0.00  0.00     0.144 C 
HETATM   19  N   UNK N   1      36.474  15.509  10.894  0.00  0.00    -0.418 N 
HETATM   20  C   UNK N   1      35.287  15.013  11.590  0.00  0.00     0.144 C 
HETATM   21  H   UNK N   1      36.981  16.364  11.121  0.00  0.00     0.153 HD
HETATM   22  C   UNK N   1      34.117  14.893  10.612  0.00  0.00     0.291 C 
ENDBRANCH  15  16
ENDBRANCH  14  15
ENDBRANCH  12  14
ENDBRANCH   6  12
BRANCH  11  23
HETATM   23  C   UNK N   1      31.832  16.718   6.623  0.00  0.00    -0.022 A 
HETATM   24  C   UNK N   1      32.981  17.164   5.953  0.00  0.00     0.012 A 
HETATM   25  C   UNK N   1      33.958  17.903   6.628  0.00  0.00     0.001 A 
HETATM   26  C   UNK N   1      33.792  18.213   7.979  0.00  0.00     0.000 A 
HETATM   27  C   UNK N   1      32.651  17.778   8.657  0.00  0.00     0.001 A 
HETATM   28  C   UNK N   1      31.681  17.035   7.981  0.00  0.00     0.012 A 
ENDBRANCH  11  23
BRANCH  10  29
HETATM   29  C   UNK N   1      28.837  17.673   5.631  0.00  0.00    -0.001 A 
HETATM   30  C   UNK N   1      28.602  18.548   4.563  0.00  0.00     0.014 A 
HETATM   31  C   UNK N   1      28.001  19.791   4.775  0.00  0.00     0.001 A 
HETATM   32  C   UNK N   1      27.638  20.178   6.065  0.00  0.00     0.000 A 
HETATM   33  C   UNK N   1      27.881  19.323   7.142  0.00  0.00     0.001 A 
HETATM   34  C   UNK N   1      28.484  18.079   6.926  0.00  0.00     0.014 A 
ENDBRANCH  10  29
TORSDOF 6
ENDMDL
MODEL 9
REMARK VINA RESULT:      -7.2      3.398      6.327
REMARK  6 active torsions:
REMARK  status: ('A' for Active; 'I' for Inactive)
REMARK    1  A    between atoms: C_6  and  N_12 
REMARK    2  A    between atoms: C_10  and  C_22 
REMARK    3  A    between atoms: C_11  and  C_16 
REMARK    4  A    between atoms: N_12  and  C_13 
REMARK    5  A    between atoms: C_13  and  C_14 
REMARK    6  A    between atoms: C_14  and  N_15 
ROOT
HETATM    1  C   UNK N   1      20.152  20.841   1.942  0.00  0.00     0.184 A 
HETATM    2  N   UNK N   1      21.419  21.292   2.162  0.00  0.00    -0.332 N 
ATOM      3  HN  UNK N   1      21.697  22.227   1.864  1.00  0.00     0.168 HD
HETATM    4  C   UNK N   1      22.299  20.473   2.782  0.00  0.00     0.164 A 
HETATM    5  C   UNK N   1      21.975  19.212   3.197  0.00  0.00     0.073 A 
HETATM    6  C   UNK N   1      20.677  18.736   2.934  0.00  0.00     0.117 A 
HETATM    7  N   UNK N   1      19.793  19.577   2.321  0.00  0.00    -0.338 N 
ATOM      8  HN  UNK N   1      18.842  19.255   2.140  1.00  0.00     0.168 HD
HETATM    9  O   UNK N   1      23.539  20.765   3.065  0.00  0.00    -0.291 OA
HETATM   10  C   UNK N   1      24.088  19.736   3.686  0.00  0.00     0.100 A 
HETATM   11  C   UNK N   1      23.130  18.698   3.801  0.00  0.00     0.027 A 
ENDROOT
BRANCH   6  12
HETATM   12  N   UNK N   1      20.275  17.414   3.218  0.00  0.00    -0.374 N 
HETATM   13  H   UNK N   1      20.054  17.154   4.142  0.00  0.00     0.161 HD
BRANCH  12  14
HETATM   14  C   UNK N   1      20.187  16.442   2.155  0.00  0.00     0.151 C 
BRANCH  14  15
HETATM   15  C   UNK N   1      20.117  15.012   2.697  0.00  0.00     0.292 C 
BRANCH  15  16
HETATM   16  N   UNK N   1      21.295  14.205   2.384  0.00  0.00     0.093 N 
HETATM   17  C   UNK N   1      20.898  12.816   2.138  0.00  0.00     0.291 C 
HETATM   18  C   UNK N   1      22.122  12.004   1.723  0.00  0.00     0.144 C 
HETATM   19  N   UNK N   1      22.660  12.544   0.478  0.00  0.00    -0.418 N 
HETATM   20  C   UNK N   1      23.060  13.933   0.700  0.00  0.00     0.144 C 
HETATM   21  H   UNK N   1      22.743  12.037  -0.402  0.00  0.00     0.153 HD
HETATM   22  C   UNK N   1      21.855  14.760   1.152  0.00  0.00     0.291 C 
ENDBRANCH  15  16
ENDBRANCH  14  15
ENDBRANCH  12  14
ENDBRANCH   6  12
BRANCH  11  23
HETATM   23  C   UNK N   1      23.300  17.364   4.444  0.00  0.00    -0.022 A 
HETATM   24  C   UNK N   1      23.979  16.332   3.780  0.00  0.00     0.012 A 
HETATM   25  C   UNK N   1      24.136  15.079   4.382  0.00  0.00     0.001 A 
HETATM   26  C   UNK N   1      23.622  14.848   5.659  0.00  0.00     0.000 A 
HETATM   27  C   UNK N   1      22.947  15.867   6.332  0.00  0.00     0.001 A 
HETATM   28  C   UNK N   1      22.788  17.115   5.726  0.00  0.00     0.012 A 
ENDBRANCH  11  23
BRANCH  10  29
HETATM   29  C   UNK N   1      25.469  19.837   4.227  0.00  0.00    -0.001 A 
HETATM   30  C   UNK N   1      26.538  19.103   3.697  0.00  0.00     0.014 A 
HETATM   31  C   UNK N   1      27.812  19.183   4.264  0.00  0.00     0.001 A 
HETATM   32  C   UNK N   1      28.028  19.993   5.379  0.00  0.00     0.000 A 
HETATM   33  C   UNK N   1      26.970  20.718   5.928  0.00  0.00     0.001 A 
HETATM   34  C   UNK N   1      25.695  20.634   5.358  0.00  0.00     0.014 A 
ENDBRANCH  10  29
TORSDOF 6
ENDMDL
