MODEL 1
REMARK VINA RESULT:      -6.0      0.000      0.000
REMARK  6 active torsions:
REMARK  status: ('A' for Active; 'I' for Inactive)
REMARK    1  A    between atoms: C_9  and  C_11 
REMARK    2  A    between atoms: C_10  and  O_13 
REMARK    3  A    between atoms: C_11  and  O_17 
REMARK    4  A    between atoms: O_13  and  C_14 
REMARK    5  A    between atoms: C_14  and  C_15 
REMARK    6  A    between atoms: C_15  and  O_18 
ROOT
HETATM    1  C   UNK N   1      23.930  20.120   3.297  0.00  0.00     0.018 A 
HETATM    2  C   UNK N   1      25.198  20.241   3.893  0.00  0.00     0.018 A 
HETATM    3  C   UNK N   1      25.577  19.368   4.934  0.00  0.00     0.089 A 
HETATM    4  N   UNK N   1      24.719  18.402   5.373  0.00  0.00    -0.360 N 
ATOM      5  HN  UNK N   1      24.992  17.770   6.125  1.00  0.00     0.166 HD
HETATM    6  C   UNK N   1      23.499  18.296   4.796  0.00  0.00     0.088 A 
HETATM    7  C   UNK N   1      23.070  19.125   3.764  0.00  0.00     0.033 A 
HETATM    8  S   UNK N   1      22.291  17.224   5.147  0.00  0.00    -0.062 SA
HETATM    9  C   UNK N   1      21.168  17.743   4.028  0.00  0.00     0.114 A 
HETATM   10  C   UNK N   1      21.742  18.814   3.317  0.00  0.00     0.106 A 
ENDROOT
BRANCH  10  11
HETATM   11  O   UNK N   1      21.062  19.425   2.321  0.00  0.00    -0.338 OA
BRANCH  11  12
HETATM   12  C   UNK N   1      20.609  20.721   2.324  0.00  0.00     0.285 C 
BRANCH  12  13
HETATM   13  C   UNK N   1      20.726  21.286   0.938  0.00  0.00     0.164 C 
HETATM   14  O   UNK N   1      21.097  20.584   0.009  0.00  0.00    -0.648 OA
BRANCH  13  15
HETATM   15  O   UNK N   1      20.438  22.581   0.715  0.00  0.00    -0.775 OA
HETATM   16  H   UNK N   1      21.036  23.251   0.982  0.00  0.00     0.167 HD
ENDBRANCH  13  15
ENDBRANCH  12  13
ENDBRANCH  11  12
ENDBRANCH  10  11
BRANCH   9  17
HETATM   17  C   UNK N   1      19.827  17.169   3.816  0.00  0.00     0.186 C 
HETATM   18  O   UNK N   1      19.530  16.094   4.306  0.00  0.00    -0.646 OA
BRANCH  17  19
HETATM   19  O   UNK N   1      18.919  17.837   3.078  0.00  0.00    -0.772 OA
HETATM   20  H   UNK N   1      18.428  17.390   2.418  0.00  0.00     0.167 HD
ENDBRANCH  17  19
ENDBRANCH   9  17
TORSDOF 6
ENDMDL
MODEL 2
REMARK VINA RESULT:      -5.9      2.716      4.728
REMARK  6 active torsions:
REMARK  status: ('A' for Active; 'I' for Inactive)
REMARK    1  A    between atoms: C_9  and  C_11 
REMARK    2  A    between atoms: C_10  and  O_13 
REMARK    3  A    between atoms: C_11  and  O_17 
REMARK    4  A    between atoms: O_13  and  C_14 
REMARK    5  A    between atoms: C_14  and  C_15 
REMARK    6  A    between atoms: C_15  and  O_18 
ROOT
HETATM    1  C   UNK N   1      21.548  16.969   5.409  0.00  0.00     0.018 A 
HETATM    2  C   UNK N   1      20.771  15.869   5.812  0.00  0.00     0.018 A 
HETATM    3  C   UNK N   1      19.562  15.577   5.147  0.00  0.00     0.089 A 
HETATM    4  N   UNK N   1      19.134  16.358   4.112  0.00  0.00    -0.360 N 
ATOM      5  HN  UNK N   1      18.260  16.147   3.631  1.00  0.00     0.166 HD
HETATM    6  C   UNK N   1      19.888  17.417   3.735  0.00  0.00     0.088 A 
HETATM    7  C   UNK N   1      21.091  17.753   4.349  0.00  0.00     0.033 A 
HETATM    8  S   UNK N   1      19.591  18.506   2.528  0.00  0.00    -0.062 SA
HETATM    9  C   UNK N   1      20.949  19.455   2.712  0.00  0.00     0.114 A 
HETATM   10  C   UNK N   1      21.705  18.913   3.769  0.00  0.00     0.106 A 
ENDROOT
BRANCH  10  11
HETATM   11  O   UNK N   1      22.882  19.470   4.132  0.00  0.00    -0.338 OA
BRANCH  11  12
HETATM   12  C   UNK N   1      24.133  19.027   3.776  0.00  0.00     0.285 C 
BRANCH  12  13
HETATM   13  C   UNK N   1      24.962  20.198   3.332  0.00  0.00     0.164 C 
HETATM   14  O   UNK N   1      25.947  20.540   3.970  0.00  0.00    -0.648 OA
BRANCH  13  15
HETATM   15  O   UNK N   1      24.609  20.891   2.234  0.00  0.00    -0.775 OA
HETATM   16  H   UNK N   1      24.630  21.827   2.240  0.00  0.00     0.167 HD
ENDBRANCH  13  15
ENDBRANCH  12  13
ENDBRANCH  11  12
ENDBRANCH  10  11
BRANCH   9  17
HETATM   17  C   UNK N   1      21.299  20.637   1.902  0.00  0.00     0.186 C 
HETATM   18  O   UNK N   1      21.228  20.594   0.686  0.00  0.00    -0.646 OA
BRANCH  17  19
HETATM   19  O   UNK N   1      21.696  21.773   2.506  0.00  0.00    -0.772 OA
HETATM   20  H   UNK N   1      22.388  22.285   2.136  0.00  0.00     0.167 HD
ENDBRANCH  17  19
ENDBRANCH   9  17
TORSDOF 6
ENDMDL
MODEL 3
REMARK VINA RESULT:      -5.8      9.196     11.495
REMARK  6 active torsions:
REMARK  status: ('A' for Active; 'I' for Inactive)
REMARK    1  A    between atoms: C_9  and  C_11 
REMARK    2  A    between atoms: C_10  and  O_13 
REMARK    3  A    between atoms: C_11  and  O_17 
REMARK    4  A    between atoms: O_13  and  C_14 
REMARK    5  A    between atoms: C_14  and  C_15 
REMARK    6  A    between atoms: C_15  and  O_18 
ROOT
HETATM    1  C   UNK N   1      29.708  16.896   6.132  0.00  0.00     0.018 A 
HETATM    2  C   UNK N   1      29.282  16.551   4.837  0.00  0.00     0.018 A 
HETATM    3  C   UNK N   1      30.218  16.462   3.785  0.00  0.00     0.089 A 
HETATM    4  N   UNK N   1      31.540  16.712   4.012  0.00  0.00    -0.360 N 
ATOM      5  HN  UNK N   1      32.217  16.647   3.252  1.00  0.00     0.166 HD
HETATM    6  C   UNK N   1      31.939  17.048   5.262  0.00  0.00     0.088 A 
HETATM    7  C   UNK N   1      31.065  17.147   6.339  0.00  0.00     0.033 A 
HETATM    8  S   UNK N   1      33.466  17.398   5.787  0.00  0.00    -0.062 SA
HETATM    9  C   UNK N   1      33.113  17.695   7.390  0.00  0.00     0.114 A 
HETATM   10  C   UNK N   1      31.727  17.513   7.559  0.00  0.00     0.106 A 
ENDROOT
BRANCH  10  11
HETATM   11  O   UNK N   1      31.154  17.667   8.774  0.00  0.00    -0.338 OA
BRANCH  11  12
HETATM   12  C   UNK N   1      30.191  18.589   9.106  0.00  0.00     0.285 C 
BRANCH  12  13
HETATM   13  C   UNK N   1      28.993  17.871   9.657  0.00  0.00     0.164 C 
HETATM   14  O   UNK N   1      29.130  16.883  10.364  0.00  0.00    -0.648 OA
BRANCH  13  15
HETATM   15  O   UNK N   1      27.755  18.306   9.360  0.00  0.00    -0.775 OA
HETATM   16  H   UNK N   1      27.551  19.220   9.409  0.00  0.00     0.167 HD
ENDBRANCH  13  15
ENDBRANCH  12  13
ENDBRANCH  11  12
ENDBRANCH  10  11
BRANCH   9  17
HETATM   17  C   UNK N   1      34.082  18.065   8.438  0.00  0.00     0.186 C 
HETATM   18  O   UNK N   1      34.868  18.979   8.258  0.00  0.00    -0.646 OA
BRANCH  17  19
HETATM   19  O   UNK N   1      34.099  17.393   9.605  0.00  0.00    -0.772 OA
HETATM   20  H   UNK N   1      33.446  17.561  10.255  0.00  0.00     0.167 HD
ENDBRANCH  17  19
ENDBRANCH   9  17
TORSDOF 6
ENDMDL
MODEL 4
REMARK VINA RESULT:      -5.7     19.970     21.955
REMARK  6 active torsions:
REMARK  status: ('A' for Active; 'I' for Inactive)
REMARK    1  A    between atoms: C_9  and  C_11 
REMARK    2  A    between atoms: C_10  and  O_13 
REMARK    3  A    between atoms: C_11  and  O_17 
REMARK    4  A    between atoms: O_13  and  C_14 
REMARK    5  A    between atoms: C_14  and  C_15 
REMARK    6  A    between atoms: C_15  and  O_18 
ROOT
HETATM    1  C   UNK N   1      41.214  22.763   0.488  0.00  0.00     0.018 A 
HETATM    2  C   UNK N   1      40.198  22.015  -0.133  0.00  0.00     0.018 A 
HETATM    3  C   UNK N   1      39.820  20.762   0.394  0.00  0.00     0.089 A 
HETATM    4  N   UNK N   1      40.437  20.265   1.506  0.00  0.00    -0.360 N 
ATOM      5  HN  UNK N   1      40.164  19.360   1.888  1.00  0.00     0.166 HD
HETATM    6  C   UNK N   1      41.416  20.992   2.094  0.00  0.00     0.088 A 
HETATM    7  C   UNK N   1      41.830  22.234   1.623  0.00  0.00     0.033 A 
HETATM    8  S   UNK N   1      42.308  20.612   3.432  0.00  0.00    -0.062 SA
HETATM    9  C   UNK N   1      43.259  21.980   3.491  0.00  0.00     0.114 A 
HETATM   10  C   UNK N   1      42.879  22.808   2.417  0.00  0.00     0.106 A 
ENDROOT
BRANCH  10  11
HETATM   11  O   UNK N   1      43.471  24.007   2.226  0.00  0.00    -0.338 OA
BRANCH  11  12
HETATM   12  C   UNK N   1      44.570  24.254   1.439  0.00  0.00     0.285 C 
BRANCH  12  13
HETATM   13  C   UNK N   1      45.515  25.154   2.181  0.00  0.00     0.164 C 
HETATM   14  O   UNK N   1      45.307  26.357   2.247  0.00  0.00    -0.648 OA
BRANCH  13  15
HETATM   15  O   UNK N   1      46.611  24.638   2.767  0.00  0.00    -0.775 OA
HETATM   16  H   UNK N   1      47.310  24.299   2.244  0.00  0.00     0.167 HD
ENDBRANCH  13  15
ENDBRANCH  12  13
ENDBRANCH  11  12
ENDBRANCH  10  11
BRANCH   9  17
HETATM   17  C   UNK N   1      44.297  22.273   4.497  0.00  0.00     0.186 C 
HETATM   18  O   UNK N   1      43.986  22.543   5.644  0.00  0.00    -0.646 OA
BRANCH  17  19
HETATM   19  O   UNK N   1      45.598  22.241   4.150  0.00  0.00    -0.772 OA
HETATM   20  H   UNK N   1      45.874  21.746   3.404  0.00  0.00     0.167 HD
ENDBRANCH  17  19
ENDBRANCH   9  17
TORSDOF 6
ENDMDL
MODEL 5
REMARK VINA RESULT:      -5.6      9.163     11.129
REMARK  6 active torsions:
REMARK  status: ('A' for Active; 'I' for Inactive)
REMARK    1  A    between atoms: C_9  and  C_11 
REMARK    2  A    between atoms: C_10  and  O_13 
REMARK    3  A    between atoms: C_11  and  O_17 
REMARK    4  A    between atoms: O_13  and  C_14 
REMARK    5  A    between atoms: C_14  and  C_15 
REMARK    6  A    between atoms: C_15  and  O_18 
ROOT
HETATM    1  C   UNK N   1      32.082  17.142   5.167  0.00  0.00     0.018 A 
HETATM    2  C   UNK N   1      31.892  16.783   3.820  0.00  0.00     0.018 A 
HETATM    3  C   UNK N   1      30.602  16.461   3.350  0.00  0.00     0.089 A 
HETATM    4  N   UNK N   1      29.530  16.490   4.193  0.00  0.00    -0.360 N 
ATOM      5  HN  UNK N   1      28.597  16.257   3.854  1.00  0.00     0.166 HD
HETATM    6  C   UNK N   1      29.724  16.833   5.489  0.00  0.00     0.088 A 
HETATM    7  C   UNK N   1      30.970  17.165   6.010  0.00  0.00     0.033 A 
HETATM    8  S   UNK N   1      28.602  16.939   6.697  0.00  0.00    -0.062 SA
HETATM    9  C   UNK N   1      29.617  17.403   7.936  0.00  0.00     0.114 A 
HETATM   10  C   UNK N   1      30.919  17.495   7.406  0.00  0.00     0.106 A 
ENDROOT
BRANCH  10  11
HETATM   11  O   UNK N   1      31.955  17.877   8.185  0.00  0.00    -0.338 OA
BRANCH  11  12
HETATM   12  C   UNK N   1      33.012  17.089   8.573  0.00  0.00     0.285 C 
BRANCH  12  13
HETATM   13  C   UNK N   1      34.293  17.837   8.344  0.00  0.00     0.164 C 
HETATM   14  O   UNK N   1      34.570  18.273   7.236  0.00  0.00    -0.648 OA
BRANCH  13  15
HETATM   15  O   UNK N   1      35.155  18.017   9.361  0.00  0.00    -0.775 OA
HETATM   16  H   UNK N   1      35.554  17.279   9.778  0.00  0.00     0.167 HD
ENDBRANCH  13  15
ENDBRANCH  12  13
ENDBRANCH  11  12
ENDBRANCH  10  11
BRANCH   9  17
HETATM   17  C   UNK N   1      29.217  17.680   9.328  0.00  0.00     0.186 C 
HETATM   18  O   UNK N   1      28.183  17.217   9.777  0.00  0.00    -0.646 OA
BRANCH  17  19
HETATM   19  O   UNK N   1      29.998  18.447  10.112  0.00  0.00    -0.772 OA
HETATM   20  H   UNK N   1      30.929  18.440  10.001  0.00  0.00     0.167 HD
ENDBRANCH  17  19
ENDBRANCH   9  17
TORSDOF 6
ENDMDL
MODEL 6
REMARK VINA RESULT:      -5.6      9.288     11.429
REMARK  6 active torsions:
REMARK  status: ('A' for Active; 'I' for Inactive)
REMARK    1  A    between atoms: C_9  and  C_11 
REMARK    2  A    between atoms: C_10  and  O_13 
REMARK    3  A    between atoms: C_11  and  O_17 
REMARK    4  A    between atoms: O_13  and  C_14 
REMARK    5  A    between atoms: C_14  and  C_15 
REMARK    6  A    between atoms: C_15  and  O_18 
ROOT
HETATM    1  C   UNK N   1      30.523  17.917   9.063  0.00  0.00     0.018 A 
HETATM    2  C   UNK N   1      29.351  18.314   9.730  0.00  0.00     0.018 A 
HETATM    3  C   UNK N   1      28.111  18.288   9.057  0.00  0.00     0.089 A 
HETATM    4  N   UNK N   1      28.039  17.881   7.756  0.00  0.00    -0.360 N 
ATOM      5  HN  UNK N   1      27.143  17.861   7.269  1.00  0.00     0.166 HD
HETATM    6  C   UNK N   1      29.174  17.505   7.122  0.00  0.00     0.088 A 
HETATM    7  C   UNK N   1      30.424  17.506   7.733  0.00  0.00     0.033 A 
HETATM    8  S   UNK N   1      29.350  16.981   5.564  0.00  0.00    -0.062 SA
HETATM    9  C   UNK N   1      30.999  16.731   5.573  0.00  0.00     0.114 A 
HETATM   10  C   UNK N   1      31.471  17.062   6.858  0.00  0.00     0.106 A 
ENDROOT
BRANCH  10  11
HETATM   11  O   UNK N   1      32.781  16.935   7.165  0.00  0.00    -0.338 OA
BRANCH  11  12
HETATM   12  C   UNK N   1      33.752  17.891   6.995  0.00  0.00     0.285 C 
BRANCH  12  13
HETATM   13  C   UNK N   1      34.377  18.200   8.324  0.00  0.00     0.164 C 
HETATM   14  O   UNK N   1      35.227  19.074   8.425  0.00  0.00    -0.648 OA
BRANCH  13  15
HETATM   15  O   UNK N   1      34.015  17.500   9.414  0.00  0.00    -0.775 OA
HETATM   16  H   UNK N   1      34.541  16.783   9.711  0.00  0.00     0.167 HD
ENDBRANCH  13  15
ENDBRANCH  12  13
ENDBRANCH  11  12
ENDBRANCH  10  11
BRANCH   9  17
HETATM   17  C   UNK N   1      31.808  16.237   4.443  0.00  0.00     0.186 C 
HETATM   18  O   UNK N   1      31.606  16.648   3.313  0.00  0.00    -0.646 OA
BRANCH  17  19
HETATM   19  O   UNK N   1      32.779  15.329   4.658  0.00  0.00    -0.772 OA
HETATM   20  H   UNK N   1      33.360  15.425   5.386  0.00  0.00     0.167 HD
ENDBRANCH  17  19
ENDBRANCH   9  17
TORSDOF 6
ENDMDL
MODEL 7
REMARK VINA RESULT:      -5.5     10.501     12.101
REMARK  6 active torsions:
REMARK  status: ('A' for Active; 'I' for Inactive)
REMARK    1  A    between atoms: C_9  and  C_11 
REMARK    2  A    between atoms: C_10  and  O_13 
REMARK    3  A    between atoms: C_11  and  O_17 
REMARK    4  A    between atoms: O_13  and  C_14 
REMARK    5  A    between atoms: C_14  and  C_15 
REMARK    6  A    between atoms: C_15  and  O_18 
ROOT
HETATM    1  C   UNK N   1      28.531  21.921  -7.173  0.00  0.00     0.018 A 
HETATM    2  C   UNK N   1      28.672  20.826  -8.044  0.00  0.00     0.018 A 
HETATM    3  C   UNK N   1      29.584  19.794  -7.740  0.00  0.00     0.089 A 
HETATM    4  N   UNK N   1      30.338  19.849  -6.604  0.00  0.00    -0.360 N 
ATOM      5  HN  UNK N   1      30.997  19.103  -6.384  1.00  0.00     0.166 HD
HETATM    6  C   UNK N   1      30.198  20.910  -5.775  0.00  0.00     0.088 A 
HETATM    7  C   UNK N   1      29.313  21.955  -6.018  0.00  0.00     0.033 A 
HETATM    8  S   UNK N   1      30.989  21.208  -4.355  0.00  0.00    -0.062 SA
HETATM    9  C   UNK N   1      30.268  22.663  -3.972  0.00  0.00     0.114 A 
HETATM   10  C   UNK N   1      29.344  22.959  -4.992  0.00  0.00     0.106 A 
ENDROOT
BRANCH  10  11
HETATM   11  O   UNK N   1      28.589  24.079  -4.936  0.00  0.00    -0.338 OA
BRANCH  11  12
HETATM   12  C   UNK N   1      27.224  24.131  -4.792  0.00  0.00     0.285 C 
BRANCH  12  13
HETATM   13  C   UNK N   1      26.892  24.549  -3.389  0.00  0.00     0.164 C 
HETATM   14  O   UNK N   1      27.048  23.775  -2.456  0.00  0.00    -0.648 OA
BRANCH  13  15
HETATM   15  O   UNK N   1      26.404  25.781  -3.155  0.00  0.00    -0.775 OA
HETATM   16  H   UNK N   1      25.588  25.887  -2.705  0.00  0.00     0.167 HD
ENDBRANCH  13  15
ENDBRANCH  12  13
ENDBRANCH  11  12
ENDBRANCH  10  11
BRANCH   9  17
HETATM   17  C   UNK N   1      30.541  23.478  -2.774  0.00  0.00     0.186 C 
HETATM   18  O   UNK N   1      30.699  22.946  -1.689  0.00  0.00    -0.646 OA
BRANCH  17  19
HETATM   19  O   UNK N   1      30.619  24.818  -2.876  0.00  0.00    -0.772 OA
HETATM   20  H   UNK N   1      31.455  25.241  -2.893  0.00  0.00     0.167 HD
ENDBRANCH  17  19
ENDBRANCH   9  17
TORSDOF 6
ENDMDL
MODEL 8
REMARK VINA RESULT:      -5.5     11.820     13.462
REMARK  6 active torsions:
REMARK  status: ('A' for Active; 'I' for Inactive)
REMARK    1  A    between atoms: C_9  and  C_11 
REMARK    2  A    between atoms: C_10  and  O_13 
REMARK    3  A    between atoms: C_11  and  O_17 
REMARK    4  A    between atoms: O_13  and  C_14 
REMARK    5  A    between atoms: C_14  and  C_15 
REMARK    6  A    between atoms: C_15  and  O_18 
ROOT
HETATM    1  C   UNK N   1      29.872  20.182  -7.024  0.00  0.00     0.018 A 
HETATM    2  C   UNK N   1      29.011  20.506  -8.088  0.00  0.00     0.018 A 
HETATM    3  C   UNK N   1      28.252  21.694  -8.046  0.00  0.00     0.089 A 
HETATM    4  N   UNK N   1      28.342  22.535  -6.975  0.00  0.00    -0.360 N 
ATOM      5  HN  UNK N   1      27.794  23.395  -6.944  1.00  0.00     0.166 HD
HETATM    6  C   UNK N   1      29.171  22.212  -5.954  0.00  0.00     0.088 A 
HETATM    7  C   UNK N   1      29.947  21.058  -5.940  0.00  0.00     0.033 A 
HETATM    8  S   UNK N   1      29.452  23.053  -4.560  0.00  0.00    -0.062 SA
HETATM    9  C   UNK N   1      30.558  22.016  -3.865  0.00  0.00     0.114 A 
HETATM   10  C   UNK N   1      30.745  20.939  -4.753  0.00  0.00     0.106 A 
ENDROOT
BRANCH  10  11
HETATM   11  O   UNK N   1      31.612  19.945  -4.459  0.00  0.00    -0.338 OA
BRANCH  11  12
HETATM   12  C   UNK N   1      32.788  19.673  -5.115  0.00  0.00     0.285 C 
BRANCH  12  13
HETATM   13  C   UNK N   1      33.807  19.197  -4.120  0.00  0.00     0.164 C 
HETATM   14  O   UNK N   1      34.684  19.948  -3.719  0.00  0.00    -0.648 OA
BRANCH  13  15
HETATM   15  O   UNK N   1      33.769  17.927  -3.678  0.00  0.00    -0.775 OA
HETATM   16  H   UNK N   1      34.457  17.595  -3.135  0.00  0.00     0.167 HD
ENDBRANCH  13  15
ENDBRANCH  12  13
ENDBRANCH  11  12
ENDBRANCH  10  11
BRANCH   9  17
HETATM   17  C   UNK N   1      31.227  22.205  -2.565  0.00  0.00     0.186 C 
HETATM   18  O   UNK N   1      30.787  23.002  -1.754  0.00  0.00    -0.646 OA
BRANCH  17  19
HETATM   19  O   UNK N   1      32.329  21.491  -2.266  0.00  0.00    -0.772 OA
HETATM   20  H   UNK N   1      32.372  20.580  -2.478  0.00  0.00     0.167 HD
ENDBRANCH  17  19
ENDBRANCH   9  17
TORSDOF 6
ENDMDL
MODEL 9
REMARK VINA RESULT:      -5.3     14.083     15.494
REMARK  6 active torsions:
REMARK  status: ('A' for Active; 'I' for Inactive)
REMARK    1  A    between atoms: C_9  and  C_11 
REMARK    2  A    between atoms: C_10  and  O_13 
REMARK    3  A    between atoms: C_11  and  O_17 
REMARK    4  A    between atoms: O_13  and  C_14 
REMARK    5  A    between atoms: C_14  and  C_15 
REMARK    6  A    between atoms: C_15  and  O_18 
ROOT
HETATM    1  C   UNK N   1      35.070  14.829  11.411  0.00  0.00     0.018 A 
HETATM    2  C   UNK N   1      35.642  14.174  12.516  0.00  0.00     0.018 A 
HETATM    3  C   UNK N   1      36.692  13.252  12.325  0.00  0.00     0.089 A 
HETATM    4  N   UNK N   1      37.159  12.985  11.071  0.00  0.00    -0.360 N 
ATOM      5  HN  UNK N   1      37.919  12.319  10.932  1.00  0.00     0.166 HD
HETATM    6  C   UNK N   1      36.599  13.618  10.014  0.00  0.00     0.088 A 
HETATM    7  C   UNK N   1      35.564  14.539  10.139  0.00  0.00     0.033 A 
HETATM    8  S   UNK N   1      36.979  13.467   8.412  0.00  0.00    -0.062 SA
HETATM    9  C   UNK N   1      35.868  14.544   7.792  0.00  0.00     0.114 A 
HETATM   10  C   UNK N   1      35.143  15.076   8.876  0.00  0.00     0.106 A 
ENDROOT
BRANCH  10  11
HETATM   11  O   UNK N   1      34.179  16.002   8.673  0.00  0.00    -0.338 OA
BRANCH  11  12
HETATM   12  C   UNK N   1      34.154  17.274   9.192  0.00  0.00     0.285 C 
BRANCH  12  13
HETATM   13  C   UNK N   1      34.655  18.238   8.155  0.00  0.00     0.164 C 
HETATM   14  O   UNK N   1      35.275  19.239   8.484  0.00  0.00    -0.648 OA
BRANCH  13  15
HETATM   15  O   UNK N   1      34.407  18.010   6.853  0.00  0.00    -0.775 OA
HETATM   16  H   UNK N   1      33.591  18.274   6.475  0.00  0.00     0.167 HD
ENDBRANCH  13  15
ENDBRANCH  12  13
ENDBRANCH  11  12
ENDBRANCH  10  11
BRANCH   9  17
HETATM   17  C   UNK N   1      35.691  14.886   6.369  0.00  0.00     0.186 C 
HETATM   18  O   UNK N   1      36.647  14.890   5.612  0.00  0.00    -0.646 OA
BRANCH  17  19
HETATM   19  O   UNK N   1      34.468  15.194   5.898  0.00  0.00    -0.772 OA
HETATM   20  H   UNK N   1      34.219  14.937   5.031  0.00  0.00     0.167 HD
ENDBRANCH  17  19
ENDBRANCH   9  17
TORSDOF 6
ENDMDL
