REMARK  6 active torsions:
REMARK  status: ('A' for Active; 'I' for Inactive)
REMARK    1  A    between atoms: C_9  and  C_11 
REMARK    2  A    between atoms: C_10  and  O_13 
REMARK    3  A    between atoms: C_11  and  O_17 
REMARK    4  A    between atoms: O_13  and  C_14 
REMARK    5  A    between atoms: C_14  and  C_15 
REMARK    6  A    between atoms: C_15  and  O_18 
ROOT
HETATM    1  C   UNK N   1       2.147   0.561   0.104  0.00  0.00     0.018 A 
HETATM    2  C   UNK N   1       3.461   0.067   0.021  0.00  0.00     0.018 A 
HETATM    3  C   UNK N   1       3.688  -1.319  -0.111  0.00  0.00     0.089 A 
HETATM    4  N   UNK N   1       2.639  -2.191  -0.156  0.00  0.00    -0.360 N 
ATOM      5  HN  UNK N   1       2.802  -3.193  -0.252  1.00  0.00     0.166 HD
HETATM    6  C   UNK N   1       1.378  -1.705  -0.071  0.00  0.00     0.088 A 
HETATM    7  C   UNK N   1       1.091  -0.350   0.056  0.00  0.00     0.033 A 
HETATM    8  S   UNK N   1      -0.045  -2.545  -0.098  0.00  0.00    -0.062 SA
HETATM    9  C   UNK N   1      -1.094  -1.257   0.051  0.00  0.00     0.114 A 
HETATM   10  C   UNK N   1      -0.318  -0.084   0.123  0.00  0.00     0.106 A 
ENDROOT
BRANCH  10  11
HETATM   11  O   UNK N   1      -0.907   1.128   0.226  0.00  0.00    -0.338 OA
BRANCH  11  12
HETATM   12  C   UNK N   1      -0.277   2.346   0.145  0.00  0.00     0.285 C 
BRANCH  12  13
HETATM   13  C   UNK N   1      -1.302   3.414  -0.107  0.00  0.00     0.164 C 
HETATM   14  O   UNK N   1      -2.486   3.128  -0.211  0.00  0.00    -0.648 OA
BRANCH  13  15
HETATM   15  O   UNK N   1      -0.916   4.696  -0.237  0.00  0.00    -0.775 OA
HETATM   16  H   UNK N   1      -0.008   4.909  -0.327  0.00  0.00     0.167 HD
ENDBRANCH  13  15
ENDBRANCH  12  13
ENDBRANCH  11  12
ENDBRANCH  10  11
BRANCH   9  17
HETATM   17  C   UNK N   1      -2.566  -1.336   0.084  0.00  0.00     0.186 C 
HETATM   18  O   UNK N   1      -3.236  -0.325   0.204  0.00  0.00    -0.646 OA
BRANCH  17  19
HETATM   19  O   UNK N   1      -3.178  -2.531  -0.022  0.00  0.00    -0.772 OA
HETATM   20  H   UNK N   1      -4.111  -2.577  -0.096  0.00  0.00     0.167 HD
ENDBRANCH  17  19
ENDBRANCH   9  17
TORSDOF 6
