MODEL 1
REMARK VINA RESULT:      -6.1      0.000      0.000
REMARK  13 active torsions:
REMARK  status: ('A' for Active; 'I' for Inactive)
REMARK    1  A    between atoms: C_1  and  C_2 
REMARK    2  A    between atoms: C_1  and  C_3 
REMARK    3  A    between atoms: C_2  and  C_10 
REMARK    4  A    between atoms: C_2  and  N_12 
REMARK    5  A    between atoms: C_10  and  C_11 
REMARK    6  A    between atoms: C_11  and  C_27 
REMARK       I    between atoms: N_12  and  C_13 
REMARK    7  A    between atoms: C_13  and  C_14 
REMARK    8  A    between atoms: C_14  and  C_15 
REMARK    9  A    between atoms: C_14  and  N_18 
REMARK       I    between atoms: N_18  and  C_19 
REMARK   10  A    between atoms: C_19  and  C_20 
REMARK   11  A    between atoms: C_20  and  C_21 
REMARK   12  A    between atoms: C_21  and  C_22 
REMARK   13  A    between atoms: C_27  and  N_28 
REMARK       I    between atoms: N_28  and  C_29 
REMARK       I    between atoms: C_29  and  N_30 
REMARK       I    between atoms: C_29  and  N_31 
ROOT
HETATM    1  C   UNK N   1      32.918  15.862   7.301  0.00  0.00     0.161 C 
ENDROOT
BRANCH   1   2
HETATM    2  C   UNK N   1      34.038  15.055   7.932  0.00  0.00     0.205 C 
HETATM    3  O   UNK N   1      34.532  14.152   7.271  0.00  0.00    -0.288 OA
BRANCH   2   4
HETATM    4  C   UNK N   1      34.539  15.236   9.313  0.00  0.00     0.122 A 
HETATM    5  S   UNK N   1      34.576  14.148  10.550  0.00  0.00    -0.079 SA
HETATM    6  C   UNK N   1      35.361  15.082  11.673  0.00  0.00     0.069 A 
HETATM    7  C   UNK N   1      35.594  16.308  11.026  0.00  0.00     0.096 A 
HETATM    8  N   UNK N   1      35.138  16.381   9.727  0.00  0.00    -0.357 N 
ATOM      9  HN  UNK N   1      35.240  17.208   9.139  1.00  0.00     0.166 HD
ENDBRANCH   2   4
ENDBRANCH   1   2
BRANCH   1  10
HETATM   10  C   UNK N   1      31.857  16.369   8.293  0.00  0.00     0.035 C 
BRANCH  10  11
HETATM   11  C   UNK N   1      31.835  17.885   8.466  0.00  0.00     0.022 C 
BRANCH  11  12
HETATM   12  C   UNK N   1      30.453  18.329   8.908  0.00  0.00     0.117 C 
BRANCH  12  13
HETATM   13  N   UNK N   1      29.465  17.950   7.909  0.00  0.00    -0.387 N 
HETATM   14  C   UNK N   1      28.192  17.791   8.596  0.00  0.00     0.270 C 
HETATM   15  N   UNK N   1      27.349  16.875   7.849  0.00  0.00    -0.396 N 
HETATM   16  N   UNK N   1      27.527  19.077   8.703  0.00  0.00    -0.396 N 
HETATM   17  H   UNK N   1      26.329  16.874   7.813  0.00  0.00     0.153 HD
HETATM   18  H   UNK N   1      27.825  16.158   7.304  0.00  0.00     0.153 HD
HETATM   19  H   UNK N   1      27.875  19.975   8.368  0.00  0.00     0.153 HD
HETATM   20  H   UNK N   1      26.616  19.084   9.162  0.00  0.00     0.153 HD
HETATM   21  H   UNK N   1      29.633  17.822   6.911  0.00  0.00     0.157 HD
ENDBRANCH  12  13
ENDBRANCH  11  12
ENDBRANCH  10  11
ENDBRANCH   1  10
BRANCH   1  22
HETATM   22  N   UNK N   1      33.410  16.935   6.450  0.00  0.00    -0.347 N 
HETATM   23  C   UNK N   1      32.848  17.281   5.255  0.00  0.00     0.241 C 
HETATM   24  O   UNK N   1      33.249  18.290   4.690  0.00  0.00    -0.271 OA
HETATM   25  H   UNK N   1      34.197  17.443   6.754  0.00  0.00     0.163 HD
BRANCH  23  26
HETATM   26  C   UNK N   1      31.722  16.464   4.615  0.00  0.00     0.180 C 
BRANCH  26  27
HETATM   27  C   UNK N   1      32.226  15.610   3.422  0.00  0.00     0.009 C 
HETATM   28  C   UNK N   1      33.623  15.056   3.639  0.00  0.00     0.012 C 
HETATM   29  C   UNK N   1      31.283  14.519   2.942  0.00  0.00     0.012 C 
ENDBRANCH  26  27
BRANCH  26  30
HETATM   30  N   UNK N   1      30.549  17.277   4.307  0.00  0.00    -0.347 N 
HETATM   31  C   UNK N   1      29.269  17.080   4.719  0.00  0.00     0.218 C 
HETATM   32  O   UNK N   1      28.983  16.175   5.484  0.00  0.00    -0.274 OA
HETATM   33  H   UNK N   1      30.703  18.061   3.733  0.00  0.00     0.163 HD
BRANCH  31  34
HETATM   34  C   UNK N   1      28.179  17.937   4.162  0.00  0.00     0.103 C 
BRANCH  34  35
HETATM   35  C   UNK N   1      28.236  19.367   4.675  0.00  0.00     0.013 C 
BRANCH  35  36
HETATM   36  C   UNK N   1      26.823  19.925   4.759  0.00  0.00    -0.022 C 
HETATM   37  C   UNK N   1      26.784  21.099   5.714  0.00  0.00     0.009 C 
HETATM   38  C   UNK N   1      26.352  20.379   3.390  0.00  0.00     0.009 C 
ENDBRANCH  35  36
ENDBRANCH  34  35
ENDBRANCH  31  34
ENDBRANCH  26  30
ENDBRANCH  23  26
ENDBRANCH   1  22
TORSDOF 13
ENDMDL
MODEL 2
REMARK VINA RESULT:      -6.0      8.775     12.892
REMARK  13 active torsions:
REMARK  status: ('A' for Active; 'I' for Inactive)
REMARK    1  A    between atoms: C_1  and  C_2 
REMARK    2  A    between atoms: C_1  and  C_3 
REMARK    3  A    between atoms: C_2  and  C_10 
REMARK    4  A    between atoms: C_2  and  N_12 
REMARK    5  A    between atoms: C_10  and  C_11 
REMARK    6  A    between atoms: C_11  and  C_27 
REMARK       I    between atoms: N_12  and  C_13 
REMARK    7  A    between atoms: C_13  and  C_14 
REMARK    8  A    between atoms: C_14  and  C_15 
REMARK    9  A    between atoms: C_14  and  N_18 
REMARK       I    between atoms: N_18  and  C_19 
REMARK   10  A    between atoms: C_19  and  C_20 
REMARK   11  A    between atoms: C_20  and  C_21 
REMARK   12  A    between atoms: C_21  and  C_22 
REMARK   13  A    between atoms: C_27  and  N_28 
REMARK       I    between atoms: N_28  and  C_29 
REMARK       I    between atoms: C_29  and  N_30 
REMARK       I    between atoms: C_29  and  N_31 
ROOT
HETATM    1  C   UNK N   1      20.394  16.003   2.759  0.00  0.00     0.161 C 
ENDROOT
BRANCH   1   2
HETATM    2  C   UNK N   1      20.528  15.197   1.478  0.00  0.00     0.205 C 
HETATM    3  O   UNK N   1      21.579  15.284   0.857  0.00  0.00    -0.288 OA
BRANCH   2   4
HETATM    4  C   UNK N   1      19.459  14.362   0.888  0.00  0.00     0.122 A 
HETATM    5  S   UNK N   1      19.263  12.727   0.967  0.00  0.00    -0.079 SA
HETATM    6  C   UNK N   1      17.813  12.617   0.169  0.00  0.00     0.069 A 
HETATM    7  C   UNK N   1      17.485  13.941  -0.171  0.00  0.00     0.096 A 
HETATM    8  N   UNK N   1      18.397  14.893   0.231  0.00  0.00    -0.357 N 
ATOM      9  HN  UNK N   1      18.287  15.891   0.052  1.00  0.00     0.166 HD
ENDBRANCH   2   4
ENDBRANCH   1   2
BRANCH   1  10
HETATM   10  C   UNK N   1      20.605  17.517   2.587  0.00  0.00     0.035 C 
BRANCH  10  11
HETATM   11  C   UNK N   1      20.825  18.271   3.894  0.00  0.00     0.022 C 
BRANCH  11  12
HETATM   12  C   UNK N   1      22.294  18.621   4.042  0.00  0.00     0.117 C 
BRANCH  12  13
HETATM   13  N   UNK N   1      22.847  17.964   5.217  0.00  0.00    -0.387 N 
HETATM   14  C   UNK N   1      24.263  17.743   4.965  0.00  0.00     0.270 C 
HETATM   15  N   UNK N   1      24.728  16.619   5.757  0.00  0.00    -0.396 N 
HETATM   16  N   UNK N   1      25.017  18.930   5.328  0.00  0.00    -0.396 N 
HETATM   17  H   UNK N   1      25.669  16.476   6.124  0.00  0.00     0.153 HD
HETATM   18  H   UNK N   1      24.040  15.897   5.971  0.00  0.00     0.153 HD
HETATM   19  H   UNK N   1      24.642  19.804   5.696  0.00  0.00     0.153 HD
HETATM   20  H   UNK N   1      26.028  18.886   5.200  0.00  0.00     0.153 HD
HETATM   21  H   UNK N   1      22.337  17.707   6.062  0.00  0.00     0.157 HD
ENDBRANCH  12  13
ENDBRANCH  11  12
ENDBRANCH  10  11
ENDBRANCH   1  10
BRANCH   1  22
HETATM   22  N   UNK N   1      19.163  15.712   3.477  0.00  0.00    -0.347 N 
HETATM   23  C   UNK N   1      19.116  15.083   4.689  0.00  0.00     0.241 C 
HETATM   24  O   UNK N   1      18.043  15.020   5.273  0.00  0.00    -0.271 OA
HETATM   25  H   UNK N   1      18.311  15.986   3.066  0.00  0.00     0.163 HD
BRANCH  23  26
HETATM   26  C   UNK N   1      20.361  14.481   5.345  0.00  0.00     0.180 C 
BRANCH  26  27
HETATM   27  C   UNK N   1      20.659  13.049   4.826  0.00  0.00     0.009 C 
HETATM   28  C   UNK N   1      22.010  12.936   4.144  0.00  0.00     0.012 C 
HETATM   29  C   UNK N   1      20.469  11.926   5.832  0.00  0.00     0.012 C 
ENDBRANCH  26  27
BRANCH  26  30
HETATM   30  N   UNK N   1      20.332  14.588   6.801  0.00  0.00    -0.347 N 
HETATM   31  C   UNK N   1      21.280  15.123   7.614  0.00  0.00     0.218 C 
HETATM   32  O   UNK N   1      22.281  15.649   7.159  0.00  0.00    -0.274 OA
HETATM   33  H   UNK N   1      19.531  14.231   7.246  0.00  0.00     0.163 HD
BRANCH  31  34
HETATM   34  C   UNK N   1      21.133  14.993   9.095  0.00  0.00     0.103 C 
BRANCH  34  35
HETATM   35  C   UNK N   1      20.969  13.550   9.544  0.00  0.00     0.013 C 
BRANCH  35  36
HETATM   36  C   UNK N   1      22.337  12.970   9.876  0.00  0.00    -0.022 C 
HETATM   37  C   UNK N   1      22.281  12.230  11.195  0.00  0.00     0.009 C 
HETATM   38  C   UNK N   1      22.785  12.015   8.785  0.00  0.00     0.009 C 
ENDBRANCH  35  36
ENDBRANCH  34  35
ENDBRANCH  31  34
ENDBRANCH  26  30
ENDBRANCH  23  26
ENDBRANCH   1  22
TORSDOF 13
ENDMDL
MODEL 3
REMARK VINA RESULT:      -6.0      2.698      5.241
REMARK  13 active torsions:
REMARK  status: ('A' for Active; 'I' for Inactive)
REMARK    1  A    between atoms: C_1  and  C_2 
REMARK    2  A    between atoms: C_1  and  C_3 
REMARK    3  A    between atoms: C_2  and  C_10 
REMARK    4  A    between atoms: C_2  and  N_12 
REMARK    5  A    between atoms: C_10  and  C_11 
REMARK    6  A    between atoms: C_11  and  C_27 
REMARK       I    between atoms: N_12  and  C_13 
REMARK    7  A    between atoms: C_13  and  C_14 
REMARK    8  A    between atoms: C_14  and  C_15 
REMARK    9  A    between atoms: C_14  and  N_18 
REMARK       I    between atoms: N_18  and  C_19 
REMARK   10  A    between atoms: C_19  and  C_20 
REMARK   11  A    between atoms: C_20  and  C_21 
REMARK   12  A    between atoms: C_21  and  C_22 
REMARK   13  A    between atoms: C_27  and  N_28 
REMARK       I    between atoms: N_28  and  C_29 
REMARK       I    between atoms: C_29  and  N_30 
REMARK       I    between atoms: C_29  and  N_31 
ROOT
HETATM    1  C   UNK N   1      34.180  15.164   8.825  0.00  0.00     0.161 C 
ENDROOT
BRANCH   1   2
HETATM    2  C   UNK N   1      34.778  13.903   8.227  0.00  0.00     0.205 C 
HETATM    3  O   UNK N   1      34.236  13.429   7.238  0.00  0.00    -0.288 OA
BRANCH   2   4
HETATM    4  C   UNK N   1      35.933  13.166   8.787  0.00  0.00     0.122 A 
HETATM    5  S   UNK N   1      37.536  13.542   8.708  0.00  0.00    -0.079 SA
HETATM    6  C   UNK N   1      38.121  12.307   9.647  0.00  0.00     0.069 A 
HETATM    7  C   UNK N   1      36.986  11.572  10.030  0.00  0.00     0.096 A 
HETATM    8  N   UNK N   1      35.786  12.055   9.552  0.00  0.00    -0.357 N 
ATOM      9  HN  UNK N   1      34.884  11.622   9.751  1.00  0.00     0.166 HD
ENDBRANCH   2   4
ENDBRANCH   1   2
BRANCH   1  10
HETATM   10  C   UNK N   1      34.079  15.159  10.360  0.00  0.00     0.035 C 
BRANCH  10  11
HETATM   11  C   UNK N   1      35.082  16.073  11.057  0.00  0.00     0.022 C 
BRANCH  11  12
HETATM   12  C   UNK N   1      36.109  15.237  11.796  0.00  0.00     0.117 C 
BRANCH  12  13
HETATM   13  N   UNK N   1      35.445  14.193  12.562  0.00  0.00    -0.387 N 
HETATM   14  C   UNK N   1      36.480  13.414  13.223  0.00  0.00     0.270 C 
HETATM   15  N   UNK N   1      35.987  12.074  13.484  0.00  0.00    -0.396 N 
HETATM   16  N   UNK N   1      36.842  14.045  14.480  0.00  0.00    -0.396 N 
HETATM   17  H   UNK N   1      36.264  11.458  14.249  0.00  0.00     0.153 HD
HETATM   18  H   UNK N   1      35.290  11.710  12.834  0.00  0.00     0.153 HD
HETATM   19  H   UNK N   1      36.457  14.907  14.865  0.00  0.00     0.153 HD
HETATM   20  H   UNK N   1      37.558  13.577  15.037  0.00  0.00     0.153 HD
HETATM   21  H   UNK N   1      34.439  14.038  12.624  0.00  0.00     0.157 HD
ENDBRANCH  12  13
ENDBRANCH  11  12
ENDBRANCH  10  11
ENDBRANCH   1  10
BRANCH   1  22
HETATM   22  N   UNK N   1      34.821  16.376   8.335  0.00  0.00    -0.347 N 
HETATM   23  C   UNK N   1      34.173  17.354   7.637  0.00  0.00     0.241 C 
HETATM   24  O   UNK N   1      34.769  18.395   7.400  0.00  0.00    -0.271 OA
HETATM   25  H   UNK N   1      35.780  16.498   8.520  0.00  0.00     0.163 HD
BRANCH  23  26
HETATM   26  C   UNK N   1      32.725  17.197   7.164  0.00  0.00     0.180 C 
BRANCH  26  27
HETATM   27  C   UNK N   1      32.597  17.326   5.623  0.00  0.00     0.009 C 
HETATM   28  C   UNK N   1      33.491  16.356   4.872  0.00  0.00     0.012 C 
HETATM   29  C   UNK N   1      31.182  17.292   5.070  0.00  0.00     0.012 C 
ENDBRANCH  26  27
BRANCH  26  30
HETATM   30  N   UNK N   1      31.800  18.047   7.908  0.00  0.00    -0.347 N 
HETATM   31  C   UNK N   1      30.868  17.664   8.820  0.00  0.00     0.218 C 
HETATM   32  O   UNK N   1      30.759  16.499   9.162  0.00  0.00    -0.274 OA
HETATM   33  H   UNK N   1      31.858  19.013   7.727  0.00  0.00     0.163 HD
BRANCH  31  34
HETATM   34  C   UNK N   1      29.907  18.675   9.354  0.00  0.00     0.103 C 
BRANCH  34  35
HETATM   35  C   UNK N   1      28.483  18.443   8.873  0.00  0.00     0.013 C 
BRANCH  35  36
HETATM   36  C   UNK N   1      28.446  18.538   7.355  0.00  0.00    -0.022 C 
HETATM   37  C   UNK N   1      27.753  17.324   6.775  0.00  0.00     0.009 C 
HETATM   38  C   UNK N   1      27.706  19.790   6.922  0.00  0.00     0.009 C 
ENDBRANCH  35  36
ENDBRANCH  34  35
ENDBRANCH  31  34
ENDBRANCH  26  30
ENDBRANCH  23  26
ENDBRANCH   1  22
TORSDOF 13
ENDMDL
MODEL 4
REMARK VINA RESULT:      -6.0      4.512      8.573
REMARK  13 active torsions:
REMARK  status: ('A' for Active; 'I' for Inactive)
REMARK    1  A    between atoms: C_1  and  C_2 
REMARK    2  A    between atoms: C_1  and  C_3 
REMARK    3  A    between atoms: C_2  and  C_10 
REMARK    4  A    between atoms: C_2  and  N_12 
REMARK    5  A    between atoms: C_10  and  C_11 
REMARK    6  A    between atoms: C_11  and  C_27 
REMARK       I    between atoms: N_12  and  C_13 
REMARK    7  A    between atoms: C_13  and  C_14 
REMARK    8  A    between atoms: C_14  and  C_15 
REMARK    9  A    between atoms: C_14  and  N_18 
REMARK       I    between atoms: N_18  and  C_19 
REMARK   10  A    between atoms: C_19  and  C_20 
REMARK   11  A    between atoms: C_20  and  C_21 
REMARK   12  A    between atoms: C_21  and  C_22 
REMARK   13  A    between atoms: C_27  and  N_28 
REMARK       I    between atoms: N_28  and  C_29 
REMARK       I    between atoms: C_29  and  N_30 
REMARK       I    between atoms: C_29  and  N_31 
ROOT
HETATM    1  C   UNK N   1      25.697  16.316   5.611  0.00  0.00     0.161 C 
ENDROOT
BRANCH   1   2
HETATM    2  C   UNK N   1      24.437  16.300   4.764  0.00  0.00     0.205 C 
HETATM    3  O   UNK N   1      24.396  15.523   3.819  0.00  0.00    -0.288 OA
BRANCH   2   4
HETATM    4  C   UNK N   1      23.277  17.199   4.954  0.00  0.00     0.122 A 
HETATM    5  S   UNK N   1      22.468  18.094   3.831  0.00  0.00    -0.079 SA
HETATM    6  C   UNK N   1      21.280  18.702   4.816  0.00  0.00     0.069 A 
HETATM    7  C   UNK N   1      21.552  18.167   6.086  0.00  0.00     0.096 A 
HETATM    8  N   UNK N   1      22.653  17.340   6.151  0.00  0.00    -0.357 N 
ATOM      9  HN  UNK N   1      22.966  16.883   7.007  1.00  0.00     0.166 HD
ENDBRANCH   2   4
ENDBRANCH   1   2
BRANCH   1  10
HETATM   10  C   UNK N   1      25.875  15.084   6.515  0.00  0.00     0.035 C 
BRANCH  10  11
HETATM   11  C   UNK N   1      24.569  14.502   7.045  0.00  0.00     0.022 C 
BRANCH  11  12
HETATM   12  C   UNK N   1      24.864  13.308   7.934  0.00  0.00     0.117 C 
BRANCH  12  13
HETATM   13  N   UNK N   1      24.125  13.422   9.183  0.00  0.00    -0.387 N 
HETATM   14  C   UNK N   1      24.896  12.736  10.208  0.00  0.00     0.270 C 
HETATM   15  N   UNK N   1      24.009  12.289  11.266  0.00  0.00    -0.396 N 
HETATM   16  N   UNK N   1      25.888  13.639  10.763  0.00  0.00    -0.396 N 
HETATM   17  H   UNK N   1      24.243  12.171  12.252  0.00  0.00     0.153 HD
HETATM   18  H   UNK N   1      23.050  12.070  10.995  0.00  0.00     0.153 HD
HETATM   19  H   UNK N   1      26.052  14.609  10.492  0.00  0.00     0.153 HD
HETATM   20  H   UNK N   1      26.484  13.265  11.502  0.00  0.00     0.153 HD
HETATM   21  H   UNK N   1      23.232  13.896   9.315  0.00  0.00     0.157 HD
ENDBRANCH  12  13
ENDBRANCH  11  12
ENDBRANCH  10  11
ENDBRANCH   1  10
BRANCH   1  22
HETATM   22  N   UNK N   1      26.895  16.584   4.830  0.00  0.00    -0.347 N 
HETATM   23  C   UNK N   1      27.750  17.620   5.074  0.00  0.00     0.241 C 
HETATM   24  O   UNK N   1      28.802  17.669   4.451  0.00  0.00    -0.271 OA
HETATM   25  H   UNK N   1      27.102  15.981   4.079  0.00  0.00     0.163 HD
BRANCH  23  26
HETATM   26  C   UNK N   1      27.446  18.703   6.113  0.00  0.00     0.180 C 
BRANCH  26  27
HETATM   27  C   UNK N   1      27.130  20.071   5.454  0.00  0.00     0.009 C 
HETATM   28  C   UNK N   1      25.853  20.053   4.634  0.00  0.00     0.012 C 
HETATM   29  C   UNK N   1      27.156  21.276   6.382  0.00  0.00     0.012 C 
ENDBRANCH  26  27
BRANCH  26  30
HETATM   30  N   UNK N   1      28.459  18.770   7.162  0.00  0.00    -0.347 N 
HETATM   31  C   UNK N   1      28.508  18.060   8.319  0.00  0.00     0.218 C 
HETATM   32  O   UNK N   1      27.679  17.202   8.570  0.00  0.00    -0.274 OA
HETATM   33  H   UNK N   1      29.195  19.406   7.013  0.00  0.00     0.163 HD
BRANCH  31  34
HETATM   34  C   UNK N   1      29.547  18.392   9.340  0.00  0.00     0.103 C 
BRANCH  34  35
HETATM   35  C   UNK N   1      30.963  18.241   8.807  0.00  0.00     0.013 C 
BRANCH  35  36
HETATM   36  C   UNK N   1      31.086  16.908   8.084  0.00  0.00    -0.022 C 
HETATM   37  C   UNK N   1      31.736  17.108   6.732  0.00  0.00     0.009 C 
HETATM   38  C   UNK N   1      31.921  15.938   8.900  0.00  0.00     0.009 C 
ENDBRANCH  35  36
ENDBRANCH  34  35
ENDBRANCH  31  34
ENDBRANCH  26  30
ENDBRANCH  23  26
ENDBRANCH   1  22
TORSDOF 13
ENDMDL
MODEL 5
REMARK VINA RESULT:      -5.9      7.826     11.710
REMARK  13 active torsions:
REMARK  status: ('A' for Active; 'I' for Inactive)
REMARK    1  A    between atoms: C_1  and  C_2 
REMARK    2  A    between atoms: C_1  and  C_3 
REMARK    3  A    between atoms: C_2  and  C_10 
REMARK    4  A    between atoms: C_2  and  N_12 
REMARK    5  A    between atoms: C_10  and  C_11 
REMARK    6  A    between atoms: C_11  and  C_27 
REMARK       I    between atoms: N_12  and  C_13 
REMARK    7  A    between atoms: C_13  and  C_14 
REMARK    8  A    between atoms: C_14  and  C_15 
REMARK    9  A    between atoms: C_14  and  N_18 
REMARK       I    between atoms: N_18  and  C_19 
REMARK   10  A    between atoms: C_19  and  C_20 
REMARK   11  A    between atoms: C_20  and  C_21 
REMARK   12  A    between atoms: C_21  and  C_22 
REMARK   13  A    between atoms: C_27  and  N_28 
REMARK       I    between atoms: N_28  and  C_29 
REMARK       I    between atoms: C_29  and  N_30 
REMARK       I    between atoms: C_29  and  N_31 
ROOT
HETATM    1  C   UNK N   1      21.617  16.561   6.074  0.00  0.00     0.161 C 
ENDROOT
BRANCH   1   2
HETATM    2  C   UNK N   1      22.711  15.584   5.680  0.00  0.00     0.205 C 
HETATM    3  O   UNK N   1      22.379  14.567   5.085  0.00  0.00    -0.288 OA
BRANCH   2   4
HETATM    4  C   UNK N   1      24.144  15.736   6.016  0.00  0.00     0.122 A 
HETATM    5  S   UNK N   1      25.086  14.787   6.979  0.00  0.00    -0.079 SA
HETATM    6  C   UNK N   1      26.533  15.561   6.741  0.00  0.00     0.069 A 
HETATM    7  C   UNK N   1      26.241  16.616   5.861  0.00  0.00     0.096 A 
HETATM    8  N   UNK N   1      24.922  16.702   5.467  0.00  0.00    -0.357 N 
ATOM      9  HN  UNK N   1      24.569  17.417   4.831  1.00  0.00     0.166 HD
ENDBRANCH   2   4
ENDBRANCH   1   2
BRANCH   1  10
HETATM   10  C   UNK N   1      21.980  18.042   5.874  0.00  0.00     0.035 C 
BRANCH  10  11
HETATM   11  C   UNK N   1      21.055  18.790   4.920  0.00  0.00     0.022 C 
BRANCH  11  12
HETATM   12  C   UNK N   1      21.842  19.265   3.712  0.00  0.00     0.117 C 
BRANCH  12  13
HETATM   13  N   UNK N   1      21.085  20.277   2.991  0.00  0.00    -0.387 N 
HETATM   14  C   UNK N   1      20.673  19.690   1.725  0.00  0.00     0.270 C 
HETATM   15  N   UNK N   1      20.468  20.742   0.746  0.00  0.00    -0.396 N 
HETATM   16  N   UNK N   1      19.434  18.953   1.904  0.00  0.00    -0.396 N 
HETATM   17  H   UNK N   1      19.819  20.728  -0.042  0.00  0.00     0.153 HD
HETATM   18  H   UNK N   1      21.031  21.585   0.857  0.00  0.00     0.153 HD
HETATM   19  H   UNK N   1      18.912  18.837   2.772  0.00  0.00     0.153 HD
HETATM   20  H   UNK N   1      19.045  18.505   1.075  0.00  0.00     0.153 HD
HETATM   21  H   UNK N   1      20.879  21.222   3.314  0.00  0.00     0.157 HD
ENDBRANCH  12  13
ENDBRANCH  11  12
ENDBRANCH  10  11
ENDBRANCH   1  10
BRANCH   1  22
HETATM   22  N   UNK N   1      20.333  16.238   5.470  0.00  0.00    -0.347 N 
HETATM   23  C   UNK N   1      19.185  16.030   6.180  0.00  0.00     0.241 C 
HETATM   24  O   UNK N   1      18.133  15.910   5.567  0.00  0.00    -0.271 OA
HETATM   25  H   UNK N   1      20.288  16.167   4.489  0.00  0.00     0.163 HD
BRANCH  23  26
HETATM   26  C   UNK N   1      19.172  15.966   7.709  0.00  0.00     0.180 C 
BRANCH  26  27
HETATM   27  C   UNK N   1      18.942  17.360   8.350  0.00  0.00     0.009 C 
HETATM   28  C   UNK N   1      17.749  17.392   9.287  0.00  0.00     0.012 C 
HETATM   29  C   UNK N   1      20.157  17.997   9.005  0.00  0.00     0.012 C 
ENDBRANCH  26  27
BRANCH  26  30
HETATM   30  N   UNK N   1      20.324  15.249   8.248  0.00  0.00    -0.347 N 
HETATM   31  C   UNK N   1      20.349  14.379   9.292  0.00  0.00     0.218 C 
HETATM   32  O   UNK N   1      19.326  14.056   9.871  0.00  0.00    -0.274 OA
HETATM   33  H   UNK N   1      21.185  15.415   7.802  0.00  0.00     0.163 HD
BRANCH  31  34
HETATM   34  C   UNK N   1      21.662  13.871   9.791  0.00  0.00     0.103 C 
BRANCH  34  35
HETATM   35  C   UNK N   1      21.525  12.603  10.619  0.00  0.00     0.013 C 
BRANCH  35  36
HETATM   36  C   UNK N   1      22.898  11.969  10.795  0.00  0.00    -0.022 C 
HETATM   37  C   UNK N   1      23.939  12.765  10.038  0.00  0.00     0.009 C 
HETATM   38  C   UNK N   1      23.274  11.925  12.265  0.00  0.00     0.009 C 
ENDBRANCH  35  36
ENDBRANCH  34  35
ENDBRANCH  31  34
ENDBRANCH  26  30
ENDBRANCH  23  26
ENDBRANCH   1  22
TORSDOF 13
ENDMDL
MODEL 6
REMARK VINA RESULT:      -5.9      6.532     11.162
REMARK  13 active torsions:
REMARK  status: ('A' for Active; 'I' for Inactive)
REMARK    1  A    between atoms: C_1  and  C_2 
REMARK    2  A    between atoms: C_1  and  C_3 
REMARK    3  A    between atoms: C_2  and  C_10 
REMARK    4  A    between atoms: C_2  and  N_12 
REMARK    5  A    between atoms: C_10  and  C_11 
REMARK    6  A    between atoms: C_11  and  C_27 
REMARK       I    between atoms: N_12  and  C_13 
REMARK    7  A    between atoms: C_13  and  C_14 
REMARK    8  A    between atoms: C_14  and  C_15 
REMARK    9  A    between atoms: C_14  and  N_18 
REMARK       I    between atoms: N_18  and  C_19 
REMARK   10  A    between atoms: C_19  and  C_20 
REMARK   11  A    between atoms: C_20  and  C_21 
REMARK   12  A    between atoms: C_21  and  C_22 
REMARK   13  A    between atoms: C_27  and  N_28 
REMARK       I    between atoms: N_28  and  C_29 
REMARK       I    between atoms: C_29  and  N_30 
REMARK       I    between atoms: C_29  and  N_31 
ROOT
HETATM    1  C   UNK N   1      21.880  18.672   3.833  0.00  0.00     0.161 C 
ENDROOT
BRANCH   1   2
HETATM    2  C   UNK N   1      20.806  18.720   2.760  0.00  0.00     0.205 C 
HETATM    3  O   UNK N   1      20.188  19.767   2.620  0.00  0.00    -0.288 OA
BRANCH   2   4
HETATM    4  C   UNK N   1      20.405  17.576   1.912  0.00  0.00     0.122 A 
HETATM    5  S   UNK N   1      20.378  15.971   2.286  0.00  0.00    -0.079 SA
HETATM    6  C   UNK N   1      19.722  15.403   0.873  0.00  0.00     0.069 A 
HETATM    7  C   UNK N   1      19.525  16.546   0.079  0.00  0.00     0.096 A 
HETATM    8  N   UNK N   1      19.903  17.737   0.662  0.00  0.00    -0.357 N 
ATOM      9  HN  UNK N   1      19.816  18.643   0.201  1.00  0.00     0.166 HD
ENDBRANCH   2   4
ENDBRANCH   1   2
BRANCH   1  10
HETATM   10  C   UNK N   1      23.160  19.455   3.492  0.00  0.00     0.035 C 
BRANCH  10  11
HETATM   11  C   UNK N   1      24.451  18.757   3.908  0.00  0.00     0.022 C 
BRANCH  11  12
HETATM   12  C   UNK N   1      25.467  19.788   4.361  0.00  0.00     0.117 C 
BRANCH  12  13
HETATM   13  N   UNK N   1      25.640  19.716   5.804  0.00  0.00    -0.387 N 
HETATM   14  C   UNK N   1      26.983  20.187   6.105  0.00  0.00     0.270 C 
HETATM   15  N   UNK N   1      27.433  19.606   7.356  0.00  0.00    -0.396 N 
HETATM   16  N   UNK N   1      26.982  21.635   6.221  0.00  0.00    -0.396 N 
HETATM   17  H   UNK N   1      28.087  20.019   8.022  0.00  0.00     0.153 HD
HETATM   18  H   UNK N   1      27.056  18.689   7.595  0.00  0.00     0.153 HD
HETATM   19  H   UNK N   1      26.181  22.257   6.106  0.00  0.00     0.153 HD
HETATM   20  H   UNK N   1      27.874  22.077   6.440  0.00  0.00     0.153 HD
HETATM   21  H   UNK N   1      24.947  19.396   6.481  0.00  0.00     0.157 HD
ENDBRANCH  12  13
ENDBRANCH  11  12
ENDBRANCH  10  11
ENDBRANCH   1  10
BRANCH   1  22
HETATM   22  N   UNK N   1      21.373  19.024   5.151  0.00  0.00    -0.347 N 
HETATM   23  C   UNK N   1      21.344  18.165   6.212  0.00  0.00     0.241 C 
HETATM   24  O   UNK N   1      21.034  18.605   7.311  0.00  0.00    -0.271 OA
HETATM   25  H   UNK N   1      21.030  19.937   5.286  0.00  0.00     0.163 HD
BRANCH  23  26
HETATM   26  C   UNK N   1      21.707  16.684   6.075  0.00  0.00     0.180 C 
BRANCH  26  27
HETATM   27  C   UNK N   1      20.679  15.763   6.783  0.00  0.00     0.009 C 
HETATM   28  C   UNK N   1      20.236  14.596   5.920  0.00  0.00     0.012 C 
HETATM   29  C   UNK N   1      21.064  15.287   8.175  0.00  0.00     0.012 C 
ENDBRANCH  26  27
BRANCH  26  30
HETATM   30  N   UNK N   1      23.095  16.414   6.440  0.00  0.00    -0.347 N 
HETATM   31  C   UNK N   1      23.976  15.594   5.810  0.00  0.00     0.218 C 
HETATM   32  O   UNK N   1      23.677  15.017   4.778  0.00  0.00    -0.274 OA
HETATM   33  H   UNK N   1      23.432  16.882   7.237  0.00  0.00     0.163 HD
BRANCH  31  34
HETATM   34  C   UNK N   1      25.307  15.328   6.436  0.00  0.00     0.103 C 
BRANCH  34  35
HETATM   35  C   UNK N   1      26.396  16.249   5.910  0.00  0.00     0.013 C 
BRANCH  35  36
HETATM   36  C   UNK N   1      27.141  15.550   4.781  0.00  0.00    -0.022 C 
HETATM   37  C   UNK N   1      27.425  16.529   3.663  0.00  0.00     0.009 C 
HETATM   38  C   UNK N   1      28.451  14.976   5.288  0.00  0.00     0.009 C 
ENDBRANCH  35  36
ENDBRANCH  34  35
ENDBRANCH  31  34
ENDBRANCH  26  30
ENDBRANCH  23  26
ENDBRANCH   1  22
TORSDOF 13
ENDMDL
MODEL 7
REMARK VINA RESULT:      -5.9      2.307      3.282
REMARK  13 active torsions:
REMARK  status: ('A' for Active; 'I' for Inactive)
REMARK    1  A    between atoms: C_1  and  C_2 
REMARK    2  A    between atoms: C_1  and  C_3 
REMARK    3  A    between atoms: C_2  and  C_10 
REMARK    4  A    between atoms: C_2  and  N_12 
REMARK    5  A    between atoms: C_10  and  C_11 
REMARK    6  A    between atoms: C_11  and  C_27 
REMARK       I    between atoms: N_12  and  C_13 
REMARK    7  A    between atoms: C_13  and  C_14 
REMARK    8  A    between atoms: C_14  and  C_15 
REMARK    9  A    between atoms: C_14  and  N_18 
REMARK       I    between atoms: N_18  and  C_19 
REMARK   10  A    between atoms: C_19  and  C_20 
REMARK   11  A    between atoms: C_20  and  C_21 
REMARK   12  A    between atoms: C_21  and  C_22 
REMARK   13  A    between atoms: C_27  and  N_28 
REMARK       I    between atoms: N_28  and  C_29 
REMARK       I    between atoms: C_29  and  N_30 
REMARK       I    between atoms: C_29  and  N_31 
ROOT
HETATM    1  C   UNK N   1      31.410  15.625   5.584  0.00  0.00     0.161 C 
ENDROOT
BRANCH   1   2
HETATM    2  C   UNK N   1      31.888  14.250   6.016  0.00  0.00     0.205 C 
HETATM    3  O   UNK N   1      31.208  13.284   5.695  0.00  0.00    -0.288 OA
BRANCH   2   4
HETATM    4  C   UNK N   1      33.081  13.992   6.853  0.00  0.00     0.122 A 
HETATM    5  S   UNK N   1      33.170  13.750   8.481  0.00  0.00    -0.079 SA
HETATM    6  C   UNK N   1      34.794  13.434   8.591  0.00  0.00     0.069 A 
HETATM    7  C   UNK N   1      35.274  13.531   7.273  0.00  0.00     0.096 A 
HETATM    8  N   UNK N   1      34.321  13.838   6.324  0.00  0.00    -0.357 N 
ATOM      9  HN  UNK N   1      34.527  13.939   5.331  1.00  0.00     0.166 HD
ENDBRANCH   2   4
ENDBRANCH   1   2
BRANCH   1  10
HETATM   10  C   UNK N   1      32.291  16.790   6.068  0.00  0.00     0.035 C 
BRANCH  10  11
HETATM   11  C   UNK N   1      31.964  17.279   7.475  0.00  0.00     0.022 C 
BRANCH  11  12
HETATM   12  C   UNK N   1      30.569  16.826   7.862  0.00  0.00     0.117 C 
BRANCH  12  13
HETATM   13  N   UNK N   1      29.660  17.963   7.866  0.00  0.00    -0.387 N 
HETATM   14  C   UNK N   1      28.969  17.962   9.147  0.00  0.00     0.270 C 
HETATM   15  N   UNK N   1      27.690  18.635   9.009  0.00  0.00    -0.396 N 
HETATM   16  N   UNK N   1      29.772  18.656  10.139  0.00  0.00    -0.396 N 
HETATM   17  H   UNK N   1      27.189  19.151   9.733  0.00  0.00     0.153 HD
HETATM   18  H   UNK N   1      27.246  18.588   8.092  0.00  0.00     0.153 HD
HETATM   19  H   UNK N   1      30.687  19.082   9.996  0.00  0.00     0.153 HD
HETATM   20  H   UNK N   1      29.379  18.725  11.078  0.00  0.00     0.153 HD
HETATM   21  H   UNK N   1      29.532  18.637   7.112  0.00  0.00     0.157 HD
ENDBRANCH  12  13
ENDBRANCH  11  12
ENDBRANCH  10  11
ENDBRANCH   1  10
BRANCH   1  22
HETATM   22  N   UNK N   1      31.156  15.705   4.153  0.00  0.00    -0.347 N 
HETATM   23  C   UNK N   1      30.061  16.310   3.605  0.00  0.00     0.241 C 
HETATM   24  O   UNK N   1      30.018  16.450   2.390  0.00  0.00    -0.271 OA
HETATM   25  H   UNK N   1      31.814  15.300   3.543  0.00  0.00     0.163 HD
BRANCH  23  26
HETATM   26  C   UNK N   1      28.905  16.835   4.459  0.00  0.00     0.180 C 
BRANCH  26  27
HETATM   27  C   UNK N   1      27.820  15.753   4.703  0.00  0.00     0.009 C 
HETATM   28  C   UNK N   1      27.304  15.743   6.130  0.00  0.00     0.012 C 
HETATM   29  C   UNK N   1      26.667  15.735   3.713  0.00  0.00     0.012 C 
ENDBRANCH  26  27
BRANCH  26  30
HETATM   30  N   UNK N   1      28.375  18.102   3.964  0.00  0.00    -0.347 N 
HETATM   31  C   UNK N   1      27.937  19.163   4.692  0.00  0.00     0.218 C 
HETATM   32  O   UNK N   1      28.009  19.168   5.908  0.00  0.00    -0.274 OA
HETATM   33  H   UNK N   1      28.330  18.200   2.986  0.00  0.00     0.163 HD
BRANCH  31  34
HETATM   34  C   UNK N   1      27.280  20.310   3.994  0.00  0.00     0.103 C 
BRANCH  34  35
HETATM   35  C   UNK N   1      25.844  20.526   4.445  0.00  0.00     0.013 C 
BRANCH  35  36
HETATM   36  C   UNK N   1      24.920  19.652   3.609  0.00  0.00    -0.022 C 
HETATM   37  C   UNK N   1      24.252  18.616   4.486  0.00  0.00     0.009 C 
HETATM   38  C   UNK N   1      23.855  20.500   2.937  0.00  0.00     0.009 C 
ENDBRANCH  35  36
ENDBRANCH  34  35
ENDBRANCH  31  34
ENDBRANCH  26  30
ENDBRANCH  23  26
ENDBRANCH   1  22
TORSDOF 13
ENDMDL
MODEL 8
REMARK VINA RESULT:      -5.9      6.280     10.335
REMARK  13 active torsions:
REMARK  status: ('A' for Active; 'I' for Inactive)
REMARK    1  A    between atoms: C_1  and  C_2 
REMARK    2  A    between atoms: C_1  and  C_3 
REMARK    3  A    between atoms: C_2  and  C_10 
REMARK    4  A    between atoms: C_2  and  N_12 
REMARK    5  A    between atoms: C_10  and  C_11 
REMARK    6  A    between atoms: C_11  and  C_27 
REMARK       I    between atoms: N_12  and  C_13 
REMARK    7  A    between atoms: C_13  and  C_14 
REMARK    8  A    between atoms: C_14  and  C_15 
REMARK    9  A    between atoms: C_14  and  N_18 
REMARK       I    between atoms: N_18  and  C_19 
REMARK   10  A    between atoms: C_19  and  C_20 
REMARK   11  A    between atoms: C_20  and  C_21 
REMARK   12  A    between atoms: C_21  and  C_22 
REMARK   13  A    between atoms: C_27  and  N_28 
REMARK       I    between atoms: N_28  and  C_29 
REMARK       I    between atoms: C_29  and  N_30 
REMARK       I    between atoms: C_29  and  N_31 
ROOT
HETATM    1  C   UNK N   1      22.855  16.975   5.769  0.00  0.00     0.161 C 
ENDROOT
BRANCH   1   2
HETATM    2  C   UNK N   1      21.771  18.036   5.688  0.00  0.00     0.205 C 
HETATM    3  O   UNK N   1      21.497  18.650   6.710  0.00  0.00    -0.288 OA
BRANCH   2   4
HETATM    4  C   UNK N   1      20.975  18.341   4.479  0.00  0.00     0.122 A 
HETATM    5  S   UNK N   1      19.946  17.361   3.644  0.00  0.00    -0.079 SA
HETATM    6  C   UNK N   1      19.403  18.467   2.535  0.00  0.00     0.069 A 
HETATM    7  C   UNK N   1      20.077  19.659   2.850  0.00  0.00     0.096 A 
HETATM    8  N   UNK N   1      20.939  19.579   3.923  0.00  0.00    -0.357 N 
ATOM      9  HN  UNK N   1      21.492  20.365   4.263  1.00  0.00     0.166 HD
ENDBRANCH   2   4
ENDBRANCH   1   2
BRANCH   1  10
HETATM   10  C   UNK N   1      22.580  15.857   6.790  0.00  0.00     0.035 C 
BRANCH  10  11
HETATM   11  C   UNK N   1      21.154  15.318   6.759  0.00  0.00     0.022 C 
BRANCH  11  12
HETATM   12  C   UNK N   1      20.428  15.717   8.030  0.00  0.00     0.117 C 
BRANCH  12  13
HETATM   13  N   UNK N   1      19.254  16.513   7.704  0.00  0.00    -0.387 N 
HETATM   14  C   UNK N   1      18.855  17.214   8.915  0.00  0.00     0.270 C 
HETATM   15  N   UNK N   1      17.437  17.518   8.856  0.00  0.00    -0.396 N 
HETATM   16  N   UNK N   1      19.607  18.451   9.038  0.00  0.00    -0.396 N 
HETATM   17  H   UNK N   1      16.962  18.308   9.293  0.00  0.00     0.153 HD
HETATM   18  H   UNK N   1      16.855  16.874   8.320  0.00  0.00     0.153 HD
HETATM   19  H   UNK N   1      20.318  18.799   8.396  0.00  0.00     0.153 HD
HETATM   20  H   UNK N   1      19.401  19.031   9.851  0.00  0.00     0.153 HD
HETATM   21  H   UNK N   1      18.797  16.571   6.795  0.00  0.00     0.157 HD
ENDBRANCH  12  13
ENDBRANCH  11  12
ENDBRANCH  10  11
ENDBRANCH   1  10
BRANCH   1  22
HETATM   22  N   UNK N   1      23.209  16.435   4.465  0.00  0.00    -0.347 N 
HETATM   23  C   UNK N   1      24.422  16.620   3.866  0.00  0.00     0.241 C 
HETATM   24  O   UNK N   1      24.666  16.002   2.839  0.00  0.00    -0.271 OA
HETATM   25  H   UNK N   1      22.534  15.902   3.987  0.00  0.00     0.163 HD
BRANCH  23  26
HETATM   26  C   UNK N   1      25.487  17.553   4.447  0.00  0.00     0.180 C 
BRANCH  26  27
HETATM   27  C   UNK N   1      25.626  18.863   3.627  0.00  0.00     0.009 C 
HETATM   28  C   UNK N   1      24.419  19.774   3.756  0.00  0.00     0.012 C 
HETATM   29  C   UNK N   1      26.913  19.643   3.837  0.00  0.00     0.012 C 
ENDBRANCH  26  27
BRANCH  26  30
HETATM   30  N   UNK N   1      26.754  16.870   4.693  0.00  0.00    -0.347 N 
HETATM   31  C   UNK N   1      27.150  16.234   5.826  0.00  0.00     0.218 C 
HETATM   32  O   UNK N   1      26.404  16.122   6.783  0.00  0.00    -0.274 OA
HETATM   33  H   UNK N   1      27.397  16.871   3.948  0.00  0.00     0.163 HD
BRANCH  31  34
HETATM   34  C   UNK N   1      28.554  15.734   5.933  0.00  0.00     0.103 C 
BRANCH  34  35
HETATM   35  C   UNK N   1      29.576  16.859   5.981  0.00  0.00     0.013 C 
BRANCH  35  36
HETATM   36  C   UNK N   1      30.151  16.953   7.387  0.00  0.00    -0.022 C 
HETATM   37  C   UNK N   1      31.630  17.272   7.323  0.00  0.00     0.009 C 
HETATM   38  C   UNK N   1      29.441  18.036   8.178  0.00  0.00     0.009 C 
ENDBRANCH  35  36
ENDBRANCH  34  35
ENDBRANCH  31  34
ENDBRANCH  26  30
ENDBRANCH  23  26
ENDBRANCH   1  22
TORSDOF 13
ENDMDL
MODEL 9
REMARK VINA RESULT:      -5.9      6.190     10.247
REMARK  13 active torsions:
REMARK  status: ('A' for Active; 'I' for Inactive)
REMARK    1  A    between atoms: C_1  and  C_2 
REMARK    2  A    between atoms: C_1  and  C_3 
REMARK    3  A    between atoms: C_2  and  C_10 
REMARK    4  A    between atoms: C_2  and  N_12 
REMARK    5  A    between atoms: C_10  and  C_11 
REMARK    6  A    between atoms: C_11  and  C_27 
REMARK       I    between atoms: N_12  and  C_13 
REMARK    7  A    between atoms: C_13  and  C_14 
REMARK    8  A    between atoms: C_14  and  C_15 
REMARK    9  A    between atoms: C_14  and  N_18 
REMARK       I    between atoms: N_18  and  C_19 
REMARK   10  A    between atoms: C_19  and  C_20 
REMARK   11  A    between atoms: C_20  and  C_21 
REMARK   12  A    between atoms: C_21  and  C_22 
REMARK   13  A    between atoms: C_27  and  N_28 
REMARK       I    between atoms: N_28  and  C_29 
REMARK       I    between atoms: C_29  and  N_30 
REMARK       I    between atoms: C_29  and  N_31 
ROOT
HETATM    1  C   UNK N   1      22.532  18.046   4.298  0.00  0.00     0.161 C 
ENDROOT
BRANCH   1   2
HETATM    2  C   UNK N   1      21.496  18.396   5.351  0.00  0.00     0.205 C 
HETATM    3  O   UNK N   1      20.959  19.493   5.279  0.00  0.00    -0.288 OA
BRANCH   2   4
HETATM    4  C   UNK N   1      21.131  17.536   6.499  0.00  0.00     0.122 A 
HETATM    5  S   UNK N   1      21.633  16.004   6.842  0.00  0.00    -0.079 SA
HETATM    6  C   UNK N   1      20.871  15.821   8.304  0.00  0.00     0.069 A 
HETATM    7  C   UNK N   1      20.192  17.033   8.514  0.00  0.00     0.096 A 
HETATM    8  N   UNK N   1      20.343  17.970   7.514  0.00  0.00    -0.357 N 
ATOM      9  HN  UNK N   1      19.908  18.893   7.534  1.00  0.00     0.166 HD
ENDBRANCH   2   4
ENDBRANCH   1   2
BRANCH   1  10
HETATM   10  C   UNK N   1      22.042  17.062   3.221  0.00  0.00     0.035 C 
BRANCH  10  11
HETATM   11  C   UNK N   1      20.540  17.116   2.961  0.00  0.00     0.022 C 
BRANCH  11  12
HETATM   12  C   UNK N   1      20.257  18.028   1.783  0.00  0.00     0.117 C 
BRANCH  12  13
HETATM   13  N   UNK N   1      19.848  19.342   2.257  0.00  0.00    -0.387 N 
HETATM   14  C   UNK N   1      20.812  20.306   1.749  0.00  0.00     0.270 C 
HETATM   15  N   UNK N   1      20.842  21.468   2.619  0.00  0.00    -0.396 N 
HETATM   16  N   UNK N   1      20.434  20.720   0.409  0.00  0.00    -0.396 N 
HETATM   17  H   UNK N   1      21.061  22.428   2.351  0.00  0.00     0.153 HD
HETATM   18  H   UNK N   1      20.621  21.307   3.602  0.00  0.00     0.153 HD
HETATM   19  H   UNK N   1      19.628  20.397  -0.126  0.00  0.00     0.153 HD
HETATM   20  H   UNK N   1      21.037  21.406  -0.045  0.00  0.00     0.153 HD
HETATM   21  H   UNK N   1      19.035  19.549   2.837  0.00  0.00     0.157 HD
ENDBRANCH  12  13
ENDBRANCH  11  12
ENDBRANCH  10  11
ENDBRANCH   1  10
BRANCH   1  22
HETATM   22  N   UNK N   1      23.150  19.224   3.706  0.00  0.00    -0.347 N 
HETATM   23  C   UNK N   1      24.498  19.422   3.629  0.00  0.00     0.241 C 
HETATM   24  O   UNK N   1      24.913  20.374   2.982  0.00  0.00    -0.271 OA
HETATM   25  H   UNK N   1      22.559  19.920   3.337  0.00  0.00     0.163 HD
BRANCH  23  26
HETATM   26  C   UNK N   1      25.502  18.481   4.302  0.00  0.00     0.180 C 
BRANCH  26  27
HETATM   27  C   UNK N   1      26.554  19.255   5.140  0.00  0.00     0.009 C 
HETATM   28  C   UNK N   1      27.829  19.544   4.368  0.00  0.00     0.012 C 
HETATM   29  C   UNK N   1      26.054  20.507   5.840  0.00  0.00     0.012 C 
ENDBRANCH  26  27
BRANCH  26  30
HETATM   30  N   UNK N   1      26.079  17.519   3.368  0.00  0.00    -0.347 N 
HETATM   31  C   UNK N   1      25.908  16.171   3.350  0.00  0.00     0.218 C 
HETATM   32  O   UNK N   1      25.157  15.618   4.135  0.00  0.00    -0.274 OA
HETATM   33  H   UNK N   1      26.661  17.892   2.667  0.00  0.00     0.163 HD
BRANCH  31  34
HETATM   34  C   UNK N   1      26.717  15.342   2.406  0.00  0.00     0.103 C 
BRANCH  34  35
HETATM   35  C   UNK N   1      28.206  15.391   2.709  0.00  0.00     0.013 C 
BRANCH  35  36
HETATM   36  C   UNK N   1      28.416  15.252   4.210  0.00  0.00    -0.022 C 
HETATM   37  C   UNK N   1      28.816  13.832   4.550  0.00  0.00     0.009 C 
HETATM   38  C   UNK N   1      29.500  16.203   4.683  0.00  0.00     0.009 C 
ENDBRANCH  35  36
ENDBRANCH  34  35
ENDBRANCH  31  34
ENDBRANCH  26  30
ENDBRANCH  23  26
ENDBRANCH   1  22
TORSDOF 13
ENDMDL
