REMARK  13 active torsions:
REMARK  status: ('A' for Active; 'I' for Inactive)
REMARK    1  A    between atoms: C_1  and  C_2 
REMARK    2  A    between atoms: C_1  and  C_3 
REMARK    3  A    between atoms: C_2  and  C_10 
REMARK    4  A    between atoms: C_2  and  N_12 
REMARK    5  A    between atoms: C_10  and  C_11 
REMARK    6  A    between atoms: C_11  and  C_27 
REMARK       I    between atoms: N_12  and  C_13 
REMARK    7  A    between atoms: C_13  and  C_14 
REMARK    8  A    between atoms: C_14  and  C_15 
REMARK    9  A    between atoms: C_14  and  N_18 
REMARK       I    between atoms: N_18  and  C_19 
REMARK   10  A    between atoms: C_19  and  C_20 
REMARK   11  A    between atoms: C_20  and  C_21 
REMARK   12  A    between atoms: C_21  and  C_22 
REMARK   13  A    between atoms: C_27  and  N_28 
REMARK       I    between atoms: N_28  and  C_29 
REMARK       I    between atoms: C_29  and  N_30 
REMARK       I    between atoms: C_29  and  N_31 
ROOT
HETATM    1  C   UNK N   1      -2.277   1.744   0.474  0.00  0.00     0.161 C 
ENDROOT
BRANCH   1   2
HETATM    2  C   UNK N   1      -3.207   2.913   0.200  0.00  0.00     0.205 C 
HETATM    3  O   UNK N   1      -2.792   4.039   0.439  0.00  0.00    -0.288 OA
BRANCH   2   4
HETATM    4  C   UNK N   1      -4.603   2.791  -0.276  0.00  0.00     0.122 A 
HETATM    5  S   UNK N   1      -5.449   1.429  -0.658  0.00  0.00    -0.079 SA
HETATM    6  C   UNK N   1      -6.914   2.136  -0.981  0.00  0.00     0.069 A 
HETATM    7  C   UNK N   1      -6.707   3.511  -0.776  0.00  0.00     0.096 A 
HETATM    8  N   UNK N   1      -5.431   3.860  -0.387  0.00  0.00    -0.357 N 
ATOM      9  HN  UNK N   1      -5.140   4.820  -0.203  1.00  0.00     0.166 HD
ENDBRANCH   2   4
ENDBRANCH   1   2
BRANCH   1  10
HETATM   10  C   UNK N   1      -2.828   0.708   1.469  0.00  0.00     0.035 C 
BRANCH  10  11
HETATM   11  C   UNK N   1      -3.489  -0.500   0.813  0.00  0.00     0.022 C 
BRANCH  11  12
HETATM   12  C   UNK N   1      -2.841  -1.775   1.319  0.00  0.00     0.117 C 
BRANCH  12  13
HETATM   13  N   UNK N   1      -2.268  -2.518   0.206  0.00  0.00    -0.387 N 
HETATM   14  C   UNK N   1      -2.750  -3.887   0.304  0.00  0.00     0.270 C 
HETATM   15  N   UNK N   1      -1.809  -4.781  -0.346  0.00  0.00    -0.396 N 
HETATM   16  N   UNK N   1      -4.045  -4.000  -0.344  0.00  0.00    -0.396 N 
HETATM   17  H   UNK N   1      -2.023  -5.668  -0.803  0.00  0.00     0.153 HD
HETATM   18  H   UNK N   1      -0.831  -4.492  -0.346  0.00  0.00     0.153 HD
HETATM   19  H   UNK N   1      -4.568  -3.252  -0.799  0.00  0.00     0.153 HD
HETATM   20  H   UNK N   1      -4.477  -4.924  -0.344  0.00  0.00     0.153 HD
HETATM   21  H   UNK N   1      -1.645  -2.147  -0.511  0.00  0.00     0.157 HD
ENDBRANCH  12  13
ENDBRANCH  11  12
ENDBRANCH  10  11
ENDBRANCH   1  10
BRANCH   1  22
HETATM   22  N   UNK N   1      -1.797   1.112  -0.746  0.00  0.00    -0.347 N 
HETATM   23  C   UNK N   1      -0.575   0.515  -0.867  0.00  0.00     0.241 C 
HETATM   24  O   UNK N   1      -0.330  -0.113  -1.888  0.00  0.00    -0.271 OA
HETATM   25  H   UNK N   1      -2.390   1.114  -1.532  0.00  0.00     0.163 HD
BRANCH  23  26
HETATM   26  C   UNK N   1       0.482   0.587   0.238  0.00  0.00     0.180 C 
BRANCH  26  27
HETATM   27  C   UNK N   1       1.009   2.031   0.448  0.00  0.00     0.009 C 
HETATM   28  C   UNK N   1       2.043   2.129   1.555  0.00  0.00     0.012 C 
HETATM   29  C   UNK N   1       1.490   2.750  -0.802  0.00  0.00     0.012 C 
ENDBRANCH  26  27
BRANCH  26  30
HETATM   30  N   UNK N   1       1.536  -0.409   0.068  0.00  0.00    -0.347 N 
HETATM   31  C   UNK N   1       2.478  -0.465  -0.910  0.00  0.00     0.218 C 
HETATM   32  O   UNK N   1       2.564   0.408  -1.756  0.00  0.00    -0.274 OA
HETATM   33  H   UNK N   1       1.568  -1.125   0.742  0.00  0.00     0.163 HD
BRANCH  31  34
HETATM   34  C   UNK N   1       3.372  -1.659  -0.999  0.00  0.00     0.103 C 
BRANCH  34  35
HETATM   35  C   UNK N   1       4.227  -1.846   0.244  0.00  0.00     0.013 C 
BRANCH  35  36
HETATM   36  C   UNK N   1       4.844  -3.237   0.223  0.00  0.00    -0.022 C 
HETATM   37  C   UNK N   1       6.027  -3.295   1.165  0.00  0.00     0.009 C 
HETATM   38  C   UNK N   1       3.820  -4.276   0.642  0.00  0.00     0.009 C 
ENDBRANCH  35  36
ENDBRANCH  34  35
ENDBRANCH  31  34
ENDBRANCH  26  30
ENDBRANCH  23  26
ENDBRANCH   1  22
TORSDOF 13
