MODEL 1
REMARK VINA RESULT:      -6.8      0.000      0.000
REMARK  7 active torsions:
REMARK  status: ('A' for Active; 'I' for Inactive)
REMARK    1  A    between atoms: C_2  and  O_8 
REMARK    2  A    between atoms: C_2  and  C_9 
REMARK    3  A    between atoms: C_4  and  O_15 
REMARK    4  A    between atoms: C_9  and  O_10 
REMARK    5  A    between atoms: O_10  and  C_11 
REMARK    6  A    between atoms: C_18  and  N_26 
REMARK    7  A    between atoms: C_21  and  N_25 
ROOT
HETATM    1  C   UNK N   1      22.444  16.136   4.861  0.00  0.00     0.046 A 
HETATM    2  C   UNK N   1      21.171  17.906   6.648  0.00  0.00     0.102 A 
HETATM    3  C   UNK N   1      22.395  14.109   7.953  0.00  0.00     0.062 A 
HETATM    4  C   UNK N   1      23.238  13.610   5.743  0.00  0.00     0.034 A 
HETATM    5  C   UNK N   1      21.397  18.301   5.294  0.00  0.00     0.104 A 
HETATM    6  C   UNK N   1      22.048  17.406   4.422  0.00  0.00     0.070 A 
HETATM    7  C   UNK N   1      22.196  15.755   6.191  0.00  0.00     0.005 A 
HETATM    8  C   UNK N   1      21.563  16.642   7.061  0.00  0.00     0.054 A 
HETATM    9  C   UNK N   1      22.601  14.493   6.632  0.00  0.00    -0.005 A 
HETATM   10  C   UNK N   1      22.818  12.863   8.395  0.00  0.00     0.114 A 
HETATM   11  N   UNK N   1      23.425  12.005   7.521  0.00  0.00    -0.328 N 
ATOM     12  HN  UNK N   1      23.727  11.089   7.852  1.00  0.00     0.169 HD
HETATM   13  C   UNK N   1      23.639  12.346   6.216  0.00  0.00     0.113 A 
HETATM   14  C   UNK N   1      23.454  14.024   4.419  0.00  0.00     0.104 A 
HETATM   15  N   UNK N   1      23.061  15.266   4.011  0.00  0.00    -0.364 N 
ATOM     16  HN  UNK N   1      23.234  15.551   3.047  1.00  0.00     0.165 HD
ENDROOT
BRANCH  10  17
HETATM   17  N   UNK N   1      22.639  12.510   9.773  0.00  0.00    -0.303 N 
HETATM   18  C   UNK N   1      23.623  12.256  10.656  0.00  0.00     0.116 A 
HETATM   19  C   UNK N   1      23.035  11.932  11.858  0.00  0.00     0.106 A 
HETATM   20  N   UNK N   1      21.694  11.987  11.708  0.00  0.00    -0.360 N 
HETATM   21  C   UNK N   1      21.478  12.341  10.425  0.00  0.00     0.189 A 
ATOM     22  HN  UNK N   1      20.988  11.798  12.420  1.00  0.00     0.166 HD
ENDBRANCH  10  17
BRANCH  13  23
HETATM   23  N   UNK N   1      24.277  11.426   5.354  0.00  0.00    -0.385 N 
HETATM   24  H   UNK N   1      25.237  11.234   5.459  0.00  0.00     0.157 HD
HETATM   25  H   UNK N   1      23.761  10.976   4.647  0.00  0.00     0.157 HD
ENDBRANCH  13  23
BRANCH   2  26
HETATM   26  O   UNK N   1      20.613  18.702   7.588  0.00  0.00    -0.353 OA
HETATM   27  C   UNK N   1      19.847  18.218   8.619  0.00  0.00     0.210 C 
ENDBRANCH   2  26
BRANCH   5  28
HETATM   28  O   UNK N   1      20.985  19.491   4.790  0.00  0.00    -0.346 OA
BRANCH  28  29
HETATM   29  C   UNK N   1      20.665  19.671   3.461  0.00  0.00     0.201 C 
BRANCH  29  30
HETATM   30  C   UNK N   1      21.741  20.474   2.748  0.00  0.00     0.193 C 
BRANCH  30  31
HETATM   31  O   UNK N   1      21.161  21.367   1.843  0.00  0.00    -0.394 OA
HETATM   32  C   UNK N   1      20.795  20.584   0.744  0.00  0.00     0.201 C 
ENDBRANCH  30  31
ENDBRANCH  29  30
ENDBRANCH  28  29
ENDBRANCH   5  28
TORSDOF 7
ENDMDL
MODEL 2
REMARK VINA RESULT:      -6.7      7.243      7.967
REMARK  7 active torsions:
REMARK  status: ('A' for Active; 'I' for Inactive)
REMARK    1  A    between atoms: C_2  and  O_8 
REMARK    2  A    between atoms: C_2  and  C_9 
REMARK    3  A    between atoms: C_4  and  O_15 
REMARK    4  A    between atoms: C_9  and  O_10 
REMARK    5  A    between atoms: O_10  and  C_11 
REMARK    6  A    between atoms: C_18  and  N_26 
REMARK    7  A    between atoms: C_21  and  N_25 
ROOT
HETATM    1  C   UNK N   1      27.606  17.220   3.908  0.00  0.00     0.046 A 
HETATM    2  C   UNK N   1      26.924  19.333   5.646  0.00  0.00     0.102 A 
HETATM    3  C   UNK N   1      30.569  17.304   6.118  0.00  0.00     0.062 A 
HETATM    4  C   UNK N   1      30.027  15.875   4.246  0.00  0.00     0.034 A 
HETATM    5  C   UNK N   1      26.025  18.949   4.604  0.00  0.00     0.104 A 
HETATM    6  C   UNK N   1      26.393  17.900   3.738  0.00  0.00     0.070 A 
HETATM    7  C   UNK N   1      28.469  17.597   4.950  0.00  0.00     0.005 A 
HETATM    8  C   UNK N   1      28.116  18.642   5.803  0.00  0.00     0.054 A 
HETATM    9  C   UNK N   1      29.684  16.926   5.113  0.00  0.00    -0.005 A 
HETATM   10  C   UNK N   1      31.785  16.652   6.264  0.00  0.00     0.114 A 
HETATM   11  N   UNK N   1      32.105  15.622   5.424  0.00  0.00    -0.328 N 
ATOM     12  HN  UNK N   1      32.998  15.143   5.542  1.00  0.00     0.169 HD
HETATM   13  C   UNK N   1      31.259  15.219   4.430  0.00  0.00     0.113 A 
HETATM   14  C   UNK N   1      29.129  15.520   3.225  0.00  0.00     0.104 A 
HETATM   15  N   UNK N   1      27.953  16.196   3.077  0.00  0.00    -0.364 N 
ATOM     16  HN  UNK N   1      27.316  15.929   2.325  1.00  0.00     0.165 HD
ENDROOT
BRANCH  10  17
HETATM   17  N   UNK N   1      32.700  17.093   7.275  0.00  0.00    -0.303 N 
HETATM   18  C   UNK N   1      33.827  17.800   7.064  0.00  0.00     0.116 A 
HETATM   19  C   UNK N   1      34.432  17.999   8.285  0.00  0.00     0.106 A 
HETATM   20  N   UNK N   1      33.677  17.412   9.239  0.00  0.00    -0.360 N 
HETATM   21  C   UNK N   1      32.626  16.865   8.595  0.00  0.00     0.189 A 
ATOM     22  HN  UNK N   1      33.864  17.388  10.241  1.00  0.00     0.166 HD
ENDBRANCH  10  17
BRANCH  13  23
HETATM   23  N   UNK N   1      31.640  14.153   3.584  0.00  0.00    -0.385 N 
HETATM   24  H   UNK N   1      32.351  13.532   3.862  0.00  0.00     0.157 HD
HETATM   25  H   UNK N   1      31.193  14.031   2.716  0.00  0.00     0.157 HD
ENDBRANCH  13  23
BRANCH   2  26
HETATM   26  O   UNK N   1      26.706  20.361   6.496  0.00  0.00    -0.353 OA
HETATM   27  C   UNK N   1      27.168  21.633   6.264  0.00  0.00     0.210 C 
ENDBRANCH   2  26
BRANCH   5  28
HETATM   28  O   UNK N   1      24.811  19.526   4.423  0.00  0.00    -0.346 OA
BRANCH  28  29
HETATM   29  C   UNK N   1      24.543  20.399   3.391  0.00  0.00     0.201 C 
BRANCH  29  30
HETATM   30  C   UNK N   1      23.175  20.123   2.788  0.00  0.00     0.193 C 
BRANCH  30  31
HETATM   31  O   UNK N   1      22.385  21.276   2.827  0.00  0.00    -0.394 OA
HETATM   32  C   UNK N   1      21.070  20.819   2.710  0.00  0.00     0.201 C 
ENDBRANCH  30  31
ENDBRANCH  29  30
ENDBRANCH  28  29
ENDBRANCH   5  28
TORSDOF 7
ENDMDL
MODEL 3
REMARK VINA RESULT:      -6.5      9.527     11.852
REMARK  7 active torsions:
REMARK  status: ('A' for Active; 'I' for Inactive)
REMARK    1  A    between atoms: C_2  and  O_8 
REMARK    2  A    between atoms: C_2  and  C_9 
REMARK    3  A    between atoms: C_4  and  O_15 
REMARK    4  A    between atoms: C_9  and  O_10 
REMARK    5  A    between atoms: O_10  and  C_11 
REMARK    6  A    between atoms: C_18  and  N_26 
REMARK    7  A    between atoms: C_21  and  N_25 
ROOT
HETATM    1  C   UNK N   1      31.978  17.081   8.364  0.00  0.00     0.046 A 
HETATM    2  C   UNK N   1      33.241  15.281   6.600  0.00  0.00     0.102 A 
HETATM    3  C   UNK N   1      29.340  16.618   5.815  0.00  0.00     0.062 A 
HETATM    4  C   UNK N   1      29.380  17.947   7.833  0.00  0.00     0.034 A 
HETATM    5  C   UNK N   1      33.929  15.736   7.766  0.00  0.00     0.104 A 
HETATM    6  C   UNK N   1      33.285  16.647   8.626  0.00  0.00     0.070 A 
HETATM    7  C   UNK N   1      31.308  16.607   7.224  0.00  0.00     0.005 A 
HETATM    8  C   UNK N   1      31.946  15.715   6.363  0.00  0.00     0.054 A 
HETATM    9  C   UNK N   1      30.010  17.048   6.956  0.00  0.00    -0.005 A 
HETATM   10  C   UNK N   1      28.059  17.074   5.540  0.00  0.00     0.114 A 
HETATM   11  N   UNK N   1      27.449  17.939   6.404  0.00  0.00    -0.328 N 
ATOM     12  HN  UNK N   1      26.505  18.265   6.198  1.00  0.00     0.169 HD
HETATM   13  C   UNK N   1      28.073  18.379   7.537  0.00  0.00     0.113 A 
HETATM   14  C   UNK N   1      30.079  18.386   8.970  0.00  0.00     0.104 A 
HETATM   15  N   UNK N   1      31.352  17.951   9.206  0.00  0.00    -0.364 N 
ATOM     16  HN  UNK N   1      31.847  18.287  10.033  1.00  0.00     0.165 HD
ENDROOT
BRANCH  10  17
HETATM   17  N   UNK N   1      27.410  16.655   4.333  0.00  0.00    -0.303 N 
HETATM   18  C   UNK N   1      26.127  16.896   4.002  0.00  0.00     0.116 A 
HETATM   19  C   UNK N   1      25.890  16.306   2.781  0.00  0.00     0.106 A 
HETATM   20  N   UNK N   1      27.027  15.703   2.368  0.00  0.00    -0.360 N 
HETATM   21  C   UNK N   1      27.939  15.931   3.334  0.00  0.00     0.189 A 
ATOM     22  HN  UNK N   1      27.165  15.183   1.502  1.00  0.00     0.166 HD
ENDBRANCH  10  17
BRANCH  13  23
HETATM   23  N   UNK N   1      27.401  19.278   8.396  0.00  0.00    -0.385 N 
HETATM   24  H   UNK N   1      27.841  19.599   9.216  0.00  0.00     0.157 HD
HETATM   25  H   UNK N   1      26.492  19.583   8.174  0.00  0.00     0.157 HD
ENDBRANCH  13  23
BRANCH   2  26
HETATM   26  O   UNK N   1      33.781  14.457   5.673  0.00  0.00    -0.353 OA
HETATM   27  C   UNK N   1      33.914  14.803   4.352  0.00  0.00     0.210 C 
ENDBRANCH   2  26
BRANCH   5  28
HETATM   28  O   UNK N   1      35.171  15.309   8.108  0.00  0.00    -0.346 OA
BRANCH  28  29
HETATM   29  C   UNK N   1      35.403  14.457   9.168  0.00  0.00     0.201 C 
BRANCH  29  30
HETATM   30  C   UNK N   1      36.660  14.859   9.922  0.00  0.00     0.193 C 
BRANCH  30  31
HETATM   31  O   UNK N   1      36.479  16.098  10.543  0.00  0.00    -0.394 OA
HETATM   32  C   UNK N   1      35.540  15.865  11.552  0.00  0.00     0.201 C 
ENDBRANCH  30  31
ENDBRANCH  29  30
ENDBRANCH  28  29
ENDBRANCH   5  28
TORSDOF 7
ENDMDL
MODEL 4
REMARK VINA RESULT:      -6.5      4.106      6.497
REMARK  7 active torsions:
REMARK  status: ('A' for Active; 'I' for Inactive)
REMARK    1  A    between atoms: C_2  and  O_8 
REMARK    2  A    between atoms: C_2  and  C_9 
REMARK    3  A    between atoms: C_4  and  O_15 
REMARK    4  A    between atoms: C_9  and  O_10 
REMARK    5  A    between atoms: O_10  and  C_11 
REMARK    6  A    between atoms: C_18  and  N_26 
REMARK    7  A    between atoms: C_21  and  N_25 
ROOT
HETATM    1  C   UNK N   1      23.444  19.936   3.274  0.00  0.00     0.046 A 
HETATM    2  C   UNK N   1      25.489  18.511   4.592  0.00  0.00     0.102 A 
HETATM    3  C   UNK N   1      21.652  16.847   4.231  0.00  0.00     0.062 A 
HETATM    4  C   UNK N   1      20.897  18.820   3.056  0.00  0.00     0.034 A 
HETATM    5  C   UNK N   1      25.758  19.805   4.049  0.00  0.00     0.104 A 
HETATM    6  C   UNK N   1      24.725  20.493   3.381  0.00  0.00     0.070 A 
HETATM    7  C   UNK N   1      23.191  18.672   3.832  0.00  0.00     0.005 A 
HETATM    8  C   UNK N   1      24.212  17.982   4.483  0.00  0.00     0.054 A 
HETATM    9  C   UNK N   1      21.917  18.112   3.715  0.00  0.00    -0.005 A 
HETATM   10  C   UNK N   1      20.392  16.283   4.094  0.00  0.00     0.114 A 
HETATM   11  N   UNK N   1      19.402  16.983   3.463  0.00  0.00    -0.328 N 
ATOM     12  HN  UNK N   1      18.477  16.564   3.373  1.00  0.00     0.169 HD
HETATM   13  C   UNK N   1      19.623  18.229   2.949  0.00  0.00     0.113 A 
HETATM   14  C   UNK N   1      21.188  20.087   2.526  0.00  0.00     0.104 A 
HETATM   15  N   UNK N   1      22.443  20.611   2.640  0.00  0.00    -0.364 N 
ATOM     16  HN  UNK N   1      22.637  21.530   2.241  1.00  0.00     0.165 HD
ENDROOT
BRANCH  10  17
HETATM   17  N   UNK N   1      20.159  14.958   4.590  0.00  0.00    -0.303 N 
HETATM   18  C   UNK N   1      19.348  14.039   4.033  0.00  0.00     0.116 A 
HETATM   19  C   UNK N   1      19.383  12.913   4.826  0.00  0.00     0.106 A 
HETATM   20  N   UNK N   1      20.213  13.146   5.865  0.00  0.00    -0.360 N 
HETATM   21  C   UNK N   1      20.673  14.403   5.699  0.00  0.00     0.189 A 
ATOM     22  HN  UNK N   1      20.444  12.503   6.622  1.00  0.00     0.166 HD
ENDBRANCH  10  17
BRANCH  13  23
HETATM   23  N   UNK N   1      18.568  18.910   2.301  0.00  0.00    -0.385 N 
HETATM   24  H   UNK N   1      18.762  19.676   1.713  0.00  0.00     0.157 HD
HETATM   25  H   UNK N   1      17.638  18.617   2.436  0.00  0.00     0.157 HD
ENDBRANCH  13  23
BRANCH   2  26
HETATM   26  O   UNK N   1      26.416  17.735   5.197  0.00  0.00    -0.353 OA
HETATM   27  C   UNK N   1      27.225  16.864   4.511  0.00  0.00     0.210 C 
ENDBRANCH   2  26
BRANCH   5  28
HETATM   28  O   UNK N   1      26.959  20.425   4.171  0.00  0.00    -0.346 OA
BRANCH  28  29
HETATM   29  C   UNK N   1      27.589  20.602   5.384  0.00  0.00     0.201 C 
BRANCH  29  30
HETATM   30  C   UNK N   1      26.825  21.586   6.255  0.00  0.00     0.193 C 
BRANCH  30  31
HETATM   31  O   UNK N   1      26.465  20.987   7.465  0.00  0.00    -0.394 OA
HETATM   32  C   UNK N   1      25.626  21.911   8.093  0.00  0.00     0.201 C 
ENDBRANCH  30  31
ENDBRANCH  29  30
ENDBRANCH  28  29
ENDBRANCH   5  28
TORSDOF 7
ENDMDL
MODEL 5
REMARK VINA RESULT:      -6.5      9.461     11.794
REMARK  7 active torsions:
REMARK  status: ('A' for Active; 'I' for Inactive)
REMARK    1  A    between atoms: C_2  and  O_8 
REMARK    2  A    between atoms: C_2  and  C_9 
REMARK    3  A    between atoms: C_4  and  O_15 
REMARK    4  A    between atoms: C_9  and  O_10 
REMARK    5  A    between atoms: O_10  and  C_11 
REMARK    6  A    between atoms: C_18  and  N_26 
REMARK    7  A    between atoms: C_21  and  N_25 
ROOT
HETATM    1  C   UNK N   1      32.134  16.848   7.415  0.00  0.00     0.046 A 
HETATM    2  C   UNK N   1      33.069  16.648   4.763  0.00  0.00     0.102 A 
HETATM    3  C   UNK N   1      29.171  18.002   5.529  0.00  0.00     0.062 A 
HETATM    4  C   UNK N   1      29.535  17.738   7.904  0.00  0.00     0.034 A 
HETATM    5  C   UNK N   1      33.923  16.284   5.849  0.00  0.00     0.104 A 
HETATM    6  C   UNK N   1      33.440  16.406   7.167  0.00  0.00     0.070 A 
HETATM    7  C   UNK N   1      31.300  17.182   6.335  0.00  0.00     0.005 A 
HETATM    8  C   UNK N   1      31.778  17.075   5.029  0.00  0.00     0.054 A 
HETATM    9  C   UNK N   1      30.002  17.635   6.583  0.00  0.00    -0.005 A 
HETATM   10  C   UNK N   1      27.889  18.472   5.778  0.00  0.00     0.114 A 
HETATM   11  N   UNK N   1      27.438  18.557   7.065  0.00  0.00    -0.328 N 
ATOM     12  HN  UNK N   1      26.493  18.897   7.240  1.00  0.00     0.169 HD
HETATM   13  C   UNK N   1      28.223  18.200   8.125  0.00  0.00     0.113 A 
HETATM   14  C   UNK N   1      30.395  17.380   8.955  0.00  0.00     0.104 A 
HETATM   15  N   UNK N   1      31.665  16.952   8.691  0.00  0.00    -0.364 N 
ATOM     16  HN  UNK N   1      32.278  16.704   9.469  1.00  0.00     0.165 HD
ENDROOT
BRANCH  10  17
HETATM   17  N   UNK N   1      27.070  18.891   4.679  0.00  0.00    -0.303 N 
HETATM   18  C   UNK N   1      27.053  20.122   4.134  0.00  0.00     0.116 A 
HETATM   19  C   UNK N   1      26.117  20.121   3.124  0.00  0.00     0.106 A 
HETATM   20  N   UNK N   1      25.563  18.891   3.054  0.00  0.00    -0.360 N 
HETATM   21  C   UNK N   1      26.162  18.159   4.015  0.00  0.00     0.189 A 
ATOM     22  HN  UNK N   1      24.839  18.580   2.406  1.00  0.00     0.166 HD
ENDBRANCH  10  17
BRANCH  13  23
HETATM   23  N   UNK N   1      27.713  18.313   9.437  0.00  0.00    -0.385 N 
HETATM   24  H   UNK N   1      27.203  17.569   9.834  0.00  0.00     0.157 HD
HETATM   25  H   UNK N   1      27.866  19.136   9.955  0.00  0.00     0.157 HD
ENDBRANCH  13  23
BRANCH   2  26
HETATM   26  O   UNK N   1      33.445  16.630   3.464  0.00  0.00    -0.353 OA
HETATM   27  C   UNK N   1      33.395  15.499   2.688  0.00  0.00     0.210 C 
ENDBRANCH   2  26
BRANCH   5  28
HETATM   28  O   UNK N   1      35.176  15.792   5.675  0.00  0.00    -0.346 OA
BRANCH  28  29
HETATM   29  C   UNK N   1      35.474  14.450   5.784  0.00  0.00     0.201 C 
BRANCH  29  30
HETATM   30  C   UNK N   1      36.358  14.187   6.992  0.00  0.00     0.193 C 
BRANCH  30  31
HETATM   31  O   UNK N   1      35.597  13.680   8.049  0.00  0.00    -0.394 OA
HETATM   32  C   UNK N   1      35.960  14.449   9.159  0.00  0.00     0.201 C 
ENDBRANCH  30  31
ENDBRANCH  29  30
ENDBRANCH  28  29
ENDBRANCH   5  28
TORSDOF 7
ENDMDL
MODEL 6
REMARK VINA RESULT:      -6.4     15.426     17.208
REMARK  7 active torsions:
REMARK  status: ('A' for Active; 'I' for Inactive)
REMARK    1  A    between atoms: C_2  and  O_8 
REMARK    2  A    between atoms: C_2  and  C_9 
REMARK    3  A    between atoms: C_4  and  O_15 
REMARK    4  A    between atoms: C_9  and  O_10 
REMARK    5  A    between atoms: O_10  and  C_11 
REMARK    6  A    between atoms: C_18  and  N_26 
REMARK    7  A    between atoms: C_21  and  N_25 
ROOT
HETATM    1  C   UNK N   1      29.054  21.246  -6.937  0.00  0.00     0.046 A 
HETATM    2  C   UNK N   1      30.847  21.758  -4.823  0.00  0.00     0.102 A 
HETATM    3  C   UNK N   1      27.532  24.260  -5.430  0.00  0.00     0.062 A 
HETATM    4  C   UNK N   1      26.863  22.928  -7.334  0.00  0.00     0.034 A 
HETATM    5  C   UNK N   1      31.069  20.646  -5.692  0.00  0.00     0.104 A 
HETATM    6  C   UNK N   1      30.152  20.400  -6.733  0.00  0.00     0.070 A 
HETATM    7  C   UNK N   1      28.861  22.347  -6.086  0.00  0.00     0.005 A 
HETATM    8  C   UNK N   1      29.759  22.587  -5.047  0.00  0.00     0.054 A 
HETATM    9  C   UNK N   1      27.760  23.183  -6.282  0.00  0.00    -0.005 A 
HETATM   10  C   UNK N   1      26.425  25.077  -5.614  0.00  0.00     0.114 A 
HETATM   11  N   UNK N   1      25.564  24.829  -6.646  0.00  0.00    -0.328 N 
ATOM     12  HN  UNK N   1      24.757  25.438  -6.778  1.00  0.00     0.169 HD
HETATM   13  C   UNK N   1      25.759  23.785  -7.506  0.00  0.00     0.113 A 
HETATM   14  C   UNK N   1      27.100  21.826  -8.171  0.00  0.00     0.104 A 
HETATM   15  N   UNK N   1      28.176  21.014  -7.954  0.00  0.00    -0.364 N 
ATOM     16  HN  UNK N   1      28.327  20.213  -8.569  1.00  0.00     0.165 HD
ENDROOT
BRANCH  10  17
HETATM   17  N   UNK N   1      26.185  26.149  -4.693  0.00  0.00    -0.303 N 
HETATM   18  C   UNK N   1      25.631  27.338  -4.995  0.00  0.00     0.116 A 
HETATM   19  C   UNK N   1      25.601  28.092  -3.842  0.00  0.00     0.106 A 
HETATM   20  N   UNK N   1      26.139  27.363  -2.840  0.00  0.00    -0.360 N 
HETATM   21  C   UNK N   1      26.488  26.181  -3.386  0.00  0.00     0.189 A 
ATOM     22  HN  UNK N   1      26.256  27.650  -1.868  1.00  0.00     0.166 HD
ENDBRANCH  10  17
BRANCH  13  23
HETATM   23  N   UNK N   1      24.838  23.568  -8.555  0.00  0.00    -0.385 N 
HETATM   24  H   UNK N   1      24.901  22.755  -9.108  0.00  0.00     0.157 HD
HETATM   25  H   UNK N   1      24.131  24.230  -8.733  0.00  0.00     0.157 HD
ENDBRANCH  13  23
BRANCH   2  26
HETATM   26  O   UNK N   1      31.624  22.054  -3.756  0.00  0.00    -0.353 OA
HETATM   27  C   UNK N   1      31.118  22.538  -2.575  0.00  0.00     0.210 C 
ENDBRANCH   2  26
BRANCH   5  28
HETATM   28  O   UNK N   1      32.145  19.826  -5.586  0.00  0.00    -0.346 OA
BRANCH  28  29
HETATM   29  C   UNK N   1      33.320  20.041  -6.273  0.00  0.00     0.201 C 
BRANCH  29  30
HETATM   30  C   UNK N   1      34.511  19.515  -5.489  0.00  0.00     0.193 C 
BRANCH  30  31
HETATM   31  O   UNK N   1      34.365  19.805  -4.130  0.00  0.00    -0.394 OA
HETATM   32  C   UNK N   1      35.043  21.013  -3.941  0.00  0.00     0.201 C 
ENDBRANCH  30  31
ENDBRANCH  29  30
ENDBRANCH  28  29
ENDBRANCH   5  28
TORSDOF 7
ENDMDL
MODEL 7
REMARK VINA RESULT:      -6.4     14.253     17.770
REMARK  7 active torsions:
REMARK  status: ('A' for Active; 'I' for Inactive)
REMARK    1  A    between atoms: C_2  and  O_8 
REMARK    2  A    between atoms: C_2  and  C_9 
REMARK    3  A    between atoms: C_4  and  O_15 
REMARK    4  A    between atoms: C_9  and  O_10 
REMARK    5  A    between atoms: O_10  and  C_11 
REMARK    6  A    between atoms: C_18  and  N_26 
REMARK    7  A    between atoms: C_21  and  N_25 
ROOT
HETATM    1  C   UNK N   1      35.158  10.622  16.386  0.00  0.00     0.046 A 
HETATM    2  C   UNK N   1      35.286  13.014  17.873  0.00  0.00     0.102 A 
HETATM    3  C   UNK N   1      35.125  13.142  13.681  0.00  0.00     0.062 A 
HETATM    4  C   UNK N   1      35.065  10.727  13.599  0.00  0.00     0.034 A 
HETATM    5  C   UNK N   1      35.279  11.755  18.548  0.00  0.00     0.104 A 
HETATM    6  C   UNK N   1      35.200  10.573  17.785  0.00  0.00     0.070 A 
HETATM    7  C   UNK N   1      35.186  11.868  15.737  0.00  0.00     0.005 A 
HETATM    8  C   UNK N   1      35.252  13.041  16.487  0.00  0.00     0.054 A 
HETATM    9  C   UNK N   1      35.132  11.918  14.342  0.00  0.00    -0.005 A 
HETATM   10  C   UNK N   1      35.050  13.190  12.296  0.00  0.00     0.114 A 
HETATM   11  N   UNK N   1      34.997  12.027  11.580  0.00  0.00    -0.328 N 
ATOM     12  HN  UNK N   1      34.948  12.071  10.562  1.00  0.00     0.169 HD
HETATM   13  C   UNK N   1      35.008  10.807  12.195  0.00  0.00     0.113 A 
HETATM   14  C   UNK N   1      35.054   9.502  14.286  0.00  0.00     0.104 A 
HETATM   15  N   UNK N   1      35.095   9.476  15.650  0.00  0.00    -0.364 N 
ATOM     16  HN  UNK N   1      35.078   8.576  16.132  1.00  0.00     0.165 HD
ENDROOT
BRANCH  10  17
HETATM   17  N   UNK N   1      34.994  14.464  11.641  0.00  0.00    -0.303 N 
HETATM   18  C   UNK N   1      35.891  15.459  11.775  0.00  0.00     0.116 A 
HETATM   19  C   UNK N   1      35.462  16.517  11.004  0.00  0.00     0.106 A 
HETATM   20  N   UNK N   1      34.304  16.168  10.402  0.00  0.00    -0.360 N 
HETATM   21  C   UNK N   1      34.040  14.910  10.809  0.00  0.00     0.189 A 
ATOM     22  HN  UNK N   1      33.745  16.740   9.770  1.00  0.00     0.166 HD
ENDBRANCH  10  17
BRANCH  13  23
HETATM   23  N   UNK N   1      34.946   9.634  11.410  0.00  0.00    -0.385 N 
HETATM   24  H   UNK N   1      34.310   8.918  11.641  0.00  0.00     0.157 HD
HETATM   25  H   UNK N   1      35.540   9.531  10.632  0.00  0.00     0.157 HD
ENDBRANCH  13  23
BRANCH   2  26
HETATM   26  O   UNK N   1      35.298  14.212  18.501  0.00  0.00    -0.353 OA
HETATM   27  C   UNK N   1      36.011  15.290  18.040  0.00  0.00     0.210 C 
ENDBRANCH   2  26
BRANCH   5  28
HETATM   28  O   UNK N   1      35.379  11.636  19.896  0.00  0.00    -0.346 OA
BRANCH  28  29
HETATM   29  C   UNK N   1      35.752  10.464  20.518  0.00  0.00     0.201 C 
BRANCH  29  30
HETATM   30  C   UNK N   1      34.651   9.963  21.438  0.00  0.00     0.193 C 
BRANCH  30  31
HETATM   31  O   UNK N   1      33.588  10.870  21.462  0.00  0.00    -0.394 OA
HETATM   32  C   UNK N   1      32.699  10.363  22.414  0.00  0.00     0.201 C 
ENDBRANCH  30  31
ENDBRANCH  29  30
ENDBRANCH  28  29
ENDBRANCH   5  28
TORSDOF 7
ENDMDL
MODEL 8
REMARK VINA RESULT:      -6.4     10.048     10.607
REMARK  7 active torsions:
REMARK  status: ('A' for Active; 'I' for Inactive)
REMARK    1  A    between atoms: C_2  and  O_8 
REMARK    2  A    between atoms: C_2  and  C_9 
REMARK    3  A    between atoms: C_4  and  O_15 
REMARK    4  A    between atoms: C_9  and  O_10 
REMARK    5  A    between atoms: O_10  and  C_11 
REMARK    6  A    between atoms: C_18  and  N_26 
REMARK    7  A    between atoms: C_21  and  N_25 
ROOT
HETATM    1  C   UNK N   1      31.733  16.701   5.665  0.00  0.00     0.046 A 
HETATM    2  C   UNK N   1      29.944  17.404   7.727  0.00  0.00     0.102 A 
HETATM    3  C   UNK N   1      33.662  15.688   8.652  0.00  0.00     0.062 A 
HETATM    4  C   UNK N   1      34.194  15.549   6.298  0.00  0.00     0.034 A 
HETATM    5  C   UNK N   1      29.583  17.630   6.364  0.00  0.00     0.104 A 
HETATM    6  C   UNK N   1      30.499  17.284   5.350  0.00  0.00     0.070 A 
HETATM    7  C   UNK N   1      32.064  16.468   7.010  0.00  0.00     0.005 A 
HETATM    8  C   UNK N   1      31.167  16.819   8.018  0.00  0.00     0.054 A 
HETATM    9  C   UNK N   1      33.300  15.898   7.325  0.00  0.00    -0.005 A 
HETATM   10  C   UNK N   1      34.899  15.141   8.964  0.00  0.00     0.114 A 
HETATM   11  N   UNK N   1      35.758  14.794   7.959  0.00  0.00    -0.328 N 
ATOM     12  HN  UNK N   1      36.662  14.387   8.196  1.00  0.00     0.169 HD
HETATM   13  C   UNK N   1      35.434  14.979   6.644  0.00  0.00     0.113 A 
HETATM   14  C   UNK N   1      33.818  15.785   4.966  0.00  0.00     0.104 A 
HETATM   15  N   UNK N   1      32.611  16.355   4.681  0.00  0.00    -0.364 N 
ATOM     16  HN  UNK N   1      32.359  16.526   3.706  1.00  0.00     0.165 HD
ENDROOT
BRANCH  10  17
HETATM   17  N   UNK N   1      35.268  14.982  10.340  0.00  0.00    -0.303 N 
HETATM   18  C   UNK N   1      34.854  13.996  11.158  0.00  0.00     0.116 A 
HETATM   19  C   UNK N   1      35.412  14.218  12.397  0.00  0.00     0.106 A 
HETATM   20  N   UNK N   1      36.163  15.339  12.335  0.00  0.00    -0.360 N 
HETATM   21  C   UNK N   1      36.058  15.787  11.068  0.00  0.00     0.189 A 
ATOM     22  HN  UNK N   1      36.700  15.759  13.093  1.00  0.00     0.166 HD
ENDBRANCH  10  17
BRANCH  13  23
HETATM   23  N   UNK N   1      36.359  14.608   5.643  0.00  0.00    -0.385 N 
HETATM   24  H   UNK N   1      37.323  14.591   5.843  0.00  0.00     0.157 HD
HETATM   25  H   UNK N   1      36.040  14.367   4.744  0.00  0.00     0.157 HD
ENDBRANCH  13  23
BRANCH   2  26
HETATM   26  O   UNK N   1      29.174  17.751   8.783  0.00  0.00    -0.353 OA
HETATM   27  C   UNK N   1      29.602  18.602   9.772  0.00  0.00     0.210 C 
ENDBRANCH   2  26
BRANCH   5  28
HETATM   28  O   UNK N   1      28.381  18.133   5.989  0.00  0.00    -0.346 OA
BRANCH  28  29
HETATM   29  C   UNK N   1      28.087  18.478   4.687  0.00  0.00     0.201 C 
BRANCH  29  30
HETATM   30  C   UNK N   1      27.443  19.853   4.621  0.00  0.00     0.193 C 
BRANCH  30  31
HETATM   31  O   UNK N   1      27.911  20.659   5.662  0.00  0.00    -0.394 OA
HETATM   32  C   UNK N   1      26.784  21.339   6.131  0.00  0.00     0.201 C 
ENDBRANCH  30  31
ENDBRANCH  29  30
ENDBRANCH  28  29
ENDBRANCH   5  28
TORSDOF 7
ENDMDL
MODEL 9
REMARK VINA RESULT:      -6.4     14.899     16.253
REMARK  7 active torsions:
REMARK  status: ('A' for Active; 'I' for Inactive)
REMARK    1  A    between atoms: C_2  and  O_8 
REMARK    2  A    between atoms: C_2  and  C_9 
REMARK    3  A    between atoms: C_4  and  O_15 
REMARK    4  A    between atoms: C_9  and  O_10 
REMARK    5  A    between atoms: O_10  and  C_11 
REMARK    6  A    between atoms: C_18  and  N_26 
REMARK    7  A    between atoms: C_21  and  N_25 
ROOT
HETATM    1  C   UNK N   1      28.471  23.920  -3.822  0.00  0.00     0.046 A 
HETATM    2  C   UNK N   1      26.627  24.234  -5.931  0.00  0.00     0.102 A 
HETATM    3  C   UNK N   1      29.687  21.375  -6.213  0.00  0.00     0.062 A 
HETATM    4  C   UNK N   1      30.507  22.024  -4.033  0.00  0.00     0.034 A 
HETATM    5  C   UNK N   1      26.521  25.052  -4.764  0.00  0.00     0.104 A 
HETATM    6  C   UNK N   1      27.445  24.868  -3.716  0.00  0.00     0.070 A 
HETATM    7  C   UNK N   1      28.573  23.137  -4.984  0.00  0.00     0.005 A 
HETATM    8  C   UNK N   1      27.654  23.307  -6.019  0.00  0.00     0.054 A 
HETATM    9  C   UNK N   1      29.588  22.184  -5.084  0.00  0.00    -0.005 A 
HETATM   10  C   UNK N   1      30.684  20.413  -6.301  0.00  0.00     0.114 A 
HETATM   11  N   UNK N   1      31.581  20.273  -5.279  0.00  0.00    -0.328 N 
ATOM     12  HN  UNK N   1      32.314  19.568  -5.355  1.00  0.00     0.169 HD
HETATM   13  C   UNK N   1      31.518  21.052  -4.159  0.00  0.00     0.113 A 
HETATM   14  C   UNK N   1      30.379  22.836  -2.895  0.00  0.00     0.104 A 
HETATM   15  N   UNK N   1      29.372  23.753  -2.812  0.00  0.00    -0.364 N 
ATOM     16  HN  UNK N   1      29.291  24.329  -1.973  1.00  0.00     0.165 HD
ENDROOT
BRANCH  10  17
HETATM   17  N   UNK N   1      30.734  19.560  -7.451  0.00  0.00    -0.303 N 
HETATM   18  C   UNK N   1      29.704  18.853  -7.953  0.00  0.00     0.116 A 
HETATM   19  C   UNK N   1      30.170  18.146  -9.039  0.00  0.00     0.106 A 
HETATM   20  N   UNK N   1      31.483  18.420  -9.198  0.00  0.00    -0.360 N 
HETATM   21  C   UNK N   1      31.803  19.285  -8.215  0.00  0.00     0.189 A 
ATOM     22  HN  UNK N   1      32.105  18.048  -9.915  1.00  0.00     0.166 HD
ENDBRANCH  10  17
BRANCH  13  23
HETATM   23  N   UNK N   1      32.466  20.863  -3.128  0.00  0.00    -0.385 N 
HETATM   24  H   UNK N   1      33.400  21.147  -3.258  0.00  0.00     0.157 HD
HETATM   25  H   UNK N   1      32.192  20.448  -2.279  0.00  0.00     0.157 HD
ENDBRANCH  13  23
BRANCH   2  26
HETATM   26  O   UNK N   1      25.762  24.279  -6.970  0.00  0.00    -0.353 OA
HETATM   27  C   UNK N   1      26.001  25.007  -8.109  0.00  0.00     0.210 C 
ENDBRANCH   2  26
BRANCH   5  28
HETATM   28  O   UNK N   1      25.590  26.029  -4.626  0.00  0.00    -0.346 OA
BRANCH  28  29
HETATM   29  C   UNK N   1      25.759  27.301  -5.129  0.00  0.00     0.201 C 
BRANCH  29  30
HETATM   30  C   UNK N   1      25.509  28.347  -4.056  0.00  0.00     0.193 C 
BRANCH  30  31
HETATM   31  O   UNK N   1      26.129  27.975  -2.860  0.00  0.00    -0.394 OA
HETATM   32  C   UNK N   1      27.332  28.686  -2.839  0.00  0.00     0.201 C 
ENDBRANCH  30  31
ENDBRANCH  29  30
ENDBRANCH  28  29
ENDBRANCH   5  28
TORSDOF 7
ENDMDL
