MODEL 1
REMARK VINA RESULT:      -7.1      0.000      0.000
REMARK  6 active torsions:
REMARK  status: ('A' for Active; 'I' for Inactive)
REMARK    1  A    between atoms: O_2  and  C_3 
REMARK    2  A    between atoms: C_8  and  C_10 
REMARK    3  A    between atoms: C_14  and  C_15 
REMARK    4  A    between atoms: C_15  and  N_16 
REMARK    5  A    between atoms: N_16  and  C_17 
REMARK    6  A    between atoms: C_23  and  N_24 
ROOT
HETATM    1  C   UNK N   1      32.860  16.534   6.856  0.00  0.00    -0.024 A 
HETATM    2  C   UNK N   1      33.757  17.120   5.947  0.00  0.00     0.012 A 
HETATM    3  C   UNK N   1      33.291  17.652   4.739  0.00  0.00     0.001 A 
HETATM    4  C   UNK N   1      31.922  17.632   4.444  0.00  0.00     0.009 A 
HETATM    5  C   UNK N   1      31.023  17.059   5.351  0.00  0.00    -0.040 A 
HETATM    6  C   UNK N   1      31.494  16.514   6.545  0.00  0.00     0.021 A 
ENDROOT
BRANCH   5   7
HETATM    7  C   UNK N   1      29.552  17.143   5.135  0.00  0.00     0.158 C 
BRANCH   7   8
HETATM    8  N   UNK N   1      28.841  17.641   6.285  0.00  0.00    -0.383 N 
HETATM    9  H   UNK N   1      28.893  17.139   7.132  0.00  0.00     0.160 HD
BRANCH   8  10
HETATM   10  C   UNK N   1      28.065  18.834   6.238  0.00  0.00     0.072 A 
HETATM   11  C   UNK N   1      27.508  19.437   7.394  0.00  0.00     0.125 A 
HETATM   12  N   UNK N   1      26.807  20.598   7.277  0.00  0.00    -0.351 N 
HETATM   13  C   UNK N   1      26.625  21.209   6.078  0.00  0.00     0.090 A 
ATOM     14  HN  UNK N   1      26.407  21.022   8.114  1.00  0.00     0.166 HD
HETATM   15  C   UNK N   1      27.147  20.642   4.916  0.00  0.00     0.019 A 
HETATM   16  C   UNK N   1      27.862  19.448   5.001  0.00  0.00     0.034 A 
BRANCH  11  17
HETATM   17  N   UNK N   1      27.643  18.849   8.667  0.00  0.00    -0.384 N 
HETATM   18  H   UNK N   1      28.118  19.302   9.401  0.00  0.00     0.157 HD
HETATM   19  H   UNK N   1      27.251  17.961   8.828  0.00  0.00     0.157 HD
ENDBRANCH  11  17
ENDBRANCH   8  10
ENDBRANCH   7   8
ENDBRANCH   5   7
BRANCH   1  20
HETATM   20  C   UNK N   1      33.324  15.995   8.155  0.00  0.00    -0.008 A 
HETATM   21  C   UNK N   1      32.399  15.507   9.091  0.00  0.00     0.100 A 
HETATM   22  N   UNK N   1      32.818  15.041  10.298  0.00  0.00    -0.372 N 
HETATM   23  C   UNK N   1      34.131  15.058  10.647  0.00  0.00     0.124 A 
ATOM     24  HN  UNK N   1      32.131  14.670  10.955  1.00  0.00     0.164 HD
HETATM   25  C   UNK N   1      35.096  15.547   9.751  0.00  0.00     0.084 A 
HETATM   26  C   UNK N   1      34.683  16.003   8.497  0.00  0.00     0.051 A 
BRANCH  25  27
HETATM   27  O   UNK N   1      36.408  15.606  10.080  0.00  0.00    -0.355 OA
HETATM   28  C   UNK N   1      37.204  14.489  10.196  0.00  0.00     0.210 C 
ENDBRANCH  25  27
ENDBRANCH   1  20
TORSDOF 6
ENDMDL
MODEL 2
REMARK VINA RESULT:      -6.9     11.887     14.448
REMARK  6 active torsions:
REMARK  status: ('A' for Active; 'I' for Inactive)
REMARK    1  A    between atoms: O_2  and  C_3 
REMARK    2  A    between atoms: C_8  and  C_10 
REMARK    3  A    between atoms: C_14  and  C_15 
REMARK    4  A    between atoms: C_15  and  N_16 
REMARK    5  A    between atoms: N_16  and  C_17 
REMARK    6  A    between atoms: C_23  and  N_24 
ROOT
HETATM    1  C   UNK N   1      29.062  21.518  -6.606  0.00  0.00    -0.024 A 
HETATM    2  C   UNK N   1      28.837  20.581  -7.629  0.00  0.00     0.012 A 
HETATM    3  C   UNK N   1      27.771  20.751  -8.520  0.00  0.00     0.001 A 
HETATM    4  C   UNK N   1      26.941  21.874  -8.417  0.00  0.00     0.009 A 
HETATM    5  C   UNK N   1      27.168  22.816  -7.407  0.00  0.00    -0.040 A 
HETATM    6  C   UNK N   1      28.220  22.633  -6.511  0.00  0.00     0.021 A 
ENDROOT
BRANCH   5   7
HETATM    7  C   UNK N   1      26.395  24.088  -7.353  0.00  0.00     0.158 C 
BRANCH   7   8
HETATM    8  N   UNK N   1      25.581  24.204  -6.169  0.00  0.00    -0.383 N 
HETATM    9  H   UNK N   1      24.955  23.477  -5.949  0.00  0.00     0.160 HD
BRANCH   8  10
HETATM   10  C   UNK N   1      25.652  25.336  -5.309  0.00  0.00     0.072 A 
HETATM   11  C   UNK N   1      26.294  25.305  -4.046  0.00  0.00     0.125 A 
HETATM   12  N   UNK N   1      26.354  26.437  -3.291  0.00  0.00    -0.351 N 
HETATM   13  C   UNK N   1      25.819  27.611  -3.716  0.00  0.00     0.090 A 
ATOM     14  HN  UNK N   1      26.815  26.403  -2.382  1.00  0.00     0.166 HD
HETATM   15  C   UNK N   1      25.169  27.680  -4.947  0.00  0.00     0.019 A 
HETATM   16  C   UNK N   1      25.082  26.536  -5.739  0.00  0.00     0.034 A 
BRANCH  11  17
HETATM   17  N   UNK N   1      26.856  24.118  -3.536  0.00  0.00    -0.384 N 
HETATM   18  H   UNK N   1      26.798  23.883  -2.582  0.00  0.00     0.157 HD
HETATM   19  H   UNK N   1      27.319  23.505  -4.152  0.00  0.00     0.157 HD
ENDBRANCH  11  17
ENDBRANCH   8  10
ENDBRANCH   7   8
ENDBRANCH   5   7
BRANCH   1  20
HETATM   20  C   UNK N   1      30.203  21.378  -5.672  0.00  0.00    -0.008 A 
HETATM   21  C   UNK N   1      31.327  20.621  -6.034  0.00  0.00     0.100 A 
HETATM   22  N   UNK N   1      32.362  20.464  -5.167  0.00  0.00    -0.372 N 
HETATM   23  C   UNK N   1      32.332  21.006  -3.921  0.00  0.00     0.124 A 
ATOM     24  HN  UNK N   1      33.181  19.928  -5.459  1.00  0.00     0.164 HD
HETATM   25  C   UNK N   1      31.224  21.761  -3.505  0.00  0.00     0.084 A 
HETATM   26  C   UNK N   1      30.166  21.955  -4.396  0.00  0.00     0.051 A 
BRANCH  25  27
HETATM   27  O   UNK N   1      31.149  22.288  -2.260  0.00  0.00    -0.355 OA
HETATM   28  C   UNK N   1      30.088  23.055  -1.832  0.00  0.00     0.210 C 
ENDBRANCH  25  27
ENDBRANCH   1  20
TORSDOF 6
ENDMDL
MODEL 3
REMARK VINA RESULT:      -6.9      8.822     13.858
REMARK  6 active torsions:
REMARK  status: ('A' for Active; 'I' for Inactive)
REMARK    1  A    between atoms: O_2  and  C_3 
REMARK    2  A    between atoms: C_8  and  C_10 
REMARK    3  A    between atoms: C_14  and  C_15 
REMARK    4  A    between atoms: C_15  and  N_16 
REMARK    5  A    between atoms: N_16  and  C_17 
REMARK    6  A    between atoms: C_23  and  N_24 
ROOT
HETATM    1  C   UNK N   1      35.092  12.531  16.748  0.00  0.00    -0.024 A 
HETATM    2  C   UNK N   1      34.971  13.758  17.421  0.00  0.00     0.012 A 
HETATM    3  C   UNK N   1      35.102  13.815  18.814  0.00  0.00     0.001 A 
HETATM    4  C   UNK N   1      35.388  12.653  19.541  0.00  0.00     0.009 A 
HETATM    5  C   UNK N   1      35.519  11.430  18.874  0.00  0.00    -0.040 A 
HETATM    6  C   UNK N   1      35.370  11.375  17.489  0.00  0.00     0.021 A 
ENDROOT
BRANCH   5   7
HETATM    7  C   UNK N   1      35.957  10.203  19.595  0.00  0.00     0.158 C 
BRANCH   7   8
HETATM    8  N   UNK N   1      35.186   9.941  20.785  0.00  0.00    -0.383 N 
HETATM    9  H   UNK N   1      35.598  10.101  21.664  0.00  0.00     0.160 HD
BRANCH   8  10
HETATM   10  C   UNK N   1      33.847   9.458  20.729  0.00  0.00     0.072 A 
HETATM   11  C   UNK N   1      32.791  10.026  21.484  0.00  0.00     0.125 A 
HETATM   12  N   UNK N   1      31.528   9.534  21.353  0.00  0.00    -0.351 N 
HETATM   13  C   UNK N   1      31.241   8.511  20.507  0.00  0.00     0.090 A 
ATOM     14  HN  UNK N   1      30.776   9.947  21.904  1.00  0.00     0.166 HD
HETATM   15  C   UNK N   1      32.254   7.918  19.756  0.00  0.00     0.019 A 
HETATM   16  C   UNK N   1      33.559   8.392  19.875  0.00  0.00     0.034 A 
BRANCH  11  17
HETATM   17  N   UNK N   1      33.020  11.078  22.392  0.00  0.00    -0.384 N 
HETATM   18  H   UNK N   1      33.924  11.302  22.711  0.00  0.00     0.157 HD
HETATM   19  H   UNK N   1      32.255  11.606  22.716  0.00  0.00     0.157 HD
ENDBRANCH  11  17
ENDBRANCH   8  10
ENDBRANCH   7   8
ENDBRANCH   5   7
BRANCH   1  20
HETATM   20  C   UNK N   1      34.990  12.449  15.273  0.00  0.00    -0.008 A 
HETATM   21  C   UNK N   1      34.237  11.431  14.669  0.00  0.00     0.100 A 
HETATM   22  N   UNK N   1      34.168  11.333  13.315  0.00  0.00    -0.372 N 
HETATM   23  C   UNK N   1      34.843  12.192  12.507  0.00  0.00     0.124 A 
ATOM     24  HN  UNK N   1      33.596  10.599  12.896  1.00  0.00     0.164 HD
HETATM   25  C   UNK N   1      35.621  13.221  13.061  0.00  0.00     0.084 A 
HETATM   26  C   UNK N   1      35.679  13.350  14.450  0.00  0.00     0.051 A 
BRANCH  25  27
HETATM   27  O   UNK N   1      36.331  14.074  12.285  0.00  0.00    -0.355 OA
HETATM   28  C   UNK N   1      35.893  15.339  11.965  0.00  0.00     0.210 C 
ENDBRANCH  25  27
ENDBRANCH   1  20
TORSDOF 6
ENDMDL
MODEL 4
REMARK VINA RESULT:      -6.9      5.584     10.269
REMARK  6 active torsions:
REMARK  status: ('A' for Active; 'I' for Inactive)
REMARK    1  A    between atoms: O_2  and  C_3 
REMARK    2  A    between atoms: C_8  and  C_10 
REMARK    3  A    between atoms: C_14  and  C_15 
REMARK    4  A    between atoms: C_15  and  N_16 
REMARK    5  A    between atoms: N_16  and  C_17 
REMARK    6  A    between atoms: C_23  and  N_24 
ROOT
HETATM    1  C   UNK N   1      24.109  19.479   3.551  0.00  0.00    -0.024 A 
HETATM    2  C   UNK N   1      24.937  20.490   3.036  0.00  0.00     0.012 A 
HETATM    3  C   UNK N   1      26.318  20.458   3.267  0.00  0.00     0.001 A 
HETATM    4  C   UNK N   1      26.885  19.400   3.988  0.00  0.00     0.009 A 
HETATM    5  C   UNK N   1      26.066  18.385   4.494  0.00  0.00    -0.040 A 
HETATM    6  C   UNK N   1      24.689  18.430   4.276  0.00  0.00     0.021 A 
ENDROOT
BRANCH   5   7
HETATM    7  C   UNK N   1      26.647  17.178   5.143  0.00  0.00     0.158 C 
BRANCH   7   8
HETATM    8  N   UNK N   1      26.962  17.380   6.535  0.00  0.00    -0.383 N 
HETATM    9  H   UNK N   1      26.226  17.492   7.179  0.00  0.00     0.160 HD
BRANCH   8  10
HETATM   10  C   UNK N   1      28.305  17.424   7.008  0.00  0.00     0.072 A 
HETATM   11  C   UNK N   1      28.654  17.920   8.290  0.00  0.00     0.125 A 
HETATM   12  N   UNK N   1      29.955  17.898   8.690  0.00  0.00    -0.351 N 
HETATM   13  C   UNK N   1      30.941  17.405   7.897  0.00  0.00     0.090 A 
ATOM     14  HN  UNK N   1      30.196  18.261   9.612  1.00  0.00     0.166 HD
HETATM   15  C   UNK N   1      30.640  16.919   6.625  0.00  0.00     0.019 A 
HETATM   16  C   UNK N   1      29.319  16.937   6.182  0.00  0.00     0.034 A 
BRANCH  11  17
HETATM   17  N   UNK N   1      27.684  18.460   9.158  0.00  0.00    -0.384 N 
HETATM   18  H   UNK N   1      26.720  18.344   8.997  0.00  0.00     0.157 HD
HETATM   19  H   UNK N   1      27.979  18.968   9.948  0.00  0.00     0.157 HD
ENDBRANCH  11  17
ENDBRANCH   8  10
ENDBRANCH   7   8
ENDBRANCH   5   7
BRANCH   1  20
HETATM   20  C   UNK N   1      22.651  19.472   3.291  0.00  0.00    -0.008 A 
HETATM   21  C   UNK N   1      22.023  20.599   2.739  0.00  0.00     0.100 A 
HETATM   22  N   UNK N   1      20.680  20.609   2.530  0.00  0.00    -0.372 N 
HETATM   23  C   UNK N   1      19.903  19.548   2.870  0.00  0.00     0.124 A 
ATOM     24  HN  UNK N   1      20.247  21.430   2.106  1.00  0.00     0.164 HD
HETATM   25  C   UNK N   1      20.479  18.400   3.436  0.00  0.00     0.084 A 
HETATM   26  C   UNK N   1      21.862  18.366   3.632  0.00  0.00     0.051 A 
BRANCH  25  27
HETATM   27  O   UNK N   1      19.729  17.338   3.815  0.00  0.00    -0.355 OA
HETATM   28  C   UNK N   1      20.045  16.542   4.892  0.00  0.00     0.210 C 
ENDBRANCH  25  27
ENDBRANCH   1  20
TORSDOF 6
ENDMDL
MODEL 5
REMARK VINA RESULT:      -6.8      5.106      9.732
REMARK  6 active torsions:
REMARK  status: ('A' for Active; 'I' for Inactive)
REMARK    1  A    between atoms: O_2  and  C_3 
REMARK    2  A    between atoms: C_8  and  C_10 
REMARK    3  A    between atoms: C_14  and  C_15 
REMARK    4  A    between atoms: C_15  and  N_16 
REMARK    5  A    between atoms: N_16  and  C_17 
REMARK    6  A    between atoms: C_23  and  N_24 
ROOT
HETATM    1  C   UNK N   1      25.353  19.215   4.153  0.00  0.00    -0.024 A 
HETATM    2  C   UNK N   1      26.235  20.242   3.776  0.00  0.00     0.012 A 
HETATM    3  C   UNK N   1      27.607  20.122   4.028  0.00  0.00     0.001 A 
HETATM    4  C   UNK N   1      28.113  18.962   4.627  0.00  0.00     0.009 A 
HETATM    5  C   UNK N   1      27.240  17.932   4.995  0.00  0.00    -0.040 A 
HETATM    6  C   UNK N   1      25.872  18.063   4.758  0.00  0.00     0.021 A 
ENDROOT
BRANCH   5   7
HETATM    7  C   UNK N   1      27.755  16.632   5.506  0.00  0.00     0.158 C 
BRANCH   7   8
HETATM    8  N   UNK N   1      27.936  16.619   6.936  0.00  0.00    -0.383 N 
HETATM    9  H   UNK N   1      27.230  16.232   7.502  0.00  0.00     0.160 HD
BRANCH   8  10
HETATM   10  C   UNK N   1      29.105  17.146   7.556  0.00  0.00     0.072 A 
HETATM   11  C   UNK N   1      29.058  18.016   8.674  0.00  0.00     0.125 A 
HETATM   12  N   UNK N   1      30.218  18.453   9.238  0.00  0.00    -0.351 N 
HETATM   13  C   UNK N   1      31.433  18.074   8.764  0.00  0.00     0.090 A 
ATOM     14  HN  UNK N   1      30.173  19.082  10.039  1.00  0.00     0.166 HD
HETATM   15  C   UNK N   1      31.522  17.228   7.659  0.00  0.00     0.019 A 
HETATM   16  C   UNK N   1      30.352  16.771   7.053  0.00  0.00     0.034 A 
BRANCH  11  17
HETATM   17  N   UNK N   1      27.833  18.462   9.207  0.00  0.00    -0.384 N 
HETATM   18  H   UNK N   1      27.342  19.222   8.817  0.00  0.00     0.157 HD
HETATM   19  H   UNK N   1      27.455  18.002   9.991  0.00  0.00     0.157 HD
ENDBRANCH  11  17
ENDBRANCH   8  10
ENDBRANCH   7   8
ENDBRANCH   5   7
BRANCH   1  20
HETATM   20  C   UNK N   1      23.903  19.304   3.867  0.00  0.00    -0.008 A 
HETATM   21  C   UNK N   1      23.015  18.361   4.409  0.00  0.00     0.100 A 
HETATM   22  N   UNK N   1      21.687  18.420   4.123  0.00  0.00    -0.372 N 
HETATM   23  C   UNK N   1      21.183  19.366   3.288  0.00  0.00     0.124 A 
ATOM     24  HN  UNK N   1      21.056  17.738   4.545  1.00  0.00     0.164 HD
HETATM   25  C   UNK N   1      22.030  20.324   2.710  0.00  0.00     0.084 A 
HETATM   26  C   UNK N   1      23.393  20.294   3.017  0.00  0.00     0.051 A 
BRANCH  25  27
HETATM   27  O   UNK N   1      21.565  21.261   1.850  0.00  0.00    -0.355 OA
HETATM   28  C   UNK N   1      20.543  21.021   0.960  0.00  0.00     0.210 C 
ENDBRANCH  25  27
ENDBRANCH   1  20
TORSDOF 6
ENDMDL
MODEL 6
REMARK VINA RESULT:      -6.8      1.848      2.603
REMARK  6 active torsions:
REMARK  status: ('A' for Active; 'I' for Inactive)
REMARK    1  A    between atoms: O_2  and  C_3 
REMARK    2  A    between atoms: C_8  and  C_10 
REMARK    3  A    between atoms: C_14  and  C_15 
REMARK    4  A    between atoms: C_15  and  N_16 
REMARK    5  A    between atoms: N_16  and  C_17 
REMARK    6  A    between atoms: C_23  and  N_24 
ROOT
HETATM    1  C   UNK N   1      33.956  16.005   9.251  0.00  0.00    -0.024 A 
HETATM    2  C   UNK N   1      34.589  17.246   9.068  0.00  0.00     0.012 A 
HETATM    3  C   UNK N   1      34.078  18.171   8.148  0.00  0.00     0.001 A 
HETATM    4  C   UNK N   1      32.914  17.876   7.429  0.00  0.00     0.009 A 
HETATM    5  C   UNK N   1      32.273  16.646   7.615  0.00  0.00    -0.040 A 
HETATM    6  C   UNK N   1      32.795  15.721   8.519  0.00  0.00     0.021 A 
ENDROOT
BRANCH   5   7
HETATM    7  C   UNK N   1      30.962  16.355   6.973  0.00  0.00     0.158 C 
BRANCH   7   8
HETATM    8  N   UNK N   1      29.855  17.004   7.630  0.00  0.00    -0.383 N 
HETATM    9  H   UNK N   1      29.691  16.817   8.582  0.00  0.00     0.160 HD
BRANCH   8  10
HETATM   10  C   UNK N   1      28.992  17.907   6.946  0.00  0.00     0.072 A 
HETATM   11  C   UNK N   1      28.030  18.708   7.612  0.00  0.00     0.125 A 
HETATM   12  N   UNK N   1      27.263  19.575   6.897  0.00  0.00    -0.351 N 
HETATM   13  C   UNK N   1      27.393  19.707   5.551  0.00  0.00     0.090 A 
ATOM     14  HN  UNK N   1      26.571  20.144   7.385  1.00  0.00     0.166 HD
HETATM   15  C   UNK N   1      28.319  18.929   4.858  0.00  0.00     0.019 A 
HETATM   16  C   UNK N   1      29.114  18.024   5.560  0.00  0.00     0.034 A 
BRANCH  11  17
HETATM   17  N   UNK N   1      27.831  18.611   9.003  0.00  0.00    -0.384 N 
HETATM   18  H   UNK N   1      28.183  17.855   9.528  0.00  0.00     0.157 HD
HETATM   19  H   UNK N   1      27.325  19.319   9.465  0.00  0.00     0.157 HD
ENDBRANCH  11  17
ENDBRANCH   8  10
ENDBRANCH   7   8
ENDBRANCH   5   7
BRANCH   1  20
HETATM   20  C   UNK N   1      34.456  15.025  10.241  0.00  0.00    -0.008 A 
HETATM   21  C   UNK N   1      34.149  13.662  10.107  0.00  0.00     0.100 A 
HETATM   22  N   UNK N   1      34.579  12.763  11.032  0.00  0.00    -0.372 N 
HETATM   23  C   UNK N   1      35.290  13.153  12.122  0.00  0.00     0.124 A 
ATOM     24  HN  UNK N   1      34.364  11.774  10.904  1.00  0.00     0.164 HD
HETATM   25  C   UNK N   1      35.613  14.506  12.310  0.00  0.00     0.084 A 
HETATM   26  C   UNK N   1      35.202  15.437  11.353  0.00  0.00     0.051 A 
BRANCH  25  27
HETATM   27  O   UNK N   1      36.293  14.932  13.401  0.00  0.00    -0.355 OA
HETATM   28  C   UNK N   1      36.514  14.140  14.505  0.00  0.00     0.210 C 
ENDBRANCH  25  27
ENDBRANCH   1  20
TORSDOF 6
ENDMDL
MODEL 7
REMARK VINA RESULT:      -6.8      5.605     11.077
REMARK  6 active torsions:
REMARK  status: ('A' for Active; 'I' for Inactive)
REMARK    1  A    between atoms: O_2  and  C_3 
REMARK    2  A    between atoms: C_8  and  C_10 
REMARK    3  A    between atoms: C_14  and  C_15 
REMARK    4  A    between atoms: C_15  and  N_16 
REMARK    5  A    between atoms: N_16  and  C_17 
REMARK    6  A    between atoms: C_23  and  N_24 
ROOT
HETATM    1  C   UNK N   1      35.933  13.988  11.750  0.00  0.00    -0.024 A 
HETATM    2  C   UNK N   1      36.149  12.657  11.353  0.00  0.00     0.012 A 
HETATM    3  C   UNK N   1      36.536  11.694  12.293  0.00  0.00     0.001 A 
HETATM    4  C   UNK N   1      36.677  12.044  13.641  0.00  0.00     0.009 A 
HETATM    5  C   UNK N   1      36.454  13.366  14.043  0.00  0.00    -0.040 A 
HETATM    6  C   UNK N   1      36.086  14.326  13.101  0.00  0.00     0.021 A 
ENDROOT
BRANCH   5   7
HETATM    7  C   UNK N   1      36.460  13.744  15.484  0.00  0.00     0.158 C 
BRANCH   7   8
HETATM    8  N   UNK N   1      35.260  13.349  16.177  0.00  0.00    -0.383 N 
HETATM    9  H   UNK N   1      34.390  13.473  15.732  0.00  0.00     0.160 HD
BRANCH   8  10
HETATM   10  C   UNK N   1      35.290  12.785  17.484  0.00  0.00     0.072 A 
HETATM   11  C   UNK N   1      35.260  13.571  18.663  0.00  0.00     0.125 A 
HETATM   12  N   UNK N   1      35.256  12.961  19.880  0.00  0.00    -0.351 N 
HETATM   13  C   UNK N   1      35.273  11.609  20.005  0.00  0.00     0.090 A 
ATOM     14  HN  UNK N   1      35.239  13.536  20.723  1.00  0.00     0.166 HD
HETATM   15  C   UNK N   1      35.314  10.801  18.870  0.00  0.00     0.019 A 
HETATM   16  C   UNK N   1      35.329  11.395  17.609  0.00  0.00     0.034 A 
BRANCH  11  17
HETATM   17  N   UNK N   1      35.259  14.979  18.608  0.00  0.00    -0.384 N 
HETATM   18  H   UNK N   1      35.168  15.531  19.418  0.00  0.00     0.157 HD
HETATM   19  H   UNK N   1      35.352  15.424  17.734  0.00  0.00     0.157 HD
ENDBRANCH  11  17
ENDBRANCH   8  10
ENDBRANCH   7   8
ENDBRANCH   5   7
BRANCH   1  20
HETATM   20  C   UNK N   1      35.492  15.018  10.782  0.00  0.00    -0.008 A 
HETATM   21  C   UNK N   1      35.342  16.354  11.187  0.00  0.00     0.100 A 
HETATM   22  N   UNK N   1      34.906  17.296  10.309  0.00  0.00    -0.372 N 
HETATM   23  C   UNK N   1      34.576  16.975   9.031  0.00  0.00     0.124 A 
ATOM     24  HN  UNK N   1      34.825  18.265  10.618  1.00  0.00     0.164 HD
HETATM   25  C   UNK N   1      34.695  15.651   8.580  0.00  0.00     0.084 A 
HETATM   26  C   UNK N   1      35.169  14.678   9.462  0.00  0.00     0.051 A 
BRANCH  25  27
HETATM   27  O   UNK N   1      34.345  15.293   7.322  0.00  0.00    -0.355 OA
HETATM   28  C   UNK N   1      35.235  15.271   6.272  0.00  0.00     0.210 C 
ENDBRANCH  25  27
ENDBRANCH   1  20
TORSDOF 6
ENDMDL
MODEL 8
REMARK VINA RESULT:      -6.8      9.867     10.698
REMARK  6 active torsions:
REMARK  status: ('A' for Active; 'I' for Inactive)
REMARK    1  A    between atoms: O_2  and  C_3 
REMARK    2  A    between atoms: C_8  and  C_10 
REMARK    3  A    between atoms: C_14  and  C_15 
REMARK    4  A    between atoms: C_15  and  N_16 
REMARK    5  A    between atoms: N_16  and  C_17 
REMARK    6  A    between atoms: C_23  and  N_24 
ROOT
HETATM    1  C   UNK N   1      21.647  14.983   8.223  0.00  0.00    -0.024 A 
HETATM    2  C   UNK N   1      20.560  15.682   8.776  0.00  0.00     0.012 A 
HETATM    3  C   UNK N   1      20.100  16.859   8.175  0.00  0.00     0.001 A 
HETATM    4  C   UNK N   1      20.699  17.331   7.001  0.00  0.00     0.009 A 
HETATM    5  C   UNK N   1      21.775  16.633   6.441  0.00  0.00    -0.040 A 
HETATM    6  C   UNK N   1      22.242  15.470   7.052  0.00  0.00     0.021 A 
ENDROOT
BRANCH   5   7
HETATM    7  C   UNK N   1      22.346  17.026   5.123  0.00  0.00     0.158 C 
BRANCH   7   8
HETATM    8  N   UNK N   1      21.360  17.074   4.072  0.00  0.00    -0.383 N 
HETATM    9  H   UNK N   1      20.757  16.305   3.949  0.00  0.00     0.160 HD
BRANCH   8  10
HETATM   10  C   UNK N   1      21.230  18.197   3.207  0.00  0.00     0.072 A 
HETATM   11  C   UNK N   1      20.328  18.227   2.113  0.00  0.00     0.125 A 
HETATM   12  N   UNK N   1      20.231  19.349   1.349  0.00  0.00    -0.351 N 
HETATM   13  C   UNK N   1      20.972  20.458   1.606  0.00  0.00     0.090 A 
ATOM     14  HN  UNK N   1      19.583  19.359   0.562  1.00  0.00     0.166 HD
HETATM   15  C   UNK N   1      21.878  20.465   2.666  0.00  0.00     0.019 A 
HETATM   16  C   UNK N   1      22.008  19.328   3.461  0.00  0.00     0.034 A 
BRANCH  11  17
HETATM   17  N   UNK N   1      19.541  17.107   1.779  0.00  0.00    -0.384 N 
HETATM   18  H   UNK N   1      19.925  16.202   1.716  0.00  0.00     0.157 HD
HETATM   19  H   UNK N   1      18.580  17.232   1.605  0.00  0.00     0.157 HD
ENDBRANCH  11  17
ENDBRANCH   8  10
ENDBRANCH   7   8
ENDBRANCH   5   7
BRANCH   1  20
HETATM   20  C   UNK N   1      22.132  13.717   8.820  0.00  0.00    -0.008 A 
HETATM   21  C   UNK N   1      22.720  12.731   8.012  0.00  0.00     0.100 A 
HETATM   22  N   UNK N   1      23.136  11.555   8.550  0.00  0.00    -0.372 N 
HETATM   23  C   UNK N   1      22.973  11.283   9.871  0.00  0.00     0.124 A 
ATOM     24  HN  UNK N   1      23.582  10.861   7.949  1.00  0.00     0.164 HD
HETATM   25  C   UNK N   1      22.379  12.230  10.721  0.00  0.00     0.084 A 
HETATM   26  C   UNK N   1      21.972  13.455  10.187  0.00  0.00     0.051 A 
BRANCH  25  27
HETATM   27  O   UNK N   1      22.174  11.978  12.035  0.00  0.00    -0.355 OA
HETATM   28  C   UNK N   1      23.197  11.890  12.952  0.00  0.00     0.210 C 
ENDBRANCH  25  27
ENDBRANCH   1  20
TORSDOF 6
ENDMDL
MODEL 9
REMARK VINA RESULT:      -6.6     11.806     14.105
REMARK  6 active torsions:
REMARK  status: ('A' for Active; 'I' for Inactive)
REMARK    1  A    between atoms: O_2  and  C_3 
REMARK    2  A    between atoms: C_8  and  C_10 
REMARK    3  A    between atoms: C_14  and  C_15 
REMARK    4  A    between atoms: C_15  and  N_16 
REMARK    5  A    between atoms: N_16  and  C_17 
REMARK    6  A    between atoms: C_23  and  N_24 
ROOT
HETATM    1  C   UNK N   1      30.980  20.200  -6.365  0.00  0.00    -0.024 A 
HETATM    2  C   UNK N   1      31.580  19.443  -7.385  0.00  0.00     0.012 A 
HETATM    3  C   UNK N   1      30.891  19.194  -8.578  0.00  0.00     0.001 A 
HETATM    4  C   UNK N   1      29.611  19.725  -8.774  0.00  0.00     0.009 A 
HETATM    5  C   UNK N   1      29.012  20.487  -7.765  0.00  0.00    -0.040 A 
HETATM    6  C   UNK N   1      29.695  20.719  -6.572  0.00  0.00     0.021 A 
ENDROOT
BRANCH   5   7
HETATM    7  C   UNK N   1      27.714  21.181  -7.992  0.00  0.00     0.158 C 
BRANCH   7   8
HETATM    8  N   UNK N   1      27.806  22.612  -7.854  0.00  0.00    -0.383 N 
HETATM    9  H   UNK N   1      28.333  23.121  -8.512  0.00  0.00     0.160 HD
BRANCH   8  10
HETATM   10  C   UNK N   1      27.160  23.315  -6.797  0.00  0.00     0.072 A 
HETATM   11  C   UNK N   1      25.815  23.758  -6.875  0.00  0.00     0.125 A 
HETATM   12  N   UNK N   1      25.251  24.393  -5.811  0.00  0.00    -0.351 N 
HETATM   13  C   UNK N   1      25.939  24.613  -4.661  0.00  0.00     0.090 A 
ATOM     14  HN  UNK N   1      24.285  24.711  -5.879  1.00  0.00     0.166 HD
HETATM   15  C   UNK N   1      27.267  24.204  -4.548  0.00  0.00     0.019 A 
HETATM   16  C   UNK N   1      27.876  23.559  -5.624  0.00  0.00     0.034 A 
BRANCH  11  17
HETATM   17  N   UNK N   1      25.049  23.577  -8.044  0.00  0.00    -0.384 N 
HETATM   18  H   UNK N   1      24.946  24.291  -8.713  0.00  0.00     0.157 HD
HETATM   19  H   UNK N   1      24.605  22.711  -8.196  0.00  0.00     0.157 HD
ENDBRANCH  11  17
ENDBRANCH   8  10
ENDBRANCH   7   8
ENDBRANCH   5   7
BRANCH   1  20
HETATM   20  C   UNK N   1      31.700  20.506  -5.108  0.00  0.00    -0.008 A 
HETATM   21  C   UNK N   1      32.912  19.864  -4.811  0.00  0.00     0.100 A 
HETATM   22  N   UNK N   1      33.560  20.119  -3.643  0.00  0.00    -0.372 N 
HETATM   23  C   UNK N   1      33.047  20.974  -2.720  0.00  0.00     0.124 A 
ATOM     24  HN  UNK N   1      34.452  19.658  -3.457  1.00  0.00     0.164 HD
HETATM   25  C   UNK N   1      31.832  21.632  -2.963  0.00  0.00     0.084 A 
HETATM   26  C   UNK N   1      31.169  21.402  -4.170  0.00  0.00     0.051 A 
BRANCH  25  27
HETATM   27  O   UNK N   1      31.278  22.466  -2.051  0.00  0.00    -0.355 OA
HETATM   28  C   UNK N   1      30.008  22.980  -2.177  0.00  0.00     0.210 C 
ENDBRANCH  25  27
ENDBRANCH   1  20
TORSDOF 6
ENDMDL
