MODEL 1
REMARK VINA RESULT:      -6.3      0.000      0.000
REMARK  5 active torsions:
REMARK  status: ('A' for Active; 'I' for Inactive)
REMARK    1  A    between atoms: O_1  and  C_2 
REMARK    2  A    between atoms: C_2  and  C_4 
REMARK    3  A    between atoms: C_8  and  C_9 
REMARK    4  A    between atoms: C_14  and  O_15 
REMARK    5  A    between atoms: O_15  and  C_16 
ROOT
HETATM    1  C   UNK N   1      34.894  12.468  12.956  0.00  0.00     0.031 A 
HETATM    2  C   UNK N   1      34.462  11.261  12.386  0.00  0.00     0.017 A 
HETATM    3  C   UNK N   1      34.016  10.213  13.192  0.00  0.00     0.001 A 
HETATM    4  C   UNK N   1      33.998  10.357  14.579  0.00  0.00     0.003 A 
HETATM    5  C   UNK N   1      34.427  11.552  15.162  0.00  0.00     0.038 A 
HETATM    6  C   UNK N   1      34.879  12.616  14.363  0.00  0.00     0.091 A 
ENDROOT
BRANCH   1   7
HETATM    7  C   UNK N   1      35.387  13.540  12.062  0.00  0.00     0.089 A 
HETATM    8  O   UNK N   1      34.670  14.576  11.705  0.00  0.00    -0.303 OA
HETATM    9  C   UNK N   1      35.380  15.323  10.898  0.00  0.00     0.149 A 
HETATM   10  C   UNK N   1      36.628  14.764  10.703  0.00  0.00     0.047 A 
HETATM   11  C   UNK N   1      36.635  13.607  11.457  0.00  0.00     0.041 A 
BRANCH   9  12
HETATM   12  C   UNK N   1      34.905  16.573  10.296  0.00  0.00     0.201 C 
HETATM   13  O   UNK N   1      35.611  17.569  10.326  0.00  0.00    -0.645 OA
BRANCH  12  14
HETATM   14  O   UNK N   1      33.695  16.628   9.711  0.00  0.00    -0.771 OA
HETATM   15  H   UNK N   1      33.409  17.419   9.298  0.00  0.00     0.167 HD
ENDBRANCH  12  14
ENDBRANCH   9  12
ENDBRANCH   1   7
BRANCH   6  16
HETATM   16  O   UNK N   1      35.292  13.790  14.910  0.00  0.00    -0.254 OA
BRANCH  16  17
HETATM   17  C   UNK N   1      36.570  14.155  15.295  0.00  0.00     0.530 C 
HETATM   18  F   UNK N   1      37.420  13.077  15.148  0.00  0.00    -0.144 F 
HETATM   19  F   UNK N   1      36.527  14.508  16.630  0.00  0.00    -0.144 F 
HETATM   20  F   UNK N   1      37.059  15.232  14.578  0.00  0.00    -0.144 F 
ENDBRANCH  16  17
ENDBRANCH   6  16
TORSDOF 5
ENDMDL
MODEL 2
REMARK VINA RESULT:      -6.3      2.755      4.190
REMARK  5 active torsions:
REMARK  status: ('A' for Active; 'I' for Inactive)
REMARK    1  A    between atoms: O_1  and  C_2 
REMARK    2  A    between atoms: C_2  and  C_4 
REMARK    3  A    between atoms: C_8  and  C_9 
REMARK    4  A    between atoms: C_14  and  O_15 
REMARK    5  A    between atoms: O_15  and  C_16 
ROOT
HETATM    1  C   UNK N   1      35.581  12.819  16.445  0.00  0.00     0.031 A 
HETATM    2  C   UNK N   1      35.298  13.652  17.538  0.00  0.00     0.017 A 
HETATM    3  C   UNK N   1      35.144  13.118  18.818  0.00  0.00     0.001 A 
HETATM    4  C   UNK N   1      35.269  11.744  19.021  0.00  0.00     0.003 A 
HETATM    5  C   UNK N   1      35.550  10.902  17.942  0.00  0.00     0.038 A 
HETATM    6  C   UNK N   1      35.706  11.425  16.647  0.00  0.00     0.091 A 
ENDROOT
BRANCH   1   7
HETATM    7  C   UNK N   1      35.705  13.428  15.101  0.00  0.00     0.089 A 
HETATM    8  O   UNK N   1      34.891  13.171  14.108  0.00  0.00    -0.303 OA
HETATM    9  C   UNK N   1      35.281  13.846  13.056  0.00  0.00     0.149 A 
HETATM   10  C   UNK N   1      36.408  14.588  13.355  0.00  0.00     0.047 A 
HETATM   11  C   UNK N   1      36.685  14.318  14.680  0.00  0.00     0.041 A 
BRANCH   9  12
HETATM   12  C   UNK N   1      34.608  13.811  11.754  0.00  0.00     0.201 C 
HETATM   13  O   UNK N   1      34.824  12.891  10.981  0.00  0.00    -0.645 OA
BRANCH  12  14
HETATM   14  O   UNK N   1      33.750  14.788  11.407  0.00  0.00    -0.771 OA
HETATM   15  H   UNK N   1      32.872  14.780  11.734  0.00  0.00     0.167 HD
ENDBRANCH  12  14
ENDBRANCH   9  12
ENDBRANCH   1   7
BRANCH   6  16
HETATM   16  O   UNK N   1      35.988  10.624  15.586  0.00  0.00    -0.254 OA
BRANCH  16  17
HETATM   17  C   UNK N   1      35.122   9.827  14.859  0.00  0.00     0.530 C 
HETATM   18  F   UNK N   1      35.323  10.041  13.510  0.00  0.00    -0.144 F 
HETATM   19  F   UNK N   1      33.831  10.198  15.180  0.00  0.00    -0.144 F 
HETATM   20  F   UNK N   1      35.268   8.480  15.141  0.00  0.00    -0.144 F 
ENDBRANCH  16  17
ENDBRANCH   6  16
TORSDOF 5
ENDMDL
MODEL 3
REMARK VINA RESULT:      -6.3     20.723     23.274
REMARK  5 active torsions:
REMARK  status: ('A' for Active; 'I' for Inactive)
REMARK    1  A    between atoms: O_1  and  C_2 
REMARK    2  A    between atoms: C_2  and  C_4 
REMARK    3  A    between atoms: C_8  and  C_9 
REMARK    4  A    between atoms: C_14  and  O_15 
REMARK    5  A    between atoms: O_15  and  C_16 
ROOT
HETATM    1  C   UNK N   1      25.959  25.698  -5.225  0.00  0.00     0.031 A 
HETATM    2  C   UNK N   1      25.455  26.906  -5.730  0.00  0.00     0.017 A 
HETATM    3  C   UNK N   1      25.358  28.033  -4.912  0.00  0.00     0.001 A 
HETATM    4  C   UNK N   1      25.761  27.966  -3.579  0.00  0.00     0.003 A 
HETATM    5  C   UNK N   1      26.263  26.769  -3.061  0.00  0.00     0.038 A 
HETATM    6  C   UNK N   1      26.366  25.626  -3.873  0.00  0.00     0.091 A 
ENDROOT
BRANCH   1   7
HETATM    7  C   UNK N   1      26.015  24.522  -6.122  0.00  0.00     0.089 A 
HETATM    8  O   UNK N   1      25.168  23.524  -6.067  0.00  0.00    -0.303 OA
HETATM    9  C   UNK N   1      25.500  22.638  -6.971  0.00  0.00     0.149 A 
HETATM   10  C   UNK N   1      26.619  23.057  -7.664  0.00  0.00     0.047 A 
HETATM   11  C   UNK N   1      26.955  24.278  -7.114  0.00  0.00     0.041 A 
BRANCH   9  12
HETATM   12  C   UNK N   1      24.776  21.385  -7.205  0.00  0.00     0.201 C 
HETATM   13  O   UNK N   1      25.258  20.529  -7.930  0.00  0.00    -0.645 OA
BRANCH  12  14
HETATM   14  O   UNK N   1      23.580  21.173  -6.625  0.00  0.00    -0.771 OA
HETATM   15  H   UNK N   1      23.453  21.387  -5.721  0.00  0.00     0.167 HD
ENDBRANCH  12  14
ENDBRANCH   9  12
ENDBRANCH   1   7
BRANCH   6  16
HETATM   16  O   UNK N   1      26.861  24.455  -3.390  0.00  0.00    -0.254 OA
BRANCH  16  17
HETATM   17  C   UNK N   1      28.174  24.022  -3.369  0.00  0.00     0.530 C 
HETATM   18  F   UNK N   1      28.435  23.401  -2.164  0.00  0.00    -0.144 F 
HETATM   19  F   UNK N   1      28.990  25.132  -3.484  0.00  0.00    -0.144 F 
HETATM   20  F   UNK N   1      28.471  23.158  -4.409  0.00  0.00    -0.144 F 
ENDBRANCH  16  17
ENDBRANCH   6  16
TORSDOF 5
ENDMDL
MODEL 4
REMARK VINA RESULT:      -6.1      5.662      8.455
REMARK  5 active torsions:
REMARK  status: ('A' for Active; 'I' for Inactive)
REMARK    1  A    between atoms: O_1  and  C_2 
REMARK    2  A    between atoms: C_2  and  C_4 
REMARK    3  A    between atoms: C_8  and  C_9 
REMARK    4  A    between atoms: C_14  and  O_15 
REMARK    5  A    between atoms: O_15  and  C_16 
ROOT
HETATM    1  C   UNK N   1      31.894  17.239   6.650  0.00  0.00     0.031 A 
HETATM    2  C   UNK N   1      32.303  17.267   5.308  0.00  0.00     0.017 A 
HETATM    3  C   UNK N   1      31.363  17.359   4.281  0.00  0.00     0.001 A 
HETATM    4  C   UNK N   1      30.003  17.422   4.581  0.00  0.00     0.003 A 
HETATM    5  C   UNK N   1      29.581  17.394   5.913  0.00  0.00     0.038 A 
HETATM    6  C   UNK N   1      30.515  17.300   6.958  0.00  0.00     0.091 A 
ENDROOT
BRANCH   1   7
HETATM    7  C   UNK N   1      32.926  17.110   7.705  0.00  0.00     0.089 A 
HETATM    8  O   UNK N   1      33.005  16.091   8.523  0.00  0.00    -0.303 OA
HETATM    9  C   UNK N   1      34.005  16.287   9.346  0.00  0.00     0.149 A 
HETATM   10  C   UNK N   1      34.623  17.491   9.069  0.00  0.00     0.047 A 
HETATM   11  C   UNK N   1      33.924  18.027   8.005  0.00  0.00     0.041 A 
BRANCH   9  12
HETATM   12  C   UNK N   1      34.401  15.352  10.404  0.00  0.00     0.201 C 
HETATM   13  O   UNK N   1      35.563  14.988  10.491  0.00  0.00    -0.645 OA
BRANCH  12  14
HETATM   14  O   UNK N   1      33.488  14.892  11.279  0.00  0.00    -0.771 OA
HETATM   15  H   UNK N   1      33.538  14.008  11.588  0.00  0.00     0.167 HD
ENDBRANCH  12  14
ENDBRANCH   9  12
ENDBRANCH   1   7
BRANCH   6  16
HETATM   16  O   UNK N   1      30.125  17.280   8.261  0.00  0.00    -0.254 OA
BRANCH  16  17
HETATM   17  C   UNK N   1      29.720  18.340   9.051  0.00  0.00     0.530 C 
HETATM   18  F   UNK N   1      30.734  19.275   9.122  0.00  0.00    -0.144 F 
HETATM   19  F   UNK N   1      29.474  17.855  10.321  0.00  0.00    -0.144 F 
HETATM   20  F   UNK N   1      28.565  18.945   8.588  0.00  0.00    -0.144 F 
ENDBRANCH  16  17
ENDBRANCH   6  16
TORSDOF 5
ENDMDL
MODEL 5
REMARK VINA RESULT:      -6.1     19.517     22.757
REMARK  5 active torsions:
REMARK  status: ('A' for Active; 'I' for Inactive)
REMARK    1  A    between atoms: O_1  and  C_2 
REMARK    2  A    between atoms: C_2  and  C_4 
REMARK    3  A    between atoms: C_8  and  C_9 
REMARK    4  A    between atoms: C_14  and  O_15 
REMARK    5  A    between atoms: O_15  and  C_16 
ROOT
HETATM    1  C   UNK N   1      27.194  26.178  -4.551  0.00  0.00     0.031 A 
HETATM    2  C   UNK N   1      26.672  27.233  -3.789  0.00  0.00     0.017 A 
HETATM    3  C   UNK N   1      25.498  27.879  -4.179  0.00  0.00     0.001 A 
HETATM    4  C   UNK N   1      24.832  27.479  -5.338  0.00  0.00     0.003 A 
HETATM    5  C   UNK N   1      25.341  26.430  -6.108  0.00  0.00     0.038 A 
HETATM    6  C   UNK N   1      26.523  25.772  -5.728  0.00  0.00     0.091 A 
ENDROOT
BRANCH   1   7
HETATM    7  C   UNK N   1      28.459  25.543  -4.114  0.00  0.00     0.089 A 
HETATM    8  O   UNK N   1      28.517  24.397  -3.483  0.00  0.00    -0.303 OA
HETATM    9  C   UNK N   1      29.769  24.124  -3.218  0.00  0.00     0.149 A 
HETATM   10  C   UNK N   1      30.589  25.132  -3.691  0.00  0.00     0.047 A 
HETATM   11  C   UNK N   1      29.740  26.053  -4.272  0.00  0.00     0.041 A 
BRANCH   9  12
HETATM   12  C   UNK N   1      30.223  22.917  -2.520  0.00  0.00     0.201 C 
HETATM   13  O   UNK N   1      30.470  22.961  -1.325  0.00  0.00    -0.645 OA
BRANCH  12  14
HETATM   14  O   UNK N   1      30.368  21.760  -3.191  0.00  0.00    -0.771 OA
HETATM   15  H   UNK N   1      29.614  21.302  -3.506  0.00  0.00     0.167 HD
ENDBRANCH  12  14
ENDBRANCH   9  12
ENDBRANCH   1   7
BRANCH   6  16
HETATM   16  O   UNK N   1      27.030  24.743  -6.459  0.00  0.00    -0.254 OA
BRANCH  16  17
HETATM   17  C   UNK N   1      26.669  23.409  -6.428  0.00  0.00     0.530 C 
HETATM   18  F   UNK N   1      25.816  23.187  -5.365  0.00  0.00    -0.144 F 
HETATM   19  F   UNK N   1      27.816  22.661  -6.241  0.00  0.00    -0.144 F 
HETATM   20  F   UNK N   1      26.065  22.988  -7.600  0.00  0.00    -0.144 F 
ENDBRANCH  16  17
ENDBRANCH   6  16
TORSDOF 5
ENDMDL
MODEL 6
REMARK VINA RESULT:      -5.8      6.128      8.861
REMARK  5 active torsions:
REMARK  status: ('A' for Active; 'I' for Inactive)
REMARK    1  A    between atoms: O_1  and  C_2 
REMARK    2  A    between atoms: C_2  and  C_4 
REMARK    3  A    between atoms: C_8  and  C_9 
REMARK    4  A    between atoms: C_14  and  O_15 
REMARK    5  A    between atoms: O_15  and  C_16 
ROOT
HETATM    1  C   UNK N   1      31.228  17.372   7.694  0.00  0.00     0.031 A 
HETATM    2  C   UNK N   1      30.178  17.801   8.519  0.00  0.00     0.017 A 
HETATM    3  C   UNK N   1      28.863  17.810   8.050  0.00  0.00     0.001 A 
HETATM    4  C   UNK N   1      28.582  17.392   6.750  0.00  0.00     0.003 A 
HETATM    5  C   UNK N   1      29.618  16.963   5.915  0.00  0.00     0.038 A 
HETATM    6  C   UNK N   1      30.947  16.950   6.374  0.00  0.00     0.091 A 
ENDROOT
BRANCH   1   7
HETATM    7  C   UNK N   1      32.609  17.409   8.225  0.00  0.00     0.089 A 
HETATM    8  O   UNK N   1      33.080  16.542   9.087  0.00  0.00    -0.303 OA
HETATM    9  C   UNK N   1      34.318  16.861   9.373  0.00  0.00     0.149 A 
HETATM   10  C   UNK N   1      34.694  17.991   8.673  0.00  0.00     0.047 A 
HETATM   11  C   UNK N   1      33.588  18.348   7.929  0.00  0.00     0.041 A 
BRANCH   9  12
HETATM   12  C   UNK N   1      35.170  16.113  10.303  0.00  0.00     0.201 C 
HETATM   13  O   UNK N   1      34.761  15.079  10.807  0.00  0.00    -0.645 OA
BRANCH  12  14
HETATM   14  O   UNK N   1      36.403  16.562  10.603  0.00  0.00    -0.771 OA
HETATM   15  H   UNK N   1      36.965  16.880   9.924  0.00  0.00     0.167 HD
ENDBRANCH  12  14
ENDBRANCH   9  12
ENDBRANCH   1   7
BRANCH   6  16
HETATM   16  O   UNK N   1      31.967  16.528   5.581  0.00  0.00    -0.254 OA
BRANCH  16  17
HETATM   17  C   UNK N   1      32.566  17.194   4.527  0.00  0.00     0.530 C 
HETATM   18  F   UNK N   1      31.776  18.260   4.147  0.00  0.00    -0.144 F 
HETATM   19  F   UNK N   1      32.664  16.312   3.467  0.00  0.00    -0.144 F 
HETATM   20  F   UNK N   1      33.838  17.646   4.831  0.00  0.00    -0.144 F 
ENDBRANCH  16  17
ENDBRANCH   6  16
TORSDOF 5
ENDMDL
MODEL 7
REMARK VINA RESULT:      -5.8     19.387     22.599
REMARK  5 active torsions:
REMARK  status: ('A' for Active; 'I' for Inactive)
REMARK    1  A    between atoms: O_1  and  C_2 
REMARK    2  A    between atoms: C_2  and  C_4 
REMARK    3  A    between atoms: C_8  and  C_9 
REMARK    4  A    between atoms: C_14  and  O_15 
REMARK    5  A    between atoms: O_15  and  C_16 
ROOT
HETATM    1  C   UNK N   1      27.222  26.146  -4.682  0.00  0.00     0.031 A 
HETATM    2  C   UNK N   1      26.575  25.555  -5.779  0.00  0.00     0.017 A 
HETATM    3  C   UNK N   1      25.366  26.069  -6.252  0.00  0.00     0.001 A 
HETATM    4  C   UNK N   1      24.789  27.178  -5.635  0.00  0.00     0.003 A 
HETATM    5  C   UNK N   1      25.421  27.776  -4.542  0.00  0.00     0.038 A 
HETATM    6  C   UNK N   1      26.637  27.269  -4.053  0.00  0.00     0.091 A 
ENDROOT
BRANCH   1   7
HETATM    7  C   UNK N   1      28.485  25.547  -4.197  0.00  0.00     0.089 A 
HETATM    8  O   UNK N   1      28.549  24.411  -3.548  0.00  0.00    -0.303 OA
HETATM    9  C   UNK N   1      29.799  24.171  -3.239  0.00  0.00     0.149 A 
HETATM   10  C   UNK N   1      30.610  25.190  -3.700  0.00  0.00     0.047 A 
HETATM   11  C   UNK N   1      29.760  26.084  -4.321  0.00  0.00     0.041 A 
BRANCH   9  12
HETATM   12  C   UNK N   1      30.257  22.984  -2.511  0.00  0.00     0.201 C 
HETATM   13  O   UNK N   1      30.419  23.036  -1.302  0.00  0.00    -0.645 OA
BRANCH  12  14
HETATM   14  O   UNK N   1      30.500  21.835  -3.169  0.00  0.00    -0.771 OA
HETATM   15  H   UNK N   1      30.820  21.087  -2.704  0.00  0.00     0.167 HD
ENDBRANCH  12  14
ENDBRANCH   9  12
ENDBRANCH   1   7
BRANCH   6  16
HETATM   16  O   UNK N   1      27.272  27.841  -2.995  0.00  0.00    -0.254 OA
BRANCH  16  17
HETATM   17  C   UNK N   1      27.965  29.038  -2.956  0.00  0.00     0.530 C 
HETATM   18  F   UNK N   1      28.180  29.488  -4.244  0.00  0.00    -0.144 F 
HETATM   19  F   UNK N   1      29.188  28.802  -2.358  0.00  0.00    -0.144 F 
HETATM   20  F   UNK N   1      27.309  30.014  -2.228  0.00  0.00    -0.144 F 
ENDBRANCH  16  17
ENDBRANCH   6  16
TORSDOF 5
ENDMDL
MODEL 8
REMARK VINA RESULT:      -5.8      5.403      8.059
REMARK  5 active torsions:
REMARK  status: ('A' for Active; 'I' for Inactive)
REMARK    1  A    between atoms: O_1  and  C_2 
REMARK    2  A    between atoms: C_2  and  C_4 
REMARK    3  A    between atoms: C_8  and  C_9 
REMARK    4  A    between atoms: C_14  and  O_15 
REMARK    5  A    between atoms: O_15  and  C_16 
ROOT
HETATM    1  C   UNK N   1      33.005  16.626   6.503  0.00  0.00     0.031 A 
HETATM    2  C   UNK N   1      33.682  16.963   5.321  0.00  0.00     0.017 A 
HETATM    3  C   UNK N   1      32.987  17.478   4.226  0.00  0.00     0.001 A 
HETATM    4  C   UNK N   1      31.606  17.662   4.298  0.00  0.00     0.003 A 
HETATM    5  C   UNK N   1      30.918  17.329   5.468  0.00  0.00     0.038 A 
HETATM    6  C   UNK N   1      31.605  16.809   6.578  0.00  0.00     0.091 A 
ENDROOT
BRANCH   1   7
HETATM    7  C   UNK N   1      33.780  16.055   7.627  0.00  0.00     0.089 A 
HETATM    8  O   UNK N   1      34.332  16.776   8.571  0.00  0.00    -0.303 OA
HETATM    9  C   UNK N   1      34.961  15.980   9.398  0.00  0.00     0.149 A 
HETATM   10  C   UNK N   1      34.827  14.666   8.992  0.00  0.00     0.047 A 
HETATM   11  C   UNK N   1      34.062  14.713   7.844  0.00  0.00     0.041 A 
BRANCH   9  12
HETATM   12  C   UNK N   1      35.696  16.432  10.583  0.00  0.00     0.201 C 
HETATM   13  O   UNK N   1      35.155  17.171  11.391  0.00  0.00    -0.645 OA
BRANCH  12  14
HETATM   14  O   UNK N   1      36.966  16.036  10.786  0.00  0.00    -0.771 OA
HETATM   15  H   UNK N   1      37.676  16.616  10.589  0.00  0.00     0.167 HD
ENDBRANCH  12  14
ENDBRANCH   9  12
ENDBRANCH   1   7
BRANCH   6  16
HETATM   16  O   UNK N   1      30.955  16.488   7.728  0.00  0.00    -0.254 OA
BRANCH  16  17
HETATM   17  C   UNK N   1      30.431  17.339   8.684  0.00  0.00     0.530 C 
HETATM   18  F   UNK N   1      30.137  16.623   9.827  0.00  0.00    -0.144 F 
HETATM   19  F   UNK N   1      29.260  17.875   8.181  0.00  0.00    -0.144 F 
HETATM   20  F   UNK N   1      31.283  18.383   8.998  0.00  0.00    -0.144 F 
ENDBRANCH  16  17
ENDBRANCH   6  16
TORSDOF 5
ENDMDL
MODEL 9
REMARK VINA RESULT:      -5.8     16.330     17.986
REMARK  5 active torsions:
REMARK  status: ('A' for Active; 'I' for Inactive)
REMARK    1  A    between atoms: O_1  and  C_2 
REMARK    2  A    between atoms: C_2  and  C_4 
REMARK    3  A    between atoms: C_8  and  C_9 
REMARK    4  A    between atoms: C_14  and  O_15 
REMARK    5  A    between atoms: O_15  and  C_16 
ROOT
HETATM    1  C   UNK N   1      23.153  18.717   4.130  0.00  0.00     0.031 A 
HETATM    2  C   UNK N   1      24.457  18.203   4.186  0.00  0.00     0.017 A 
HETATM    3  C   UNK N   1      25.507  18.855   3.537  0.00  0.00     0.001 A 
HETATM    4  C   UNK N   1      25.265  20.029   2.824  0.00  0.00     0.003 A 
HETATM    5  C   UNK N   1      23.972  20.552   2.758  0.00  0.00     0.038 A 
HETATM    6  C   UNK N   1      22.905  19.905   3.405  0.00  0.00     0.091 A 
ENDROOT
BRANCH   1   7
HETATM    7  C   UNK N   1      22.067  17.973   4.808  0.00  0.00     0.089 A 
HETATM    8  O   UNK N   1      21.150  17.285   4.173  0.00  0.00    -0.303 OA
HETATM    9  C   UNK N   1      20.327  16.768   5.050  0.00  0.00     0.149 A 
HETATM   10  C   UNK N   1      20.706  17.125   6.330  0.00  0.00     0.047 A 
HETATM   11  C   UNK N   1      21.834  17.907   6.175  0.00  0.00     0.041 A 
BRANCH   9  12
HETATM   12  C   UNK N   1      19.174  15.930   4.708  0.00  0.00     0.201 C 
HETATM   13  O   UNK N   1      18.215  15.877   5.462  0.00  0.00    -0.645 OA
BRANCH  12  14
HETATM   14  O   UNK N   1      19.167  15.219   3.566  0.00  0.00    -0.771 OA
HETATM   15  H   UNK N   1      19.811  14.554   3.423  0.00  0.00     0.167 HD
ENDBRANCH  12  14
ENDBRANCH   9  12
ENDBRANCH   1   7
BRANCH   6  16
HETATM   16  O   UNK N   1      21.640  20.403   3.361  0.00  0.00    -0.254 OA
BRANCH  16  17
HETATM   17  C   UNK N   1      20.675  20.209   2.389  0.00  0.00     0.530 C 
HETATM   18  F   UNK N   1      20.508  21.374   1.668  0.00  0.00    -0.144 F 
HETATM   19  F   UNK N   1      19.487  19.904   3.024  0.00  0.00    -0.144 F 
HETATM   20  F   UNK N   1      20.984  19.172   1.526  0.00  0.00    -0.144 F 
ENDBRANCH  16  17
ENDBRANCH   6  16
TORSDOF 5
ENDMDL
