MODEL 1
REMARK VINA RESULT:      -6.4      0.000      0.000
REMARK  4 active torsions:
REMARK  status: ('A' for Active; 'I' for Inactive)
REMARK    1  A    between atoms: O_1  and  C_2 
REMARK    2  A    between atoms: C_2  and  C_4 
REMARK    3  A    between atoms: C_8  and  C_9 
REMARK    4  A    between atoms: C_12  and  N_13 
ROOT
HETATM    1  C   UNK N   1      26.082  26.900  -6.503  0.00  0.00     0.020 A 
HETATM    2  C   UNK N   1      25.212  26.963  -5.407  0.00  0.00     0.018 A 
HETATM    3  C   UNK N   1      25.371  27.923  -4.417  0.00  0.00     0.037 A 
HETATM    4  C   UNK N   1      26.412  28.850  -4.501  0.00  0.00     0.104 A 
HETATM    5  C   UNK N   1      27.292  28.800  -5.593  0.00  0.00     0.060 A 
HETATM    6  C   UNK N   1      27.140  27.836  -6.596  0.00  0.00     0.049 A 
HETATM    7 Cl   UNK N   1      28.294  27.856  -7.923  0.00  0.00    -0.083 Cl
ENDROOT
BRANCH   1   8
HETATM    8  C   UNK N   1      25.816  25.839  -7.490  0.00  0.00     0.088 A 
HETATM    9  O   UNK N   1      25.592  24.607  -7.118  0.00  0.00    -0.303 OA
HETATM   10  C   UNK N   1      25.386  23.871  -8.173  0.00  0.00     0.149 A 
HETATM   11  C   UNK N   1      25.475  24.642  -9.317  0.00  0.00     0.047 A 
HETATM   12  C   UNK N   1      25.755  25.927  -8.873  0.00  0.00     0.041 A 
BRANCH  10  13
HETATM   13  C   UNK N   1      25.105  22.437  -8.093  0.00  0.00     0.201 C 
HETATM   14  O   UNK N   1      26.025  21.649  -7.935  0.00  0.00    -0.645 OA
BRANCH  13  15
HETATM   15  O   UNK N   1      23.844  21.981  -8.191  0.00  0.00    -0.771 OA
HETATM   16  H   UNK N   1      23.140  22.579  -8.348  0.00  0.00     0.167 HD
ENDBRANCH  13  15
ENDBRANCH  10  13
ENDBRANCH   1   8
BRANCH   4  17
HETATM   17  N   UNK N   1      26.570  29.829  -3.486  0.00  0.00    -0.116 N 
HETATM   18  O   UNK N   1      27.118  29.507  -2.334  0.00  0.00    -0.532 OA
HETATM   19  O   UNK N   1      26.206  30.953  -3.670  0.00  0.00    -0.532 OA
ENDBRANCH   4  17
TORSDOF 4
ENDMDL
MODEL 2
REMARK VINA RESULT:      -6.3     14.185     15.367
REMARK  4 active torsions:
REMARK  status: ('A' for Active; 'I' for Inactive)
REMARK    1  A    between atoms: O_1  and  C_2 
REMARK    2  A    between atoms: C_2  and  C_4 
REMARK    3  A    between atoms: C_8  and  C_9 
REMARK    4  A    between atoms: C_12  and  N_13 
ROOT
HETATM    1  C   UNK N   1      27.212  19.052   5.416  0.00  0.00     0.020 A 
HETATM    2  C   UNK N   1      26.556  18.209   4.510  0.00  0.00     0.018 A 
HETATM    3  C   UNK N   1      25.655  18.713   3.581  0.00  0.00     0.037 A 
HETATM    4  C   UNK N   1      25.387  20.083   3.537  0.00  0.00     0.104 A 
HETATM    5  C   UNK N   1      26.037  20.940   4.439  0.00  0.00     0.060 A 
HETATM    6  C   UNK N   1      26.946  20.442   5.378  0.00  0.00     0.049 A 
HETATM    7 Cl   UNK N   1      27.708  21.597   6.463  0.00  0.00    -0.083 Cl
ENDROOT
BRANCH   1   8
HETATM    8  C   UNK N   1      28.146  18.404   6.354  0.00  0.00     0.088 A 
HETATM    9  O   UNK N   1      27.982  18.498   7.647  0.00  0.00    -0.303 OA
HETATM   10  C   UNK N   1      28.933  17.843   8.248  0.00  0.00     0.149 A 
HETATM   11  C   UNK N   1      29.784  17.277   7.317  0.00  0.00     0.047 A 
HETATM   12  C   UNK N   1      29.271  17.642   6.080  0.00  0.00     0.041 A 
BRANCH  10  13
HETATM   13  C   UNK N   1      29.033  17.756   9.706  0.00  0.00     0.201 C 
HETATM   14  O   UNK N   1      28.454  16.859  10.298  0.00  0.00    -0.645 OA
BRANCH  13  15
HETATM   15  O   UNK N   1      29.757  18.654  10.396  0.00  0.00    -0.771 OA
HETATM   16  H   UNK N   1      30.437  18.366  10.973  0.00  0.00     0.167 HD
ENDBRANCH  13  15
ENDBRANCH  10  13
ENDBRANCH   1   8
BRANCH   4  17
HETATM   17  N   UNK N   1      24.466  20.593   2.587  0.00  0.00    -0.116 N 
HETATM   18  O   UNK N   1      23.350  21.166   2.986  0.00  0.00    -0.532 OA
HETATM   19  O   UNK N   1      24.695  20.506   1.417  0.00  0.00    -0.532 OA
ENDBRANCH   4  17
TORSDOF 4
ENDMDL
MODEL 3
REMARK VINA RESULT:      -6.3     16.036     16.684
REMARK  4 active torsions:
REMARK  status: ('A' for Active; 'I' for Inactive)
REMARK    1  A    between atoms: O_1  and  C_2 
REMARK    2  A    between atoms: C_2  and  C_4 
REMARK    3  A    between atoms: C_8  and  C_9 
REMARK    4  A    between atoms: C_12  and  N_13 
ROOT
HETATM    1  C   UNK N   1      31.428  17.204   6.417  0.00  0.00     0.020 A 
HETATM    2  C   UNK N   1      31.307  17.508   7.780  0.00  0.00     0.018 A 
HETATM    3  C   UNK N   1      32.417  17.843   8.543  0.00  0.00     0.037 A 
HETATM    4  C   UNK N   1      33.684  17.883   7.957  0.00  0.00     0.104 A 
HETATM    5  C   UNK N   1      33.822  17.581   6.593  0.00  0.00     0.060 A 
HETATM    6  C   UNK N   1      32.710  17.242   5.816  0.00  0.00     0.049 A 
HETATM    7 Cl   UNK N   1      32.986  16.881   4.117  0.00  0.00    -0.083 Cl
ENDROOT
BRANCH   1   8
HETATM    8  C   UNK N   1      30.182  16.862   5.709  0.00  0.00     0.088 A 
HETATM    9  O   UNK N   1      29.457  17.781   5.130  0.00  0.00    -0.303 OA
HETATM   10  C   UNK N   1      28.417  17.224   4.580  0.00  0.00     0.149 A 
HETATM   11  C   UNK N   1      28.438  15.859   4.796  0.00  0.00     0.047 A 
HETATM   12  C   UNK N   1      29.590  15.621   5.534  0.00  0.00     0.041 A 
BRANCH  10  13
HETATM   13  C   UNK N   1      27.405  17.988   3.849  0.00  0.00     0.201 C 
HETATM   14  O   UNK N   1      26.408  17.422   3.427  0.00  0.00    -0.645 OA
BRANCH  13  15
HETATM   15  O   UNK N   1      27.564  19.306   3.639  0.00  0.00    -0.771 OA
HETATM   16  H   UNK N   1      26.898  19.908   3.910  0.00  0.00     0.167 HD
ENDBRANCH  13  15
ENDBRANCH  10  13
ENDBRANCH   1   8
BRANCH   4  17
HETATM   17  N   UNK N   1      34.815  18.227   8.742  0.00  0.00    -0.116 N 
HETATM   18  O   UNK N   1      35.452  19.359   8.526  0.00  0.00    -0.532 OA
HETATM   19  O   UNK N   1      35.197  17.493   9.604  0.00  0.00    -0.532 OA
ENDBRANCH   4  17
TORSDOF 4
ENDMDL
MODEL 4
REMARK VINA RESULT:      -6.1     13.322     14.473
REMARK  4 active torsions:
REMARK  status: ('A' for Active; 'I' for Inactive)
REMARK    1  A    between atoms: O_1  and  C_2 
REMARK    2  A    between atoms: C_2  and  C_4 
REMARK    3  A    between atoms: C_8  and  C_9 
REMARK    4  A    between atoms: C_12  and  N_13 
ROOT
HETATM    1  C   UNK N   1      25.280  19.133   4.266  0.00  0.00     0.020 A 
HETATM    2  C   UNK N   1      25.294  20.299   3.488  0.00  0.00     0.018 A 
HETATM    3  C   UNK N   1      24.140  20.766   2.872  0.00  0.00     0.037 A 
HETATM    4  C   UNK N   1      22.937  20.073   3.021  0.00  0.00     0.104 A 
HETATM    5  C   UNK N   1      22.907  18.904   3.797  0.00  0.00     0.060 A 
HETATM    6  C   UNK N   1      24.063  18.425   4.421  0.00  0.00     0.049 A 
HETATM    7 Cl   UNK N   1      23.923  16.953   5.372  0.00  0.00    -0.083 Cl
ENDROOT
BRANCH   1   8
HETATM    8  C   UNK N   1      26.563  18.734   4.870  0.00  0.00     0.088 A 
HETATM    9  O   UNK N   1      26.778  18.860   6.152  0.00  0.00    -0.303 OA
HETATM   10  C   UNK N   1      27.978  18.440   6.429  0.00  0.00     0.149 A 
HETATM   11  C   UNK N   1      28.610  18.006   5.278  0.00  0.00     0.047 A 
HETATM   12  C   UNK N   1      27.687  18.198   4.259  0.00  0.00     0.041 A 
BRANCH  10  13
HETATM   13  C   UNK N   1      28.525  18.450   7.787  0.00  0.00     0.201 C 
HETATM   14  O   UNK N   1      29.703  18.182   7.966  0.00  0.00    -0.645 OA
BRANCH  13  15
HETATM   15  O   UNK N   1      27.742  18.752   8.837  0.00  0.00    -0.771 OA
HETATM   16  H   UNK N   1      27.555  19.648   9.040  0.00  0.00     0.167 HD
ENDBRANCH  13  15
ENDBRANCH  10  13
ENDBRANCH   1   8
BRANCH   4  17
HETATM   17  N   UNK N   1      21.762  20.556   2.390  0.00  0.00    -0.116 N 
HETATM   18  O   UNK N   1      21.684  20.597   1.076  0.00  0.00    -0.532 OA
HETATM   19  O   UNK N   1      20.834  20.928   3.045  0.00  0.00    -0.532 OA
ENDBRANCH   4  17
TORSDOF 4
ENDMDL
MODEL 5
REMARK VINA RESULT:      -6.1     13.769     14.575
REMARK  4 active torsions:
REMARK  status: ('A' for Active; 'I' for Inactive)
REMARK    1  A    between atoms: O_1  and  C_2 
REMARK    2  A    between atoms: C_2  and  C_4 
REMARK    3  A    between atoms: C_8  and  C_9 
REMARK    4  A    between atoms: C_12  and  N_13 
ROOT
HETATM    1  C   UNK N   1      26.743  19.195   5.468  0.00  0.00     0.020 A 
HETATM    2  C   UNK N   1      26.910  17.805   5.531  0.00  0.00     0.018 A 
HETATM    3  C   UNK N   1      27.667  17.217   6.535  0.00  0.00     0.037 A 
HETATM    4  C   UNK N   1      28.278  18.011   7.508  0.00  0.00     0.104 A 
HETATM    5  C   UNK N   1      28.119  19.405   7.459  0.00  0.00     0.060 A 
HETATM    6  C   UNK N   1      27.359  20.007   6.451  0.00  0.00     0.049 A 
HETATM    7 Cl   UNK N   1      27.220  21.759   6.476  0.00  0.00    -0.083 Cl
ENDROOT
BRANCH   1   8
HETATM    8  C   UNK N   1      25.919  19.706   4.358  0.00  0.00     0.088 A 
HETATM    9  O   UNK N   1      24.616  19.623   4.387  0.00  0.00    -0.303 OA
HETATM   10  C   UNK N   1      24.129  20.141   3.296  0.00  0.00     0.149 A 
HETATM   11  C   UNK N   1      25.153  20.599   2.487  0.00  0.00     0.047 A 
HETATM   12  C   UNK N   1      26.323  20.315   3.180  0.00  0.00     0.041 A 
BRANCH  10  13
HETATM   13  C   UNK N   1      22.692  20.202   3.022  0.00  0.00     0.201 C 
HETATM   14  O   UNK N   1      22.185  21.263   2.693  0.00  0.00    -0.645 OA
BRANCH  13  15
HETATM   15  O   UNK N   1      21.929  19.101   3.132  0.00  0.00    -0.771 OA
HETATM   16  H   UNK N   1      20.998  19.181   3.210  0.00  0.00     0.167 HD
ENDBRANCH  13  15
ENDBRANCH  10  13
ENDBRANCH   1   8
BRANCH   4  17
HETATM   17  N   UNK N   1      29.050  17.404   8.532  0.00  0.00    -0.116 N 
HETATM   18  O   UNK N   1      30.228  16.886   8.256  0.00  0.00    -0.532 OA
HETATM   19  O   UNK N   1      28.637  17.359   9.653  0.00  0.00    -0.532 OA
ENDBRANCH   4  17
TORSDOF 4
ENDMDL
MODEL 6
REMARK VINA RESULT:      -6.1     26.651     27.448
REMARK  4 active torsions:
REMARK  status: ('A' for Active; 'I' for Inactive)
REMARK    1  A    between atoms: O_1  and  C_2 
REMARK    2  A    between atoms: C_2  and  C_4 
REMARK    3  A    between atoms: C_8  and  C_9 
REMARK    4  A    between atoms: C_12  and  N_13 
ROOT
HETATM    1  C   UNK N   1      35.584  12.693  15.458  0.00  0.00     0.020 A 
HETATM    2  C   UNK N   1      35.602  13.835  16.270  0.00  0.00     0.018 A 
HETATM    3  C   UNK N   1      35.418  13.743  17.643  0.00  0.00     0.037 A 
HETATM    4  C   UNK N   1      35.210  12.498  18.241  0.00  0.00     0.104 A 
HETATM    5  C   UNK N   1      35.190  11.345  17.440  0.00  0.00     0.060 A 
HETATM    6  C   UNK N   1      35.374  11.427  16.057  0.00  0.00     0.049 A 
HETATM    7 Cl   UNK N   1      35.331   9.926  15.141  0.00  0.00    -0.083 Cl
ENDROOT
BRANCH   1   8
HETATM    8  C   UNK N   1      35.790  12.912  14.016  0.00  0.00     0.088 A 
HETATM    9  O   UNK N   1      34.908  13.550  13.294  0.00  0.00    -0.303 OA
HETATM   10  C   UNK N   1      35.324  13.609  12.062  0.00  0.00     0.149 A 
HETATM   11  C   UNK N   1      36.549  12.980  11.941  0.00  0.00     0.047 A 
HETATM   12  C   UNK N   1      36.855  12.525  13.217  0.00  0.00     0.041 A 
BRANCH  10  13
HETATM   13  C   UNK N   1      34.558  14.263  10.999  0.00  0.00     0.201 C 
HETATM   14  O   UNK N   1      34.955  14.207   9.846  0.00  0.00    -0.645 OA
BRANCH  13  15
HETATM   15  O   UNK N   1      33.421  14.923  11.283  0.00  0.00    -0.771 OA
HETATM   16  H   UNK N   1      32.759  14.513  11.805  0.00  0.00     0.167 HD
ENDBRANCH  13  15
ENDBRANCH  10  13
ENDBRANCH   1   8
BRANCH   4  17
HETATM   17  N   UNK N   1      35.023  12.411  19.644  0.00  0.00    -0.116 N 
HETATM   18  O   UNK N   1      35.201  11.264  20.267  0.00  0.00    -0.532 OA
HETATM   19  O   UNK N   1      34.704  13.376  20.272  0.00  0.00    -0.532 OA
ENDBRANCH   4  17
TORSDOF 4
ENDMDL
MODEL 7
REMARK VINA RESULT:      -6.0     17.562     18.694
REMARK  4 active torsions:
REMARK  status: ('A' for Active; 'I' for Inactive)
REMARK    1  A    between atoms: O_1  and  C_2 
REMARK    2  A    between atoms: C_2  and  C_4 
REMARK    3  A    between atoms: C_8  and  C_9 
REMARK    4  A    between atoms: C_12  and  N_13 
ROOT
HETATM    1  C   UNK N   1      30.721  17.086   7.389  0.00  0.00     0.020 A 
HETATM    2  C   UNK N   1      30.402  16.287   6.283  0.00  0.00     0.018 A 
HETATM    3  C   UNK N   1      29.083  16.094   5.893  0.00  0.00     0.037 A 
HETATM    4  C   UNK N   1      28.046  16.699   6.606  0.00  0.00     0.104 A 
HETATM    5  C   UNK N   1      28.350  17.501   7.717  0.00  0.00     0.060 A 
HETATM    6  C   UNK N   1      29.675  17.703   8.117  0.00  0.00     0.049 A 
HETATM    7 Cl   UNK N   1      29.953  18.725   9.521  0.00  0.00    -0.083 Cl
ENDROOT
BRANCH   1   8
HETATM    8  C   UNK N   1      32.154  17.219   7.708  0.00  0.00     0.088 A 
HETATM    9  O   UNK N   1      32.626  16.859   8.872  0.00  0.00    -0.303 OA
HETATM   10  C   UNK N   1      33.909  17.077   8.900  0.00  0.00     0.149 A 
HETATM   11  C   UNK N   1      34.329  17.610   7.696  0.00  0.00     0.047 A 
HETATM   12  C   UNK N   1      33.184  17.704   6.916  0.00  0.00     0.041 A 
BRANCH  10  13
HETATM   13  C   UNK N   1      34.736  16.777  10.071  0.00  0.00     0.201 C 
HETATM   14  O   UNK N   1      35.713  17.469  10.313  0.00  0.00    -0.645 OA
BRANCH  13  15
HETATM   15  O   UNK N   1      34.428  15.749  10.879  0.00  0.00    -0.771 OA
HETATM   16  H   UNK N   1      35.100  15.163  11.169  0.00  0.00     0.167 HD
ENDBRANCH  13  15
ENDBRANCH  10  13
ENDBRANCH   1   8
BRANCH   4  17
HETATM   17  N   UNK N   1      26.701  16.497   6.203  0.00  0.00    -0.116 N 
HETATM   18  O   UNK N   1      26.180  17.229   5.241  0.00  0.00    -0.532 OA
HETATM   19  O   UNK N   1      26.030  15.663   6.734  0.00  0.00    -0.532 OA
ENDBRANCH   4  17
TORSDOF 4
ENDMDL
MODEL 8
REMARK VINA RESULT:      -5.9     14.486     15.516
REMARK  4 active torsions:
REMARK  status: ('A' for Active; 'I' for Inactive)
REMARK    1  A    between atoms: O_1  and  C_2 
REMARK    2  A    between atoms: C_2  and  C_4 
REMARK    3  A    between atoms: C_8  and  C_9 
REMARK    4  A    between atoms: C_12  and  N_13 
ROOT
HETATM    1  C   UNK N   1      27.633  18.481   5.100  0.00  0.00     0.020 A 
HETATM    2  C   UNK N   1      27.771  19.712   4.444  0.00  0.00     0.018 A 
HETATM    3  C   UNK N   1      26.699  20.298   3.783  0.00  0.00     0.037 A 
HETATM    4  C   UNK N   1      25.456  19.662   3.763  0.00  0.00     0.104 A 
HETATM    5  C   UNK N   1      25.303  18.429   4.416  0.00  0.00     0.060 A 
HETATM    6  C   UNK N   1      26.375  17.830   5.084  0.00  0.00     0.049 A 
HETATM    7 Cl   UNK N   1      26.082  16.286   5.871  0.00  0.00    -0.083 Cl
ENDROOT
BRANCH   1   8
HETATM    8  C   UNK N   1      28.837  17.957   5.767  0.00  0.00     0.088 A 
HETATM    9  O   UNK N   1      28.950  17.964   7.068  0.00  0.00    -0.303 OA
HETATM   10  C   UNK N   1      30.099  17.450   7.402  0.00  0.00     0.149 A 
HETATM   11  C   UNK N   1      30.800  17.075   6.272  0.00  0.00     0.047 A 
HETATM   12  C   UNK N   1      29.978  17.405   5.203  0.00  0.00     0.041 A 
BRANCH  10  13
HETATM   13  C   UNK N   1      30.529  17.316   8.795  0.00  0.00     0.201 C 
HETATM   14  O   UNK N   1      29.698  17.122   9.668  0.00  0.00    -0.645 OA
BRANCH  13  15
HETATM   15  O   UNK N   1      31.831  17.403   9.119  0.00  0.00    -0.771 OA
HETATM   16  H   UNK N   1      32.134  18.109   9.656  0.00  0.00     0.167 HD
ENDBRANCH  13  15
ENDBRANCH  10  13
ENDBRANCH   1   8
BRANCH   4  17
HETATM   17  N   UNK N   1      24.365  20.266   3.086  0.00  0.00    -0.116 N 
HETATM   18  O   UNK N   1      24.562  20.916   1.958  0.00  0.00    -0.532 OA
HETATM   19  O   UNK N   1      23.260  20.190   3.534  0.00  0.00    -0.532 OA
ENDBRANCH   4  17
TORSDOF 4
ENDMDL
MODEL 9
REMARK VINA RESULT:      -5.9     12.678     13.582
REMARK  4 active torsions:
REMARK  status: ('A' for Active; 'I' for Inactive)
REMARK    1  A    between atoms: O_1  and  C_2 
REMARK    2  A    between atoms: C_2  and  C_4 
REMARK    3  A    between atoms: C_8  and  C_9 
REMARK    4  A    between atoms: C_12  and  N_13 
ROOT
HETATM    1  C   UNK N   1      25.153  19.163   3.803  0.00  0.00     0.020 A 
HETATM    2  C   UNK N   1      24.995  20.354   3.082  0.00  0.00     0.018 A 
HETATM    3  C   UNK N   1      23.735  20.826   2.742  0.00  0.00     0.037 A 
HETATM    4  C   UNK N   1      22.594  20.114   3.119  0.00  0.00     0.104 A 
HETATM    5  C   UNK N   1      22.737  18.919   3.842  0.00  0.00     0.060 A 
HETATM    6  C   UNK N   1      24.002  18.435   4.189  0.00  0.00     0.049 A 
HETATM    7 Cl   UNK N   1      24.075  16.930   5.095  0.00  0.00    -0.083 Cl
ENDROOT
BRANCH   1   8
HETATM    8  C   UNK N   1      26.538  18.760   4.106  0.00  0.00     0.088 A 
HETATM    9  O   UNK N   1      27.083  17.721   3.532  0.00  0.00    -0.303 OA
HETATM   10  C   UNK N   1      28.302  17.581   3.968  0.00  0.00     0.149 A 
HETATM   11  C   UNK N   1      28.599  18.574   4.883  0.00  0.00     0.047 A 
HETATM   12  C   UNK N   1      27.447  19.345   4.975  0.00  0.00     0.041 A 
BRANCH  10  13
HETATM   13  C   UNK N   1      29.185  16.504   3.515  0.00  0.00     0.201 C 
HETATM   14  O   UNK N   1      29.151  15.420   4.076  0.00  0.00    -0.645 OA
BRANCH  13  15
HETATM   15  O   UNK N   1      30.030  16.700   2.488  0.00  0.00    -0.771 OA
HETATM   16  H   UNK N   1      29.698  16.770   1.614  0.00  0.00     0.167 HD
ENDBRANCH  13  15
ENDBRANCH  10  13
ENDBRANCH   1   8
BRANCH   4  17
HETATM   17  N   UNK N   1      21.309  20.602   2.769  0.00  0.00    -0.116 N 
HETATM   18  O   UNK N   1      20.347  20.638   3.667  0.00  0.00    -0.532 OA
HETATM   19  O   UNK N   1      21.090  20.983   1.658  0.00  0.00    -0.532 OA
ENDBRANCH   4  17
TORSDOF 4
ENDMDL
