MODEL 1
REMARK VINA RESULT:      -6.2      0.000      0.000
REMARK  4 active torsions:
REMARK  status: ('A' for Active; 'I' for Inactive)
REMARK    1  A    between atoms: C_7  and  N_9 
REMARK    2  A    between atoms: N_9  and  C_10 
REMARK       I    between atoms: N_13  and  C_16 
REMARK    3  A    between atoms: C_16  and  O_18 
REMARK    4  A    between atoms: O_18  and  C_19 
ROOT
HETATM    1  C   UNK N   1      35.891  15.034  11.024  0.00  0.00     0.086 C 
HETATM    2  C   UNK N   1      35.415  16.457  10.748  0.00  0.00     0.045 C 
HETATM    3  C   UNK N   1      34.455  16.433   9.547  0.00  0.00     0.130 C 
HETATM    4  N   UNK N   1      35.023  15.705   8.418  0.00  0.00    -0.328 N 
HETATM    5  C   UNK N   1      35.647  14.421   8.681  0.00  0.00     0.130 C 
HETATM    6  C   UNK N   1      36.662  14.554   9.804  0.00  0.00     0.045 C 
HETATM    7  C   UNK N   1      34.929  16.136   7.115  0.00  0.00     0.362 C 
HETATM    8  O   UNK N   1      35.382  15.431   6.225  0.00  0.00    -0.238 OA
ENDROOT
BRANCH   1   9
HETATM    9  N   UNK N   1      36.669  14.944  12.242  0.00  0.00    -0.371 N 
HETATM   10  H   UNK N   1      37.518  15.439  12.298  0.00  0.00     0.161 HD
BRANCH   9  11
HETATM   11  C   UNK N   1      36.254  14.169  13.362  0.00  0.00     0.102 A 
HETATM   12  N   UNK N   1      36.776  14.429  14.594  0.00  0.00    -0.352 N 
HETATM   13  C   UNK N   1      36.416  13.705  15.690  0.00  0.00     0.091 A 
ATOM     14  HN  UNK N   1      37.453  15.186  14.697  1.00  0.00     0.166 HD
HETATM   15  C   UNK N   1      35.504  12.652  15.571  0.00  0.00     0.041 A 
HETATM   16  C   UNK N   1      34.960  12.363  14.321  0.00  0.00     0.038 A 
HETATM   17 Cl   UNK N   1      33.840  11.031  14.129  0.00  0.00    -0.084 Cl
HETATM   18  C   UNK N   1      35.326  13.125  13.215  0.00  0.00     0.072 A 
ENDBRANCH   9  11
ENDBRANCH   1   9
BRANCH   7  19
HETATM   19  O   UNK N   1      34.329  17.304   6.744  0.00  0.00    -0.304 OA
BRANCH  19  20
HETATM   20  C   UNK N   1      33.043  17.481   6.295  0.00  0.00     0.176 C 
HETATM   21  C   UNK N   1      33.051  17.532   4.782  0.00  0.00     0.034 C 
ENDBRANCH  19  20
ENDBRANCH   7  19
TORSDOF 4
ENDMDL
MODEL 2
REMARK VINA RESULT:      -6.0      1.974      2.507
REMARK  4 active torsions:
REMARK  status: ('A' for Active; 'I' for Inactive)
REMARK    1  A    between atoms: C_7  and  N_9 
REMARK    2  A    between atoms: N_9  and  C_10 
REMARK       I    between atoms: N_13  and  C_16 
REMARK    3  A    between atoms: C_16  and  O_18 
REMARK    4  A    between atoms: O_18  and  C_19 
ROOT
HETATM    1  C   UNK N   1      34.896  14.562  10.445  0.00  0.00     0.086 C 
HETATM    2  C   UNK N   1      34.334  14.301   9.050  0.00  0.00     0.045 C 
HETATM    3  C   UNK N   1      34.956  15.312   8.070  0.00  0.00     0.130 C 
HETATM    4  N   UNK N   1      34.853  16.678   8.570  0.00  0.00    -0.328 N 
HETATM    5  C   UNK N   1      35.211  16.925   9.955  0.00  0.00     0.130 C 
HETATM    6  C   UNK N   1      34.471  15.960  10.865  0.00  0.00     0.045 C 
HETATM    7  C   UNK N   1      34.511  17.749   7.778  0.00  0.00     0.362 C 
HETATM    8  O   UNK N   1      34.509  18.869   8.267  0.00  0.00    -0.238 OA
ENDROOT
BRANCH   1   9
HETATM    9  N   UNK N   1      34.488  13.548  11.396  0.00  0.00    -0.371 N 
HETATM   10  H   UNK N   1      33.593  13.149  11.306  0.00  0.00     0.161 HD
BRANCH   9  11
HETATM   11  C   UNK N   1      35.330  13.108  12.456  0.00  0.00     0.102 A 
HETATM   12  N   UNK N   1      35.670  11.792  12.546  0.00  0.00    -0.352 N 
HETATM   13  C   UNK N   1      36.463  11.325  13.550  0.00  0.00     0.091 A 
ATOM     14  HN  UNK N   1      35.320  11.139  11.843  1.00  0.00     0.166 HD
HETATM   15  C   UNK N   1      36.939  12.196  14.534  0.00  0.00     0.041 A 
HETATM   16  C   UNK N   1      36.602  13.546  14.467  0.00  0.00     0.038 A 
HETATM   17 Cl   UNK N   1      37.153  14.659  15.701  0.00  0.00    -0.084 Cl
HETATM   18  C   UNK N   1      35.804  14.008  13.424  0.00  0.00     0.072 A 
ENDBRANCH   9  11
ENDBRANCH   1   9
BRANCH   7  19
HETATM   19  O   UNK N   1      34.195  17.644   6.454  0.00  0.00    -0.304 OA
BRANCH  19  20
HETATM   20  C   UNK N   1      32.958  17.418   5.903  0.00  0.00     0.176 C 
HETATM   21  C   UNK N   1      33.052  17.573   4.400  0.00  0.00     0.034 C 
ENDBRANCH  19  20
ENDBRANCH   7  19
TORSDOF 4
ENDMDL
MODEL 3
REMARK VINA RESULT:      -5.8      3.788      5.559
REMARK  4 active torsions:
REMARK  status: ('A' for Active; 'I' for Inactive)
REMARK    1  A    between atoms: C_7  and  N_9 
REMARK    2  A    between atoms: N_9  and  C_10 
REMARK       I    between atoms: N_13  and  C_16 
REMARK    3  A    between atoms: C_16  and  O_18 
REMARK    4  A    between atoms: O_18  and  C_19 
ROOT
HETATM    1  C   UNK N   1      32.459  17.271   8.262  0.00  0.00     0.086 C 
HETATM    2  C   UNK N   1      31.206  18.057   8.636  0.00  0.00     0.045 C 
HETATM    3  C   UNK N   1      30.005  17.464   7.879  0.00  0.00     0.130 C 
HETATM    4  N   UNK N   1      30.284  17.323   6.455  0.00  0.00    -0.328 N 
HETATM    5  C   UNK N   1      31.555  16.739   6.066  0.00  0.00     0.130 C 
HETATM    6  C   UNK N   1      32.696  17.452   6.771  0.00  0.00     0.045 C 
HETATM    7  C   UNK N   1      29.378  17.641   5.471  0.00  0.00     0.362 C 
HETATM    8  O   UNK N   1      29.675  17.432   4.303  0.00  0.00    -0.238 OA
ENDROOT
BRANCH   1   9
HETATM    9  N   UNK N   1      33.605  17.658   9.057  0.00  0.00    -0.371 N 
HETATM   10  H   UNK N   1      33.744  18.613   9.251  0.00  0.00     0.161 HD
BRANCH   9  11
HETATM   11  C   UNK N   1      34.538  16.712   9.569  0.00  0.00     0.102 A 
HETATM   12  N   UNK N   1      35.048  16.877  10.822  0.00  0.00    -0.352 N 
HETATM   13  C   UNK N   1      35.952  16.004  11.347  0.00  0.00     0.091 A 
ATOM     14  HN  UNK N   1      34.745  17.676  11.381  1.00  0.00     0.166 HD
HETATM   15  C   UNK N   1      36.396  14.913  10.594  0.00  0.00     0.041 A 
HETATM   16  C   UNK N   1      35.893  14.725   9.308  0.00  0.00     0.038 A 
HETATM   17 Cl   UNK N   1      36.452  13.388   8.325  0.00  0.00    -0.084 Cl
HETATM   18  C   UNK N   1      34.958  15.619   8.795  0.00  0.00     0.072 A 
ENDBRANCH   9  11
ENDBRANCH   1   9
BRANCH   7  19
HETATM   19  O   UNK N   1      28.139  18.157   5.718  0.00  0.00    -0.304 OA
BRANCH  19  20
HETATM   20  C   UNK N   1      27.670  19.406   5.392  0.00  0.00     0.176 C 
HETATM   21  C   UNK N   1      27.549  20.233   6.655  0.00  0.00     0.034 C 
ENDBRANCH  19  20
ENDBRANCH   7  19
TORSDOF 4
ENDMDL
MODEL 4
REMARK VINA RESULT:      -5.8      1.200      1.813
REMARK  4 active torsions:
REMARK  status: ('A' for Active; 'I' for Inactive)
REMARK    1  A    between atoms: C_7  and  N_9 
REMARK    2  A    between atoms: N_9  and  C_10 
REMARK       I    between atoms: N_13  and  C_16 
REMARK    3  A    between atoms: C_16  and  O_18 
REMARK    4  A    between atoms: O_18  and  C_19 
ROOT
HETATM    1  C   UNK N   1      36.353  14.907  10.330  0.00  0.00     0.086 C 
HETATM    2  C   UNK N   1      35.624  14.102   9.258  0.00  0.00     0.045 C 
HETATM    3  C   UNK N   1      35.087  15.071   8.192  0.00  0.00     0.130 C 
HETATM    4  N   UNK N   1      34.349  16.176   8.792  0.00  0.00    -0.328 N 
HETATM    5  C   UNK N   1      34.941  16.849   9.934  0.00  0.00     0.130 C 
HETATM    6  C   UNK N   1      35.341  15.832  10.989  0.00  0.00     0.045 C 
HETATM    7  C   UNK N   1      33.165  16.659   8.284  0.00  0.00     0.362 C 
HETATM    8  O   UNK N   1      32.646  17.630   8.817  0.00  0.00    -0.238 OA
ENDROOT
BRANCH   1   9
HETATM    9  N   UNK N   1      37.032  14.056  11.286  0.00  0.00    -0.371 N 
HETATM   10  H   UNK N   1      37.933  13.725  11.067  0.00  0.00     0.161 HD
BRANCH   9  11
HETATM   11  C   UNK N   1      36.447  13.680  12.528  0.00  0.00     0.102 A 
HETATM   12  N   UNK N   1      36.816  14.324  13.671  0.00  0.00    -0.352 N 
HETATM   13  C   UNK N   1      36.291  13.989  14.882  0.00  0.00     0.091 A 
ATOM     14  HN  UNK N   1      37.503  15.077  13.617  1.00  0.00     0.166 HD
HETATM   15  C   UNK N   1      35.362  12.949  14.984  0.00  0.00     0.041 A 
HETATM   16  C   UNK N   1      34.972  12.272  13.830  0.00  0.00     0.038 A 
HETATM   17 Cl   UNK N   1      33.835  10.943  13.925  0.00  0.00    -0.084 Cl
HETATM   18  C   UNK N   1      35.506  12.640  12.599  0.00  0.00     0.072 A 
ENDBRANCH   9  11
ENDBRANCH   1   9
BRANCH   7  19
HETATM   19  O   UNK N   1      32.538  16.134   7.192  0.00  0.00    -0.304 OA
BRANCH  19  20
HETATM   20  C   UNK N   1      32.189  16.783   6.033  0.00  0.00     0.176 C 
HETATM   21  C   UNK N   1      33.425  17.420   5.433  0.00  0.00     0.034 C 
ENDBRANCH  19  20
ENDBRANCH   7  19
TORSDOF 4
ENDMDL
MODEL 5
REMARK VINA RESULT:      -5.8     14.776     17.255
REMARK  4 active torsions:
REMARK  status: ('A' for Active; 'I' for Inactive)
REMARK    1  A    between atoms: C_7  and  N_9 
REMARK    2  A    between atoms: N_9  and  C_10 
REMARK       I    between atoms: N_13  and  C_16 
REMARK    3  A    between atoms: C_16  and  O_18 
REMARK    4  A    between atoms: O_18  and  C_19 
ROOT
HETATM    1  C   UNK N   1      19.902  17.126   3.614  0.00  0.00     0.086 C 
HETATM    2  C   UNK N   1      21.320  17.366   4.123  0.00  0.00     0.045 C 
HETATM    3  C   UNK N   1      21.542  18.881   4.270  0.00  0.00     0.130 C 
HETATM    4  N   UNK N   1      21.151  19.601   3.064  0.00  0.00    -0.328 N 
HETATM    5  C   UNK N   1      19.878  19.264   2.452  0.00  0.00     0.130 C 
HETATM    6  C   UNK N   1      19.784  17.763   2.238  0.00  0.00     0.045 C 
HETATM    7  C   UNK N   1      21.887  20.631   2.526  0.00  0.00     0.362 C 
HETATM    8  O   UNK N   1      21.451  21.221   1.547  0.00  0.00    -0.238 OA
ENDROOT
BRANCH   1   9
HETATM    9  N   UNK N   1      19.555  15.719   3.606  0.00  0.00    -0.371 N 
HETATM   10  H   UNK N   1      19.094  15.342   4.390  0.00  0.00     0.161 HD
BRANCH   9  11
HETATM   11  C   UNK N   1      19.856  14.862   2.510  0.00  0.00     0.102 A 
HETATM   12  N   UNK N   1      18.849  14.198   1.877  0.00  0.00    -0.352 N 
HETATM   13  C   UNK N   1      19.093  13.358   0.832  0.00  0.00     0.091 A 
ATOM     14  HN  UNK N   1      17.888  14.332   2.194  1.00  0.00     0.166 HD
HETATM   15  C   UNK N   1      20.402  13.144   0.391  0.00  0.00     0.041 A 
HETATM   16  C   UNK N   1      21.450  13.808   1.025  0.00  0.00     0.038 A 
HETATM   17 Cl   UNK N   1      23.105  13.537   0.522  0.00  0.00    -0.084 Cl
HETATM   18  C   UNK N   1      21.180  14.675   2.081  0.00  0.00     0.072 A 
ENDBRANCH   9  11
ENDBRANCH   1   9
BRANCH   7  19
HETATM   19  O   UNK N   1      23.075  21.063   3.038  0.00  0.00    -0.304 OA
BRANCH  19  20
HETATM   20  C   UNK N   1      24.339  20.673   2.668  0.00  0.00     0.176 C 
HETATM   21  C   UNK N   1      25.043  20.077   3.869  0.00  0.00     0.034 C 
ENDBRANCH  19  20
ENDBRANCH   7  19
TORSDOF 4
ENDMDL
MODEL 6
REMARK VINA RESULT:      -5.7      3.912      7.541
REMARK  4 active torsions:
REMARK  status: ('A' for Active; 'I' for Inactive)
REMARK    1  A    between atoms: C_7  and  N_9 
REMARK    2  A    between atoms: N_9  and  C_10 
REMARK       I    between atoms: N_13  and  C_16 
REMARK    3  A    between atoms: C_16  and  O_18 
REMARK    4  A    between atoms: O_18  and  C_19 
ROOT
HETATM    1  C   UNK N   1      34.479  16.403   9.555  0.00  0.00     0.086 C 
HETATM    2  C   UNK N   1      35.366  16.678  10.767  0.00  0.00     0.045 C 
HETATM    3  C   UNK N   1      36.266  15.455  11.007  0.00  0.00     0.130 C 
HETATM    4  N   UNK N   1      35.497  14.217  11.031  0.00  0.00    -0.328 N 
HETATM    5  C   UNK N   1      34.511  14.008   9.986  0.00  0.00     0.130 C 
HETATM    6  C   UNK N   1      33.591  15.213   9.887  0.00  0.00     0.045 C 
HETATM    7  C   UNK N   1      35.711  13.210  11.944  0.00  0.00     0.362 C 
HETATM    8  O   UNK N   1      35.059  12.179  11.851  0.00  0.00    -0.238 OA
ENDROOT
BRANCH   1   9
HETATM    9  N   UNK N   1      33.717  17.570   9.160  0.00  0.00    -0.371 N 
HETATM   10  H   UNK N   1      34.031  18.458   9.445  0.00  0.00     0.161 HD
BRANCH   9  11
HETATM   11  C   UNK N   1      32.532  17.482   8.374  0.00  0.00     0.102 A 
HETATM   12  N   UNK N   1      31.315  17.598   8.975  0.00  0.00    -0.352 N 
HETATM   13  C   UNK N   1      30.156  17.508   8.265  0.00  0.00     0.091 A 
ATOM     14  HN  UNK N   1      31.270  17.755   9.983  1.00  0.00     0.166 HD
HETATM   15  C   UNK N   1      30.191  17.275   6.887  0.00  0.00     0.041 A 
HETATM   16  C   UNK N   1      31.424  17.148   6.250  0.00  0.00     0.038 A 
HETATM   17 Cl   UNK N   1      31.504  16.823   4.531  0.00  0.00    -0.084 Cl
HETATM   18  C   UNK N   1      32.598  17.260   6.990  0.00  0.00     0.072 A 
ENDBRANCH   9  11
ENDBRANCH   1   9
BRANCH   7  19
HETATM   19  O   UNK N   1      36.637  13.277  12.944  0.00  0.00    -0.304 OA
BRANCH  19  20
HETATM   20  C   UNK N   1      36.446  13.696  14.237  0.00  0.00     0.176 C 
HETATM   21  C   UNK N   1      36.803  12.566  15.180  0.00  0.00     0.034 C 
ENDBRANCH  19  20
ENDBRANCH   7  19
TORSDOF 4
ENDMDL
MODEL 7
REMARK VINA RESULT:      -5.7     20.897     22.111
REMARK  4 active torsions:
REMARK  status: ('A' for Active; 'I' for Inactive)
REMARK    1  A    between atoms: C_7  and  N_9 
REMARK    2  A    between atoms: N_9  and  C_10 
REMARK       I    between atoms: N_13  and  C_16 
REMARK    3  A    between atoms: C_16  and  O_18 
REMARK    4  A    between atoms: O_18  and  C_19 
ROOT
HETATM    1  C   UNK N   1      26.153  26.532  -4.767  0.00  0.00     0.086 C 
HETATM    2  C   UNK N   1      26.442  25.067  -4.452  0.00  0.00     0.045 C 
HETATM    3  C   UNK N   1      26.914  24.368  -5.739  0.00  0.00     0.130 C 
HETATM    4  N   UNK N   1      26.011  24.629  -6.854  0.00  0.00    -0.328 N 
HETATM    5  C   UNK N   1      25.573  25.997  -7.069  0.00  0.00     0.130 C 
HETATM    6  C   UNK N   1      25.019  26.576  -5.779  0.00  0.00     0.045 C 
HETATM    7  C   UNK N   1      25.619  23.664  -7.751  0.00  0.00     0.362 C 
HETATM    8  O   UNK N   1      24.908  23.986  -8.693  0.00  0.00    -0.238 OA
ENDROOT
BRANCH   1   9
HETATM    9  N   UNK N   1      25.863  27.300  -3.574  0.00  0.00    -0.371 N 
HETATM   10  H   UNK N   1      25.230  26.931  -2.917  0.00  0.00     0.161 HD
BRANCH   9  11
HETATM   11  C   UNK N   1      26.457  28.568  -3.315  0.00  0.00     0.102 A 
HETATM   12  N   UNK N   1      25.912  29.692  -3.859  0.00  0.00    -0.352 N 
HETATM   13  C   UNK N   1      26.454  30.924  -3.648  0.00  0.00     0.091 A 
ATOM     14  HN  UNK N   1      25.077  29.608  -4.439  1.00  0.00     0.166 HD
HETATM   15  C   UNK N   1      27.609  31.061  -2.871  0.00  0.00     0.041 A 
HETATM   16  C   UNK N   1      28.188  29.926  -2.308  0.00  0.00     0.038 A 
HETATM   17 Cl   UNK N   1      29.653  30.057  -1.358  0.00  0.00    -0.084 Cl
HETATM   18  C   UNK N   1      27.610  28.678  -2.521  0.00  0.00     0.072 A 
ENDBRANCH   9  11
ENDBRANCH   1   9
BRANCH   7  19
HETATM   19  O   UNK N   1      26.000  22.356  -7.674  0.00  0.00    -0.304 OA
BRANCH  19  20
HETATM   20  C   UNK N   1      25.217  21.242  -7.856  0.00  0.00     0.176 C 
HETATM   21  C   UNK N   1      24.255  21.119  -6.693  0.00  0.00     0.034 C 
ENDBRANCH  19  20
ENDBRANCH   7  19
TORSDOF 4
ENDMDL
MODEL 8
REMARK VINA RESULT:      -5.6      5.730      9.801
REMARK  4 active torsions:
REMARK  status: ('A' for Active; 'I' for Inactive)
REMARK    1  A    between atoms: C_7  and  N_9 
REMARK    2  A    between atoms: N_9  and  C_10 
REMARK       I    between atoms: N_13  and  C_16 
REMARK    3  A    between atoms: C_16  and  O_18 
REMARK    4  A    between atoms: O_18  and  C_19 
ROOT
HETATM    1  C   UNK N   1      30.559  17.612   5.837  0.00  0.00     0.086 C 
HETATM    2  C   UNK N   1      30.798  17.026   7.225  0.00  0.00     0.045 C 
HETATM    3  C   UNK N   1      32.247  17.326   7.646  0.00  0.00     0.130 C 
HETATM    4  N   UNK N   1      33.198  16.949   6.607  0.00  0.00    -0.328 N 
HETATM    5  C   UNK N   1      32.903  17.340   5.240  0.00  0.00     0.130 C 
HETATM    6  C   UNK N   1      31.495  16.909   4.866  0.00  0.00     0.045 C 
HETATM    7  C   UNK N   1      34.389  16.313   6.866  0.00  0.00     0.362 C 
HETATM    8  O   UNK N   1      35.155  16.089   5.939  0.00  0.00    -0.238 OA
ENDROOT
BRANCH   1   9
HETATM    9  N   UNK N   1      29.171  17.518   5.436  0.00  0.00    -0.371 N 
HETATM   10  H   UNK N   1      28.819  16.643   5.153  0.00  0.00     0.161 HD
BRANCH   9  11
HETATM   11  C   UNK N   1      28.296  18.641   5.433  0.00  0.00     0.102 A 
HETATM   12  N   UNK N   1      28.032  19.293   6.600  0.00  0.00    -0.352 N 
HETATM   13  C   UNK N   1      27.191  20.365   6.647  0.00  0.00     0.091 A 
ATOM     14  HN  UNK N   1      28.474  18.970   7.462  1.00  0.00     0.166 HD
HETATM   15  C   UNK N   1      26.559  20.814   5.484  0.00  0.00     0.041 A 
HETATM   16  C   UNK N   1      26.809  20.161   4.278  0.00  0.00     0.038 A 
HETATM   17 Cl   UNK N   1      26.009  20.677   2.809  0.00  0.00    -0.084 Cl
HETATM   18  C   UNK N   1      27.684  19.079   4.248  0.00  0.00     0.072 A 
ENDBRANCH   9  11
ENDBRANCH   1   9
BRANCH   7  19
HETATM   19  O   UNK N   1      34.791  15.934   8.114  0.00  0.00    -0.304 OA
BRANCH  19  20
HETATM   20  C   UNK N   1      35.207  14.690   8.520  0.00  0.00     0.176 C 
HETATM   21  C   UNK N   1      36.133  14.842   9.708  0.00  0.00     0.034 C 
ENDBRANCH  19  20
ENDBRANCH   7  19
TORSDOF 4
ENDMDL
MODEL 9
REMARK VINA RESULT:      -5.5      9.246     12.209
REMARK  4 active torsions:
REMARK  status: ('A' for Active; 'I' for Inactive)
REMARK    1  A    between atoms: C_7  and  N_9 
REMARK    2  A    between atoms: N_9  and  C_10 
REMARK       I    between atoms: N_13  and  C_16 
REMARK    3  A    between atoms: C_16  and  O_18 
REMARK    4  A    between atoms: O_18  and  C_19 
ROOT
HETATM    1  C   UNK N   1      27.217  18.817   4.195  0.00  0.00     0.086 C 
HETATM    2  C   UNK N   1      26.010  18.121   4.816  0.00  0.00     0.045 C 
HETATM    3  C   UNK N   1      24.825  18.221   3.840  0.00  0.00     0.130 C 
HETATM    4  N   UNK N   1      24.623  19.589   3.379  0.00  0.00    -0.328 N 
HETATM    5  C   UNK N   1      25.788  20.342   2.948  0.00  0.00     0.130 C 
HETATM    6  C   UNK N   1      26.868  20.286   4.014  0.00  0.00     0.045 C 
HETATM    7  C   UNK N   1      23.383  20.171   3.259  0.00  0.00     0.362 C 
HETATM    8  O   UNK N   1      23.302  21.304   2.804  0.00  0.00    -0.238 OA
ENDROOT
BRANCH   1   9
HETATM    9  N   UNK N   1      28.421  18.625   4.977  0.00  0.00    -0.371 N 
HETATM   10  H   UNK N   1      28.558  19.181   5.777  0.00  0.00     0.161 HD
BRANCH   9  11
HETATM   11  C   UNK N   1      29.414  17.664   4.632  0.00  0.00     0.102 A 
HETATM   12  N   UNK N   1      29.464  17.170   3.363  0.00  0.00    -0.352 N 
HETATM   13  C   UNK N   1      30.389  16.241   2.993  0.00  0.00     0.091 A 
ATOM     14  HN  UNK N   1      28.791  17.506   2.673  1.00  0.00     0.166 HD
HETATM   15  C   UNK N   1      31.309  15.754   3.925  0.00  0.00     0.041 A 
HETATM   16  C   UNK N   1      31.276  16.239   5.231  0.00  0.00     0.038 A 
HETATM   17 Cl   UNK N   1      32.392  15.626   6.433  0.00  0.00    -0.084 Cl
HETATM   18  C   UNK N   1      30.334  17.201   5.586  0.00  0.00     0.072 A 
ENDBRANCH   9  11
ENDBRANCH   1   9
BRANCH   7  19
HETATM   19  O   UNK N   1      22.216  19.547   3.592  0.00  0.00    -0.304 OA
BRANCH  19  20
HETATM   20  C   UNK N   1      20.936  19.954   3.307  0.00  0.00     0.176 C 
HETATM   21  C   UNK N   1      20.541  19.423   1.945  0.00  0.00     0.034 C 
ENDBRANCH  19  20
ENDBRANCH   7  19
TORSDOF 4
ENDMDL
