REMARK  4 active torsions:
REMARK  status: ('A' for Active; 'I' for Inactive)
REMARK    1  A    between atoms: C_7  and  N_9 
REMARK    2  A    between atoms: N_9  and  C_10 
REMARK       I    between atoms: N_13  and  C_16 
REMARK    3  A    between atoms: C_16  and  O_18 
REMARK    4  A    between atoms: O_18  and  C_19 
ROOT
HETATM    1  C   UNK N   1       0.008  -0.768  -0.219  0.00  0.00     0.086 C 
HETATM    2  C   UNK N   1      -1.275  -1.577  -0.050  0.00  0.00     0.045 C 
HETATM    3  C   UNK N   1      -2.443  -0.784  -0.661  0.00  0.00     0.130 C 
HETATM    4  N   UNK N   1      -2.471   0.591  -0.177  0.00  0.00    -0.328 N 
HETATM    5  C   UNK N   1      -1.222   1.331  -0.157  0.00  0.00     0.130 C 
HETATM    6  C   UNK N   1      -0.151   0.528   0.561  0.00  0.00     0.045 C 
HETATM    7  C   UNK N   1      -3.627   1.242   0.186  0.00  0.00     0.362 C 
HETATM    8  O   UNK N   1      -3.564   2.416   0.522  0.00  0.00    -0.238 OA
ENDROOT
BRANCH   1   9
HETATM    9  N   UNK N   1       1.182  -1.516   0.181  0.00  0.00    -0.371 N 
HETATM   10  H   UNK N   1       1.065  -2.432   0.522  0.00  0.00     0.161 HD
BRANCH   9  11
HETATM   11  C   UNK N   1       2.498  -0.978   0.101  0.00  0.00     0.102 A 
HETATM   12  N   UNK N   1       3.573  -1.795   0.284  0.00  0.00    -0.352 N 
HETATM   13  C   UNK N   1       4.849  -1.321   0.228  0.00  0.00     0.091 A 
ATOM     14  HN  UNK N   1       3.418  -2.787   0.468  1.00  0.00     0.166 HD
HETATM   15  C   UNK N   1       5.086   0.037  -0.004  0.00  0.00     0.041 A 
HETATM   16  C   UNK N   1       4.003   0.894  -0.190  0.00  0.00     0.038 A 
HETATM   17 Cl   UNK N   1       4.262   2.606  -0.450  0.00  0.00    -0.084 Cl
HETATM   18  C   UNK N   1       2.707   0.388  -0.146  0.00  0.00     0.072 A 
ENDBRANCH   9  11
ENDBRANCH   1   9
BRANCH   7  19
HETATM   19  O   UNK N   1      -4.862   0.662   0.168  0.00  0.00    -0.304 OA
BRANCH  19  20
HETATM   20  C   UNK N   1      -5.171  -0.644  -0.124  0.00  0.00     0.176 C 
HETATM   21  C   UNK N   1      -6.673  -0.823  -0.055  0.00  0.00     0.034 C 
ENDBRANCH  19  20
ENDBRANCH   7  19
TORSDOF 4
