REMARK  4 active torsions:
REMARK  status: ('A' for Active; 'I' for Inactive)
REMARK    1  A    between atoms: C_7  and  C_21 
REMARK    2  A    between atoms: C_11  and  C_18 
REMARK    3  A    between atoms: C_17  and  C_25 
REMARK       I    between atoms: C_21  and  N_32 
REMARK    4  A    between atoms: C_22  and  N_32 
ROOT
HETATM    1  C   UNK N   1      -3.072  -1.258  -0.098  0.00  0.00    -0.006 A 
HETATM    2  C   UNK N   1      -2.983   0.145  -0.243  0.00  0.00     0.004 A 
HETATM    3  C   UNK N   1      -1.782   0.704  -0.586  0.00  0.00     0.015 C 
HETATM    4  C   UNK N   1      -0.654  -0.046  -0.623  0.00  0.00     0.013 C 
HETATM    5  C   UNK N   1      -4.325  -1.812   0.140  0.00  0.00     0.119 A 
HETATM    6  C   UNK N   1      -0.650  -1.417  -0.349  0.00  0.00    -0.025 C 
HETATM    7  C   UNK N   1      -1.893  -2.059  -0.140  0.00  0.00     0.026 C 
HETATM    8  N   UNK N   1      -5.413  -0.992   0.219  0.00  0.00    -0.311 N 
ATOM      9  HN  UNK N   1      -6.336  -1.409   0.344  1.00  0.00     0.186 HD
HETATM   10  N   UNK N   1      -5.309   0.335   0.139  0.00  0.00    -0.299 N 
ATOM     11  HN  UNK N   1      -6.153   0.901   0.228  1.00  0.00     0.187 HD
HETATM   12  C   UNK N   1      -4.111   0.964  -0.057  0.00  0.00     0.070 A 
ENDROOT
BRANCH   6  13
HETATM   13  C   UNK N   1       0.717  -2.003  -0.189  0.00  0.00    -0.019 A 
HETATM   14  C   UNK N   1       1.702  -1.040   0.002  0.00  0.00     0.029 A 
HETATM   15  C   UNK N   1       3.035  -1.288   0.156  0.00  0.00     0.032 A 
HETATM   16  C   UNK N   1       3.460  -2.625   0.111  0.00  0.00     0.017 A 
HETATM   17  C   UNK N   1       2.497  -3.656  -0.040  0.00  0.00     0.009 A 
HETATM   18  C   UNK N   1       1.118  -3.356  -0.177  0.00  0.00    -0.051 A 
HETATM   19  C   UNK N   1       0.141  -4.468  -0.349  0.00  0.00     0.049 C 
BRANCH  15  20
HETATM   20  C   UNK N   1       3.876  -0.065   0.352  0.00  0.00     0.252 C 
HETATM   21  O   UNK N   1       3.312   0.976   0.664  0.00  0.00    -0.268 OA
HETATM   22  N   UNK N   1       5.209  -0.014   0.142  0.00  0.00    -0.352 N 
HETATM   23  H   UNK N   1       5.663   0.840   0.326  0.00  0.00     0.163 HD
BRANCH  22  24
HETATM   24  C   UNK N   1       6.012  -1.099  -0.326  0.00  0.00     0.084 A 
HETATM   25  C   UNK N   1       7.361  -0.537  -0.723  0.00  0.00     0.027 A 
HETATM   26  C   UNK N   1       7.197  -1.250   0.600  0.00  0.00     0.027 A 
ENDBRANCH  22  24
ENDBRANCH  15  20
ENDBRANCH   6  13
BRANCH  12  27
HETATM   27  C   UNK N   1      -4.071   2.483  -0.044  0.00  0.00    -0.001 A 
HETATM   28  C   UNK N   1      -5.246   3.141  -0.446  0.00  0.00     0.014 A 
HETATM   29  C   UNK N   1      -5.334   4.535  -0.467  0.00  0.00     0.001 A 
HETATM   30  C   UNK N   1      -4.250   5.314  -0.077  0.00  0.00     0.001 A 
HETATM   31  C   UNK N   1      -3.087   4.703   0.370  0.00  0.00     0.007 A 
HETATM   32  C   UNK N   1      -2.972   3.311   0.406  0.00  0.00    -0.050 A 
HETATM   33  C   UNK N   1      -1.719   2.812   1.043  0.00  0.00     0.049 C 
ENDBRANCH  12  27
TORSDOF 4
