MODEL 1
REMARK VINA RESULT:      -8.6      0.000      0.000
REMARK  4 active torsions:
REMARK  status: ('A' for Active; 'I' for Inactive)
REMARK    1  A    between atoms: C_7  and  C_21 
REMARK    2  A    between atoms: C_11  and  C_18 
REMARK    3  A    between atoms: C_17  and  C_25 
REMARK       I    between atoms: C_21  and  N_32 
REMARK    4  A    between atoms: C_22  and  N_32 
ROOT
HETATM    1  C   UNK N   1      26.856  15.507   2.550  0.00  0.00    -0.006 A 
HETATM    2  C   UNK N   1      26.707  16.529   3.515  0.00  0.00     0.004 A 
HETATM    3  C   UNK N   1      25.482  16.728   4.091  0.00  0.00     0.015 C 
HETATM    4  C   UNK N   1      24.386  16.076   3.631  0.00  0.00     0.013 C 
HETATM    5  C   UNK N   1      28.132  15.250   2.061  0.00  0.00     0.119 A 
HETATM    6  C   UNK N   1      24.441  15.155   2.581  0.00  0.00    -0.025 C 
HETATM    7  C   UNK N   1      25.711  14.811   2.062  0.00  0.00     0.026 C 
HETATM    8  N   UNK N   1      29.185  15.981   2.529  0.00  0.00    -0.311 N 
ATOM      9  HN  UNK N   1      30.126  15.754   2.204  1.00  0.00     0.186 HD
HETATM   10  N   UNK N   1      29.025  16.982   3.396  0.00  0.00    -0.299 N 
ATOM     11  HN  UNK N   1      29.845  17.510   3.694  1.00  0.00     0.187 HD
HETATM   12  C   UNK N   1      27.801  17.326   3.898  0.00  0.00     0.070 A 
ENDROOT
BRANCH   6  13
HETATM   13  C   UNK N   1      23.101  14.747   2.057  0.00  0.00    -0.019 A 
HETATM   14  C   UNK N   1      22.046  15.293   2.780  0.00  0.00     0.029 A 
HETATM   15  C   UNK N   1      20.721  15.074   2.538  0.00  0.00     0.032 A 
HETATM   16  C   UNK N   1      20.383  14.221   1.476  0.00  0.00     0.017 A 
HETATM   17  C   UNK N   1      21.414  13.666   0.675  0.00  0.00     0.009 A 
HETATM   18  C   UNK N   1      22.779  13.934   0.949  0.00  0.00    -0.051 A 
HETATM   19  C   UNK N   1      23.832  13.319   0.093  0.00  0.00     0.049 C 
BRANCH  15  20
HETATM   20  C   UNK N   1      19.792  15.793   3.467  0.00  0.00     0.252 C 
HETATM   21  O   UNK N   1      19.258  15.146   4.359  0.00  0.00    -0.268 OA
HETATM   22  N   UNK N   1      19.450  17.093   3.349  0.00  0.00    -0.352 N 
HETATM   23  H   UNK N   1      18.848  17.466   4.033  0.00  0.00     0.163 HD
BRANCH  22  24
HETATM   24  C   UNK N   1      19.889  17.971   2.310  0.00  0.00     0.084 A 
HETATM   25  C   UNK N   1      19.645  19.392   2.772  0.00  0.00     0.027 A 
HETATM   26  C   UNK N   1      21.035  18.801   2.840  0.00  0.00     0.027 A 
ENDBRANCH  22  24
ENDBRANCH  15  20
ENDBRANCH   6  13
BRANCH  12  27
HETATM   27  C   UNK N   1      27.698  18.537   4.809  0.00  0.00    -0.001 A 
HETATM   28  C   UNK N   1      27.312  19.744   4.201  0.00  0.00     0.014 A 
HETATM   29  C   UNK N   1      27.174  20.923   4.936  0.00  0.00     0.001 A 
HETATM   30  C   UNK N   1      27.408  20.929   6.307  0.00  0.00     0.001 A 
HETATM   31  C   UNK N   1      27.746  19.749   6.954  0.00  0.00     0.007 A 
HETATM   32  C   UNK N   1      27.888  18.553   6.245  0.00  0.00    -0.050 A 
HETATM   33  C   UNK N   1      28.112  17.352   7.099  0.00  0.00     0.049 C 
ENDBRANCH  12  27
TORSDOF 4
ENDMDL
MODEL 2
REMARK VINA RESULT:      -8.6      2.855      8.585
REMARK  4 active torsions:
REMARK  status: ('A' for Active; 'I' for Inactive)
REMARK    1  A    between atoms: C_7  and  C_21 
REMARK    2  A    between atoms: C_11  and  C_18 
REMARK    3  A    between atoms: C_17  and  C_25 
REMARK       I    between atoms: C_21  and  N_32 
REMARK    4  A    between atoms: C_22  and  N_32 
ROOT
HETATM    1  C   UNK N   1      21.533  18.924   3.208  0.00  0.00    -0.006 A 
HETATM    2  C   UNK N   1      21.309  17.532   3.108  0.00  0.00     0.004 A 
HETATM    3  C   UNK N   1      22.255  16.669   3.590  0.00  0.00     0.015 C 
HETATM    4  C   UNK N   1      23.462  17.125   4.004  0.00  0.00     0.013 C 
HETATM    5  C   UNK N   1      20.511  19.780   2.814  0.00  0.00     0.119 A 
HETATM    6  C   UNK N   1      23.800  18.482   3.994  0.00  0.00    -0.025 C 
HETATM    7  C   UNK N   1      22.797  19.417   3.647  0.00  0.00     0.026 C 
HETATM    8  N   UNK N   1      19.338  19.253   2.355  0.00  0.00    -0.311 N 
ATOM      9  HN  UNK N   1      18.574  19.885   2.115  1.00  0.00     0.186 HD
HETATM   10  N   UNK N   1      19.159  17.939   2.210  0.00  0.00    -0.299 N 
ATOM     11  HN  UNK N   1      18.271  17.602   1.841  1.00  0.00     0.187 HD
HETATM   12  C   UNK N   1      20.126  17.029   2.538  0.00  0.00     0.070 A 
ENDROOT
BRANCH   6  13
HETATM   13  C   UNK N   1      25.251  18.751   4.240  0.00  0.00    -0.019 A 
HETATM   14  C   UNK N   1      25.815  17.882   5.168  0.00  0.00     0.029 A 
HETATM   15  C   UNK N   1      27.110  17.910   5.596  0.00  0.00     0.032 A 
HETATM   16  C   UNK N   1      27.952  18.901   5.067  0.00  0.00     0.017 A 
HETATM   17  C   UNK N   1      27.446  19.791   4.084  0.00  0.00     0.009 A 
HETATM   18  C   UNK N   1      26.097  19.715   3.653  0.00  0.00    -0.051 A 
HETATM   19  C   UNK N   1      25.602  20.679   2.630  0.00  0.00     0.049 C 
BRANCH  15  20
HETATM   20  C   UNK N   1      27.456  16.853   6.599  0.00  0.00     0.252 C 
HETATM   21  O   UNK N   1      27.217  15.688   6.311  0.00  0.00    -0.268 OA
HETATM   22  N   UNK N   1      27.952  17.103   7.830  0.00  0.00    -0.352 N 
HETATM   23  H   UNK N   1      28.165  16.327   8.397  0.00  0.00     0.163 HD
BRANCH  22  24
HETATM   24  C   UNK N   1      28.193  18.402   8.374  0.00  0.00     0.084 A 
HETATM   25  C   UNK N   1      28.952  18.225   9.672  0.00  0.00     0.027 A 
HETATM   26  C   UNK N   1      29.685  18.634   8.415  0.00  0.00     0.027 A 
ENDBRANCH  22  24
ENDBRANCH  15  20
ENDBRANCH   6  13
BRANCH  12  27
HETATM   27  C   UNK N   1      19.872  15.558   2.255  0.00  0.00    -0.001 A 
HETATM   28  C   UNK N   1      20.227  15.099   0.975  0.00  0.00     0.014 A 
HETATM   29  C   UNK N   1      20.049  13.765   0.600  0.00  0.00     0.001 A 
HETATM   30  C   UNK N   1      19.519  12.847   1.499  0.00  0.00     0.001 A 
HETATM   31  C   UNK N   1      19.199  13.249   2.788  0.00  0.00     0.007 A 
HETATM   32  C   UNK N   1      19.369  14.576   3.192  0.00  0.00    -0.050 A 
HETATM   33  C   UNK N   1      19.115  14.816   4.642  0.00  0.00     0.049 C 
ENDBRANCH  12  27
TORSDOF 4
ENDMDL
MODEL 3
REMARK VINA RESULT:      -8.6     10.738     14.573
REMARK  4 active torsions:
REMARK  status: ('A' for Active; 'I' for Inactive)
REMARK    1  A    between atoms: C_7  and  C_21 
REMARK    2  A    between atoms: C_11  and  C_18 
REMARK    3  A    between atoms: C_17  and  C_25 
REMARK       I    between atoms: C_21  and  N_32 
REMARK    4  A    between atoms: C_22  and  N_32 
ROOT
HETATM    1  C   UNK N   1      36.816  11.969  12.204  0.00  0.00    -0.006 A 
HETATM    2  C   UNK N   1      36.443  12.862  13.233  0.00  0.00     0.004 A 
HETATM    3  C   UNK N   1      35.619  13.913  12.937  0.00  0.00     0.015 C 
HETATM    4  C   UNK N   1      35.298  14.200  11.652  0.00  0.00     0.013 C 
HETATM    5  C   UNK N   1      37.561  10.847  12.550  0.00  0.00     0.119 A 
HETATM    6  C   UNK N   1      35.752  13.438  10.572  0.00  0.00    -0.025 C 
HETATM    7  C   UNK N   1      36.480  12.257  10.848  0.00  0.00     0.026 C 
HETATM    8  N   UNK N   1      37.897  10.647  13.857  0.00  0.00    -0.311 N 
ATOM      9  HN  UNK N   1      38.400   9.796  14.112  1.00  0.00     0.186 HD
HETATM   10  N   UNK N   1      37.590  11.526  14.812  0.00  0.00    -0.299 N 
ATOM     11  HN  UNK N   1      37.887  11.336  15.769  1.00  0.00     0.187 HD
HETATM   12  C   UNK N   1      36.893  12.673  14.552  0.00  0.00     0.070 A 
ENDROOT
BRANCH   6  13
HETATM   13  C   UNK N   1      35.504  14.064   9.236  0.00  0.00    -0.019 A 
HETATM   14  C   UNK N   1      35.028  15.368   9.327  0.00  0.00     0.029 A 
HETATM   15  C   UNK N   1      34.699  16.168   8.272  0.00  0.00     0.032 A 
HETATM   16  C   UNK N   1      34.841  15.637   6.980  0.00  0.00     0.017 A 
HETATM   17  C   UNK N   1      35.361  14.326   6.821  0.00  0.00     0.009 A 
HETATM   18  C   UNK N   1      35.710  13.535   7.944  0.00  0.00    -0.051 A 
HETATM   19  C   UNK N   1      36.239  12.158   7.733  0.00  0.00     0.049 C 
BRANCH  15  20
HETATM   20  C   UNK N   1      34.216  17.532   8.653  0.00  0.00     0.252 C 
HETATM   21  O   UNK N   1      35.054  18.383   8.924  0.00  0.00    -0.268 OA
HETATM   22  N   UNK N   1      32.916  17.873   8.786  0.00  0.00    -0.352 N 
HETATM   23  H   UNK N   1      32.715  18.808   9.019  0.00  0.00     0.163 HD
BRANCH  22  24
HETATM   24  C   UNK N   1      31.810  16.984   8.615  0.00  0.00     0.084 A 
HETATM   25  C   UNK N   1      30.565  17.827   8.432  0.00  0.00     0.027 A 
HETATM   26  C   UNK N   1      31.236  17.197   7.233  0.00  0.00     0.027 A 
ENDBRANCH  22  24
ENDBRANCH  15  20
ENDBRANCH   6  13
BRANCH  12  27
HETATM   27  C   UNK N   1      36.666  13.663  15.683  0.00  0.00    -0.001 A 
HETATM   28  C   UNK N   1      37.362  14.880  15.594  0.00  0.00     0.014 A 
HETATM   29  C   UNK N   1      37.228  15.873  16.567  0.00  0.00     0.001 A 
HETATM   30  C   UNK N   1      36.384  15.681  17.656  0.00  0.00     0.001 A 
HETATM   31  C   UNK N   1      35.644  14.512  17.757  0.00  0.00     0.007 A 
HETATM   32  C   UNK N   1      35.755  13.503  16.796  0.00  0.00    -0.050 A 
HETATM   33  C   UNK N   1      34.792  12.377  16.971  0.00  0.00     0.049 C 
ENDBRANCH  12  27
TORSDOF 4
ENDMDL
MODEL 4
REMARK VINA RESULT:      -8.5      1.544      2.155
REMARK  4 active torsions:
REMARK  status: ('A' for Active; 'I' for Inactive)
REMARK    1  A    between atoms: C_7  and  C_21 
REMARK    2  A    between atoms: C_11  and  C_18 
REMARK    3  A    between atoms: C_17  and  C_25 
REMARK       I    between atoms: C_21  and  N_32 
REMARK    4  A    between atoms: C_22  and  N_32 
ROOT
HETATM    1  C   UNK N   1      27.455  15.698   2.594  0.00  0.00    -0.006 A 
HETATM    2  C   UNK N   1      27.015  16.661   3.531  0.00  0.00     0.004 A 
HETATM    3  C   UNK N   1      25.721  16.615   3.975  0.00  0.00     0.015 C 
HETATM    4  C   UNK N   1      24.823  15.772   3.409  0.00  0.00     0.013 C 
HETATM    5  C   UNK N   1      28.800  15.695   2.243  0.00  0.00     0.119 A 
HETATM    6  C   UNK N   1      25.162  14.892   2.377  0.00  0.00    -0.025 C 
HETATM    7  C   UNK N   1      26.521  14.802   1.995  0.00  0.00     0.026 C 
HETATM    8  N   UNK N   1      29.640  16.608   2.812  0.00  0.00    -0.311 N 
ATOM      9  HN  UNK N   1      30.635  16.568   2.588  1.00  0.00     0.186 HD
HETATM   10  N   UNK N   1      29.203  17.549   3.650  0.00  0.00    -0.299 N 
ATOM     11  HN  UNK N   1      29.872  18.220   4.028  1.00  0.00     0.187 HD
HETATM   12  C   UNK N   1      27.890  17.647   4.019  0.00  0.00     0.070 A 
ENDROOT
BRANCH   6  13
HETATM   13  C   UNK N   1      23.985  14.242   1.720  0.00  0.00    -0.019 A 
HETATM   14  C   UNK N   1      22.862  15.061   1.683  0.00  0.00     0.029 A 
HETATM   15  C   UNK N   1      21.648  14.720   1.162  0.00  0.00     0.032 A 
HETATM   16  C   UNK N   1      21.507  13.431   0.623  0.00  0.00     0.017 A 
HETATM   17  C   UNK N   1      22.629  12.563   0.594  0.00  0.00     0.009 A 
HETATM   18  C   UNK N   1      23.880  12.965   1.129  0.00  0.00    -0.051 A 
HETATM   19  C   UNK N   1      25.029  12.017   1.092  0.00  0.00     0.049 C 
BRANCH  15  20
HETATM   20  C   UNK N   1      20.611  15.796   1.247  0.00  0.00     0.252 C 
HETATM   21  O   UNK N   1      20.498  16.561   0.298  0.00  0.00    -0.268 OA
HETATM   22  N   UNK N   1      19.835  16.025   2.329  0.00  0.00    -0.352 N 
HETATM   23  H   UNK N   1      19.169  16.747   2.262  0.00  0.00     0.163 HD
BRANCH  22  24
HETATM   24  C   UNK N   1      19.904  15.304   3.560  0.00  0.00     0.084 A 
HETATM   25  C   UNK N   1      20.680  16.150   4.548  0.00  0.00     0.027 A 
HETATM   26  C   UNK N   1      19.171  16.095   4.618  0.00  0.00     0.027 A 
ENDBRANCH  22  24
ENDBRANCH  15  20
ENDBRANCH   6  13
BRANCH  12  27
HETATM   27  C   UNK N   1      27.464  18.805   4.906  0.00  0.00    -0.001 A 
HETATM   28  C   UNK N   1      27.942  18.788   6.227  0.00  0.00     0.014 A 
HETATM   29  C   UNK N   1      27.626  19.803   7.134  0.00  0.00     0.001 A 
HETATM   30  C   UNK N   1      26.827  20.872   6.742  0.00  0.00     0.001 A 
HETATM   31  C   UNK N   1      26.372  20.949   5.433  0.00  0.00     0.007 A 
HETATM   32  C   UNK N   1      26.676  19.951   4.504  0.00  0.00    -0.050 A 
HETATM   33  C   UNK N   1      26.235  20.251   3.111  0.00  0.00     0.049 C 
ENDBRANCH  12  27
TORSDOF 4
ENDMDL
MODEL 5
REMARK VINA RESULT:      -8.4     13.688     17.802
REMARK  4 active torsions:
REMARK  status: ('A' for Active; 'I' for Inactive)
REMARK    1  A    between atoms: C_7  and  C_21 
REMARK    2  A    between atoms: C_11  and  C_18 
REMARK    3  A    between atoms: C_17  and  C_25 
REMARK       I    between atoms: C_21  and  N_32 
REMARK    4  A    between atoms: C_22  and  N_32 
ROOT
HETATM    1  C   UNK N   1      36.159  13.103  15.205  0.00  0.00    -0.006 A 
HETATM    2  C   UNK N   1      35.484  12.998  13.969  0.00  0.00     0.004 A 
HETATM    3  C   UNK N   1      34.608  11.964  13.774  0.00  0.00     0.015 C 
HETATM    4  C   UNK N   1      34.510  10.960  14.679  0.00  0.00     0.013 C 
HETATM    5  C   UNK N   1      36.956  14.222  15.421  0.00  0.00     0.119 A 
HETATM    6  C   UNK N   1      35.258  10.932  15.860  0.00  0.00    -0.025 C 
HETATM    7  C   UNK N   1      36.060  12.056  16.168  0.00  0.00     0.026 C 
HETATM    8  N   UNK N   1      37.053  15.170  14.444  0.00  0.00    -0.311 N 
ATOM      9  HN  UNK N   1      37.600  16.012  14.628  1.00  0.00     0.186 HD
HETATM   10  N   UNK N   1      36.459  15.032  13.259  0.00  0.00    -0.299 N 
ATOM     11  HN  UNK N   1      36.584  15.762  12.557  1.00  0.00     0.187 HD
HETATM   12  C   UNK N   1      35.687  13.946  12.950  0.00  0.00     0.070 A 
ENDROOT
BRANCH   6  13
HETATM   13  C   UNK N   1      35.199   9.627  16.589  0.00  0.00    -0.019 A 
HETATM   14  C   UNK N   1      34.620   9.735  17.849  0.00  0.00     0.029 A 
HETATM   15  C   UNK N   1      34.455   8.712  18.737  0.00  0.00     0.032 A 
HETATM   16  C   UNK N   1      34.913   7.440  18.359  0.00  0.00     0.017 A 
HETATM   17  C   UNK N   1      35.475   7.257  17.069  0.00  0.00     0.009 A 
HETATM   18  C   UNK N   1      35.610   8.344  16.169  0.00  0.00    -0.051 A 
HETATM   19  C   UNK N   1      36.220   8.113  14.829  0.00  0.00     0.049 C 
BRANCH  15  20
HETATM   20  C   UNK N   1      33.796   9.104  20.022  0.00  0.00     0.252 C 
HETATM   21  O   UNK N   1      34.348   9.948  20.716  0.00  0.00    -0.268 OA
HETATM   22  N   UNK N   1      32.666   8.542  20.503  0.00  0.00    -0.352 N 
HETATM   23  H   UNK N   1      32.310   8.897  21.349  0.00  0.00     0.163 HD
BRANCH  22  24
HETATM   24  C   UNK N   1      31.949   7.473  19.883  0.00  0.00     0.084 A 
HETATM   25  C   UNK N   1      31.088   6.820  20.944  0.00  0.00     0.027 A 
HETATM   26  C   UNK N   1      30.472   7.785  19.956  0.00  0.00     0.027 A 
ENDBRANCH  22  24
ENDBRANCH  15  20
ENDBRANCH   6  13
BRANCH  12  27
HETATM   27  C   UNK N   1      35.122  13.825  11.545  0.00  0.00    -0.001 A 
HETATM   28  C   UNK N   1      34.180  14.797  11.166  0.00  0.00     0.014 A 
HETATM   29  C   UNK N   1      33.597  14.796   9.896  0.00  0.00     0.001 A 
HETATM   30  C   UNK N   1      33.946  13.826   8.963  0.00  0.00     0.001 A 
HETATM   31  C   UNK N   1      34.906  12.876   9.282  0.00  0.00     0.007 A 
HETATM   32  C   UNK N   1      35.509  12.855  10.542  0.00  0.00    -0.050 A 
HETATM   33  C   UNK N   1      36.617  11.866  10.680  0.00  0.00     0.049 C 
ENDBRANCH  12  27
TORSDOF 4
ENDMDL
MODEL 6
REMARK VINA RESULT:      -8.4      3.359      4.789
REMARK  4 active torsions:
REMARK  status: ('A' for Active; 'I' for Inactive)
REMARK    1  A    between atoms: C_7  and  C_21 
REMARK    2  A    between atoms: C_11  and  C_18 
REMARK    3  A    between atoms: C_17  and  C_25 
REMARK       I    between atoms: C_21  and  N_32 
REMARK    4  A    between atoms: C_22  and  N_32 
ROOT
HETATM    1  C   UNK N   1      24.705  19.102   3.663  0.00  0.00    -0.006 A 
HETATM    2  C   UNK N   1      25.718  18.340   4.287  0.00  0.00     0.004 A 
HETATM    3  C   UNK N   1      25.404  17.114   4.807  0.00  0.00     0.015 C 
HETATM    4  C   UNK N   1      24.115  16.701   4.879  0.00  0.00     0.013 C 
HETATM    5  C   UNK N   1      25.071  20.292   3.044  0.00  0.00     0.119 A 
HETATM    6  C   UNK N   1      23.048  17.473   4.408  0.00  0.00    -0.025 C 
HETATM    7  C   UNK N   1      23.346  18.676   3.727  0.00  0.00     0.026 C 
HETATM    8  N   UNK N   1      26.380  20.676   3.056  0.00  0.00    -0.311 N 
ATOM      9  HN  UNK N   1      26.650  21.524   2.557  1.00  0.00     0.186 HD
HETATM   10  N   UNK N   1      27.318  19.978   3.698  0.00  0.00    -0.299 N 
ATOM     11  HN  UNK N   1      28.278  20.324   3.693  1.00  0.00     0.187 HD
HETATM   12  C   UNK N   1      27.039  18.817   4.363  0.00  0.00     0.070 A 
ENDROOT
BRANCH   6  13
HETATM   13  C   UNK N   1      21.701  16.962   4.811  0.00  0.00    -0.019 A 
HETATM   14  C   UNK N   1      21.510  16.961   6.188  0.00  0.00     0.029 A 
HETATM   15  C   UNK N   1      20.387  16.532   6.834  0.00  0.00     0.032 A 
HETATM   16  C   UNK N   1      19.333  16.038   6.050  0.00  0.00     0.017 A 
HETATM   17  C   UNK N   1      19.451  16.051   4.636  0.00  0.00     0.009 A 
HETATM   18  C   UNK N   1      20.629  16.525   4.004  0.00  0.00    -0.051 A 
HETATM   19  C   UNK N   1      20.719  16.507   2.517  0.00  0.00     0.049 C 
BRANCH  15  20
HETATM   20  C   UNK N   1      20.445  16.648   8.325  0.00  0.00     0.252 C 
HETATM   21  O   UNK N   1      20.339  17.763   8.819  0.00  0.00    -0.268 OA
HETATM   22  N   UNK N   1      20.674  15.613   9.163  0.00  0.00    -0.352 N 
HETATM   23  H   UNK N   1      20.667  15.804  10.128  0.00  0.00     0.163 HD
BRANCH  22  24
HETATM   24  C   UNK N   1      20.926  14.266   8.759  0.00  0.00     0.084 A 
HETATM   25  C   UNK N   1      22.183  13.801   9.465  0.00  0.00     0.027 A 
HETATM   26  C   UNK N   1      20.825  13.376   9.977  0.00  0.00     0.027 A 
ENDBRANCH  22  24
ENDBRANCH  15  20
ENDBRANCH   6  13
BRANCH  12  27
HETATM   27  C   UNK N   1      28.150  18.136   5.145  0.00  0.00    -0.001 A 
HETATM   28  C   UNK N   1      28.219  18.432   6.517  0.00  0.00     0.014 A 
HETATM   29  C   UNK N   1      29.191  17.860   7.341  0.00  0.00     0.001 A 
HETATM   30  C   UNK N   1      30.119  16.966   6.818  0.00  0.00     0.001 A 
HETATM   31  C   UNK N   1      30.056  16.611   5.478  0.00  0.00     0.007 A 
HETATM   32  C   UNK N   1      29.092  17.164   4.631  0.00  0.00    -0.050 A 
HETATM   33  C   UNK N   1      29.066  16.576   3.260  0.00  0.00     0.049 C 
ENDBRANCH  12  27
TORSDOF 4
ENDMDL
MODEL 7
REMARK VINA RESULT:      -8.4      4.345      5.774
REMARK  4 active torsions:
REMARK  status: ('A' for Active; 'I' for Inactive)
REMARK    1  A    between atoms: C_7  and  C_21 
REMARK    2  A    between atoms: C_11  and  C_18 
REMARK    3  A    between atoms: C_17  and  C_25 
REMARK       I    between atoms: C_21  and  N_32 
REMARK    4  A    between atoms: C_22  and  N_32 
ROOT
HETATM    1  C   UNK N   1      26.172  17.557   4.786  0.00  0.00    -0.006 A 
HETATM    2  C   UNK N   1      27.229  17.133   5.624  0.00  0.00     0.004 A 
HETATM    3  C   UNK N   1      27.023  16.082   6.475  0.00  0.00     0.015 C 
HETATM    4  C   UNK N   1      25.785  15.558   6.642  0.00  0.00     0.013 C 
HETATM    5  C   UNK N   1      26.438  18.551   3.851  0.00  0.00     0.119 A 
HETATM    6  C   UNK N   1      24.666  16.027   5.947  0.00  0.00    -0.025 C 
HETATM    7  C   UNK N   1      24.865  17.009   4.948  0.00  0.00     0.026 C 
HETATM    8  N   UNK N   1      27.696  19.074   3.773  0.00  0.00    -0.311 N 
ATOM      9  HN  UNK N   1      27.897  19.768   3.052  1.00  0.00     0.186 HD
HETATM   10  N   UNK N   1      28.670  18.709   4.608  0.00  0.00    -0.299 N 
ATOM     11  HN  UNK N   1      29.585  19.150   4.519  1.00  0.00     0.187 HD
HETATM   12  C   UNK N   1      28.484  17.765   5.579  0.00  0.00     0.070 A 
ENDROOT
BRANCH   6  13
HETATM   13  C   UNK N   1      23.364  15.499   6.459  0.00  0.00    -0.019 A 
HETATM   14  C   UNK N   1      23.463  14.209   6.968  0.00  0.00     0.029 A 
HETATM   15  C   UNK N   1      22.433  13.476   7.481  0.00  0.00     0.032 A 
HETATM   16  C   UNK N   1      21.157  14.062   7.493  0.00  0.00     0.017 A 
HETATM   17  C   UNK N   1      20.999  15.392   7.024  0.00  0.00     0.009 A 
HETATM   18  C   UNK N   1      22.101  16.126   6.517  0.00  0.00    -0.051 A 
HETATM   19  C   UNK N   1      21.888  17.515   6.020  0.00  0.00     0.049 C 
BRANCH  15  20
HETATM   20  C   UNK N   1      22.820  12.114   7.968  0.00  0.00     0.252 C 
HETATM   21  O   UNK N   1      22.895  11.210   7.145  0.00  0.00    -0.268 OA
HETATM   22  N   UNK N   1      23.027  11.797   9.264  0.00  0.00    -0.352 N 
HETATM   23  H   UNK N   1      23.301  10.874   9.465  0.00  0.00     0.163 HD
BRANCH  22  24
HETATM   24  C   UNK N   1      22.879  12.695  10.366  0.00  0.00     0.084 A 
HETATM   25  C   UNK N   1      21.723  12.202  11.210  0.00  0.00     0.027 A 
HETATM   26  C   UNK N   1      23.146  11.931  11.643  0.00  0.00     0.027 A 
ENDBRANCH  22  24
ENDBRANCH  15  20
ENDBRANCH   6  13
BRANCH  12  27
HETATM   27  C   UNK N   1      29.621  17.476   6.545  0.00  0.00    -0.001 A 
HETATM   28  C   UNK N   1      30.765  16.871   5.998  0.00  0.00     0.014 A 
HETATM   29  C   UNK N   1      31.878  16.565   6.785  0.00  0.00     0.001 A 
HETATM   30  C   UNK N   1      31.884  16.864   8.143  0.00  0.00     0.001 A 
HETATM   31  C   UNK N   1      30.792  17.503   8.713  0.00  0.00     0.007 A 
HETATM   32  C   UNK N   1      29.666  17.825   7.950  0.00  0.00    -0.050 A 
HETATM   33  C   UNK N   1      28.642  18.634   8.673  0.00  0.00     0.049 C 
ENDBRANCH  12  27
TORSDOF 4
ENDMDL
MODEL 8
REMARK VINA RESULT:      -8.4     13.782     18.177
REMARK  4 active torsions:
REMARK  status: ('A' for Active; 'I' for Inactive)
REMARK    1  A    between atoms: C_7  and  C_21 
REMARK    2  A    between atoms: C_11  and  C_18 
REMARK    3  A    between atoms: C_17  and  C_25 
REMARK       I    between atoms: C_21  and  N_32 
REMARK    4  A    between atoms: C_22  and  N_32 
ROOT
HETATM    1  C   UNK N   1      35.393  12.303  13.496  0.00  0.00    -0.006 A 
HETATM    2  C   UNK N   1      34.600  11.224  13.044  0.00  0.00     0.004 A 
HETATM    3  C   UNK N   1      33.824  10.545  13.944  0.00  0.00     0.015 C 
HETATM    4  C   UNK N   1      33.935  10.784  15.274  0.00  0.00     0.013 C 
HETATM    5  C   UNK N   1      36.084  13.048  12.547  0.00  0.00     0.119 A 
HETATM    6  C   UNK N   1      34.808  11.742  15.798  0.00  0.00    -0.025 C 
HETATM    7  C   UNK N   1      35.514  12.568  14.892  0.00  0.00     0.026 C 
HETATM    8  N   UNK N   1      35.970  12.718  11.228  0.00  0.00    -0.311 N 
ATOM      9  HN  UNK N   1      36.440  13.299  10.533  1.00  0.00     0.186 HD
HETATM   10  N   UNK N   1      35.266  11.662  10.818  0.00  0.00    -0.299 N 
ATOM     11  HN  UNK N   1      35.234  11.449   9.821  1.00  0.00     0.187 HD
HETATM   12  C   UNK N   1      34.586  10.855  11.687  0.00  0.00     0.070 A 
ENDROOT
BRANCH   6  13
HETATM   13  C   UNK N   1      34.970  11.672  17.283  0.00  0.00    -0.019 A 
HETATM   14  C   UNK N   1      34.855  10.378  17.782  0.00  0.00     0.029 A 
HETATM   15  C   UNK N   1      34.940  10.024  19.097  0.00  0.00     0.032 A 
HETATM   16  C   UNK N   1      35.152  11.046  20.036  0.00  0.00     0.017 A 
HETATM   17  C   UNK N   1      35.319  12.381  19.585  0.00  0.00     0.009 A 
HETATM   18  C   UNK N   1      35.244  12.703  18.206  0.00  0.00    -0.051 A 
HETATM   19  C   UNK N   1      35.409  14.121  17.777  0.00  0.00     0.049 C 
BRANCH  15  20
HETATM   20  C   UNK N   1      34.785   8.558  19.357  0.00  0.00     0.252 C 
HETATM   21  O   UNK N   1      35.775   7.847  19.242  0.00  0.00    -0.268 OA
HETATM   22  N   UNK N   1      33.612   7.954  19.644  0.00  0.00    -0.352 N 
HETATM   23  H   UNK N   1      33.635   6.985  19.820  0.00  0.00     0.163 HD
BRANCH  22  24
HETATM   24  C   UNK N   1      32.344   8.606  19.713  0.00  0.00     0.084 A 
HETATM   25  C   UNK N   1      31.419   7.733  20.535  0.00  0.00     0.027 A 
HETATM   26  C   UNK N   1      32.062   8.951  21.157  0.00  0.00     0.027 A 
ENDBRANCH  22  24
ENDBRANCH  15  20
ENDBRANCH   6  13
BRANCH  12  27
HETATM   27  C   UNK N   1      33.885   9.621  11.144  0.00  0.00    -0.001 A 
HETATM   28  C   UNK N   1      32.757   9.850  10.337  0.00  0.00     0.014 A 
HETATM   29  C   UNK N   1      32.035   8.796   9.772  0.00  0.00     0.001 A 
HETATM   30  C   UNK N   1      32.425   7.479   9.992  0.00  0.00     0.001 A 
HETATM   31  C   UNK N   1      33.559   7.212  10.746  0.00  0.00     0.007 A 
HETATM   32  C   UNK N   1      34.304   8.247  11.319  0.00  0.00    -0.050 A 
HETATM   33  C   UNK N   1      35.568   7.806  11.976  0.00  0.00     0.049 C 
ENDBRANCH  12  27
TORSDOF 4
ENDMDL
MODEL 9
REMARK VINA RESULT:      -8.3      4.465      7.622
REMARK  4 active torsions:
REMARK  status: ('A' for Active; 'I' for Inactive)
REMARK    1  A    between atoms: C_7  and  C_21 
REMARK    2  A    between atoms: C_11  and  C_18 
REMARK    3  A    between atoms: C_17  and  C_25 
REMARK       I    between atoms: C_21  and  N_32 
REMARK    4  A    between atoms: C_22  and  N_32 
ROOT
HETATM    1  C   UNK N   1      21.014  14.525   4.980  0.00  0.00    -0.006 A 
HETATM    2  C   UNK N   1      21.566  14.362   6.271  0.00  0.00     0.004 A 
HETATM    3  C   UNK N   1      22.169  15.431   6.877  0.00  0.00     0.015 C 
HETATM    4  C   UNK N   1      22.389  16.581   6.195  0.00  0.00     0.013 C 
HETATM    5  C   UNK N   1      20.308  13.459   4.432  0.00  0.00     0.119 A 
HETATM    6  C   UNK N   1      21.994  16.757   4.866  0.00  0.00    -0.025 C 
HETATM    7  C   UNK N   1      21.233  15.732   4.254  0.00  0.00     0.026 C 
HETATM    8  N   UNK N   1      20.171  12.309   5.153  0.00  0.00    -0.311 N 
ATOM      9  HN  UNK N   1      19.610  11.549   4.766  1.00  0.00     0.186 HD
HETATM   10  N   UNK N   1      20.745  12.145   6.345  0.00  0.00    -0.299 N 
ATOM     11  HN  UNK N   1      20.628  11.255   6.830  1.00  0.00     0.187 HD
HETATM   12  C   UNK N   1      21.486  13.128   6.941  0.00  0.00     0.070 A 
ENDROOT
BRANCH   6  13
HETATM   13  C   UNK N   1      22.553  17.985   4.221  0.00  0.00    -0.019 A 
HETATM   14  C   UNK N   1      23.937  18.070   4.322  0.00  0.00     0.029 A 
HETATM   15  C   UNK N   1      24.707  19.089   3.842  0.00  0.00     0.032 A 
HETATM   16  C   UNK N   1      24.056  20.152   3.198  0.00  0.00     0.017 A 
HETATM   17  C   UNK N   1      22.648  20.104   3.028  0.00  0.00     0.009 A 
HETATM   18  C   UNK N   1      21.887  19.016   3.524  0.00  0.00    -0.051 A 
HETATM   19  C   UNK N   1      20.408  19.012   3.337  0.00  0.00     0.049 C 
BRANCH  15  20
HETATM   20  C   UNK N   1      26.176  18.924   4.082  0.00  0.00     0.252 C 
HETATM   21  O   UNK N   1      26.735  17.958   3.580  0.00  0.00    -0.268 OA
HETATM   22  N   UNK N   1      26.915  19.733   4.872  0.00  0.00    -0.352 N 
HETATM   23  H   UNK N   1      27.879  19.542   4.938  0.00  0.00     0.163 HD
BRANCH  22  24
HETATM   24  C   UNK N   1      26.411  20.840   5.620  0.00  0.00     0.084 A 
HETATM   25  C   UNK N   1      26.820  20.646   7.065  0.00  0.00     0.027 A 
HETATM   26  C   UNK N   1      27.584  21.609   6.185  0.00  0.00     0.027 A 
ENDBRANCH  22  24
ENDBRANCH  15  20
ENDBRANCH   6  13
BRANCH  12  27
HETATM   27  C   UNK N   1      22.181  12.824   8.258  0.00  0.00    -0.001 A 
HETATM   28  C   UNK N   1      23.468  12.266   8.170  0.00  0.00     0.014 A 
HETATM   29  C   UNK N   1      24.210  11.953   9.311  0.00  0.00     0.001 A 
HETATM   30  C   UNK N   1      23.689  12.197  10.577  0.00  0.00     0.001 A 
HETATM   31  C   UNK N   1      22.441  12.789  10.707  0.00  0.00     0.007 A 
HETATM   32  C   UNK N   1      21.678  13.117   9.583  0.00  0.00    -0.050 A 
HETATM   33  C   UNK N   1      20.429  13.874   9.886  0.00  0.00     0.049 C 
ENDBRANCH  12  27
TORSDOF 4
ENDMDL
