MODEL 1
REMARK VINA RESULT:      -6.3      0.000      0.000
REMARK  4 active torsions:
REMARK  status: ('A' for Active; 'I' for Inactive)
REMARK    1  A    between atoms: C_2  and  C_4 
REMARK    2  A    between atoms: C_2  and  O_3 
REMARK    3  A    between atoms: C_8  and  C_9 
REMARK    4  A    between atoms: C_9  and  C_10 
ROOT
HETATM    1  C   UNK N   1      33.230  17.727   7.419  0.00  0.00     0.148 A 
HETATM    2  O   UNK N   1      31.949  17.609   7.642  0.00  0.00    -0.308 OA
HETATM    3  C   UNK N   1      33.510  17.432   6.094  0.00  0.00     0.047 A 
HETATM    4  C   UNK N   1      32.287  17.109   5.519  0.00  0.00     0.036 A 
HETATM    5  C   UNK N   1      31.355  17.248   6.534  0.00  0.00     0.058 A 
ENDROOT
BRANCH   5   6
HETATM    6  C   UNK N   1      29.880  17.004   6.461  0.00  0.00     0.105 C 
BRANCH   6   7
HETATM    7  C   UNK N   1      28.970  18.183   6.230  0.00  0.00    -0.030 A 
HETATM    8  C   UNK N   1      28.705  18.517   4.896  0.00  0.00     0.009 A 
HETATM    9  C   UNK N   1      27.827  19.554   4.578  0.00  0.00     0.001 A 
HETATM   10  C   UNK N   1      27.205  20.276   5.596  0.00  0.00     0.002 A 
HETATM   11  C   UNK N   1      27.458  19.957   6.931  0.00  0.00     0.024 A 
HETATM   12  C   UNK N   1      28.330  18.914   7.263  0.00  0.00     0.040 A 
HETATM   13 Cl   UNK N   1      28.568  18.564   8.969  0.00  0.00    -0.084 Cl
ENDBRANCH   6   7
ENDBRANCH   5   6
BRANCH   1  14
HETATM   14  C   UNK N   1      34.204  18.098   8.456  0.00  0.00     0.201 C 
HETATM   15  O   UNK N   1      34.971  19.028   8.281  0.00  0.00    -0.645 OA
BRANCH  14  16
HETATM   16  O   UNK N   1      34.259  17.392   9.603  0.00  0.00    -0.771 OA
HETATM   17  H   UNK N   1      33.931  16.634  10.048  0.00  0.00     0.167 HD
ENDBRANCH  14  16
ENDBRANCH   1  14
TORSDOF 4
ENDMDL
MODEL 2
REMARK VINA RESULT:      -6.3     10.226     12.072
REMARK  4 active torsions:
REMARK  status: ('A' for Active; 'I' for Inactive)
REMARK    1  A    between atoms: C_2  and  C_4 
REMARK    2  A    between atoms: C_2  and  O_3 
REMARK    3  A    between atoms: C_8  and  C_9 
REMARK    4  A    between atoms: C_9  and  C_10 
ROOT
HETATM    1  C   UNK N   1      19.507  16.131   8.660  0.00  0.00     0.148 A 
HETATM    2  O   UNK N   1      19.661  14.858   8.907  0.00  0.00    -0.308 OA
HETATM    3  C   UNK N   1      20.599  16.613   7.957  0.00  0.00     0.047 A 
HETATM    4  C   UNK N   1      21.450  15.527   7.799  0.00  0.00     0.036 A 
HETATM    5  C   UNK N   1      20.803  14.462   8.406  0.00  0.00     0.058 A 
ENDROOT
BRANCH   5   6
HETATM    6  C   UNK N   1      21.289  13.054   8.540  0.00  0.00     0.105 C 
BRANCH   6   7
HETATM    7  C   UNK N   1      22.328  12.752   9.589  0.00  0.00    -0.030 A 
HETATM    8  C   UNK N   1      21.852  12.349  10.843  0.00  0.00     0.009 A 
HETATM    9  C   UNK N   1      22.735  11.989  11.862  0.00  0.00     0.001 A 
HETATM   10  C   UNK N   1      24.111  12.034  11.640  0.00  0.00     0.002 A 
HETATM   11  C   UNK N   1      24.603  12.433  10.396  0.00  0.00     0.024 A 
HETATM   12  C   UNK N   1      23.728  12.788   9.363  0.00  0.00     0.040 A 
HETATM   13 Cl   UNK N   1      24.434  13.252   7.821  0.00  0.00    -0.084 Cl
ENDBRANCH   6   7
ENDBRANCH   5   6
BRANCH   1  14
HETATM   14  C   UNK N   1      18.340  16.909   9.104  0.00  0.00     0.201 C 
HETATM   15  O   UNK N   1      17.234  16.401   9.137  0.00  0.00    -0.645 OA
BRANCH  14  16
HETATM   16  O   UNK N   1      18.495  18.199   9.462  0.00  0.00    -0.771 OA
HETATM   17  H   UNK N   1      18.135  18.895   9.977  0.00  0.00     0.167 HD
ENDBRANCH  14  16
ENDBRANCH   1  14
TORSDOF 4
ENDMDL
MODEL 3
REMARK VINA RESULT:      -6.1     11.137     12.863
REMARK  4 active torsions:
REMARK  status: ('A' for Active; 'I' for Inactive)
REMARK    1  A    between atoms: C_2  and  C_4 
REMARK    2  A    between atoms: C_2  and  O_3 
REMARK    3  A    between atoms: C_8  and  C_9 
REMARK    4  A    between atoms: C_9  and  C_10 
ROOT
HETATM    1  C   UNK N   1      30.334  22.801  -3.245  0.00  0.00     0.148 A 
HETATM    2  O   UNK N   1      29.083  22.807  -2.870  0.00  0.00    -0.308 OA
HETATM    3  C   UNK N   1      30.624  23.960  -3.946  0.00  0.00     0.047 A 
HETATM    4  C   UNK N   1      29.437  24.681  -3.981  0.00  0.00     0.036 A 
HETATM    5  C   UNK N   1      28.519  23.912  -3.285  0.00  0.00     0.058 A 
ENDROOT
BRANCH   5   6
HETATM    6  C   UNK N   1      27.075  24.214  -3.036  0.00  0.00     0.105 C 
BRANCH   6   7
HETATM    7  C   UNK N   1      26.398  25.243  -3.905  0.00  0.00    -0.030 A 
HETATM    8  C   UNK N   1      26.330  26.546  -3.394  0.00  0.00     0.009 A 
HETATM    9  C   UNK N   1      25.778  27.582  -4.148  0.00  0.00     0.001 A 
HETATM   10  C   UNK N   1      25.280  27.326  -5.425  0.00  0.00     0.002 A 
HETATM   11  C   UNK N   1      25.339  26.033  -5.949  0.00  0.00     0.024 A 
HETATM   12  C   UNK N   1      25.899  24.987  -5.207  0.00  0.00     0.040 A 
HETATM   13 Cl   UNK N   1      25.958  23.398  -5.957  0.00  0.00    -0.084 Cl
ENDBRANCH   6   7
ENDBRANCH   5   6
BRANCH   1  14
HETATM   14  C   UNK N   1      31.260  21.693  -2.967  0.00  0.00     0.201 C 
HETATM   15  O   UNK N   1      32.192  21.844  -2.197  0.00  0.00    -0.645 OA
BRANCH  14  16
HETATM   16  O   UNK N   1      31.085  20.506  -3.581  0.00  0.00    -0.771 OA
HETATM   17  H   UNK N   1      30.448  19.866  -3.835  0.00  0.00     0.167 HD
ENDBRANCH  14  16
ENDBRANCH   1  14
TORSDOF 4
ENDMDL
MODEL 4
REMARK VINA RESULT:      -6.1      9.073     11.779
REMARK  4 active torsions:
REMARK  status: ('A' for Active; 'I' for Inactive)
REMARK    1  A    between atoms: C_2  and  C_4 
REMARK    2  A    between atoms: C_2  and  O_3 
REMARK    3  A    between atoms: C_8  and  C_9 
REMARK    4  A    between atoms: C_9  and  C_10 
ROOT
HETATM    1  C   UNK N   1      35.347  13.766  12.456  0.00  0.00     0.148 A 
HETATM    2  O   UNK N   1      34.562  13.145  13.295  0.00  0.00    -0.308 OA
HETATM    3  C   UNK N   1      36.667  13.413  12.692  0.00  0.00     0.047 A 
HETATM    4  C   UNK N   1      36.630  12.526  13.760  0.00  0.00     0.036 A 
HETATM    5  C   UNK N   1      35.289  12.394  14.082  0.00  0.00     0.058 A 
ENDROOT
BRANCH   5   6
HETATM    6  C   UNK N   1      34.688  11.568  15.175  0.00  0.00     0.105 C 
BRANCH   6   7
HETATM    7  C   UNK N   1      34.953  11.969  16.604  0.00  0.00    -0.030 A 
HETATM    8  C   UNK N   1      34.954  13.343  16.878  0.00  0.00     0.009 A 
HETATM    9  C   UNK N   1      35.130  13.813  18.180  0.00  0.00     0.001 A 
HETATM   10  C   UNK N   1      35.312  12.911  19.228  0.00  0.00     0.002 A 
HETATM   11  C   UNK N   1      35.314  11.538  18.972  0.00  0.00     0.024 A 
HETATM   12  C   UNK N   1      35.131  11.054  17.672  0.00  0.00     0.040 A 
HETATM   13 Cl   UNK N   1      35.120   9.310  17.448  0.00  0.00    -0.084 Cl
ENDBRANCH   6   7
ENDBRANCH   5   6
BRANCH   1  14
HETATM   14  C   UNK N   1      34.864  14.713  11.440  0.00  0.00     0.201 C 
HETATM   15  O   UNK N   1      35.651  15.306  10.723  0.00  0.00    -0.645 OA
BRANCH  14  16
HETATM   16  O   UNK N   1      33.542  14.938  11.312  0.00  0.00    -0.771 OA
HETATM   17  H   UNK N   1      32.689  14.620  11.541  0.00  0.00     0.167 HD
ENDBRANCH  14  16
ENDBRANCH   1  14
TORSDOF 4
ENDMDL
MODEL 5
REMARK VINA RESULT:      -6.1      6.374      9.348
REMARK  4 active torsions:
REMARK  status: ('A' for Active; 'I' for Inactive)
REMARK    1  A    between atoms: C_2  and  C_4 
REMARK    2  A    between atoms: C_2  and  O_3 
REMARK    3  A    between atoms: C_8  and  C_9 
REMARK    4  A    between atoms: C_9  and  C_10 
ROOT
HETATM    1  C   UNK N   1      22.192  20.165   2.836  0.00  0.00     0.148 A 
HETATM    2  O   UNK N   1      23.371  20.695   2.649  0.00  0.00    -0.308 OA
HETATM    3  C   UNK N   1      22.294  19.065   3.672  0.00  0.00     0.047 A 
HETATM    4  C   UNK N   1      23.645  18.953   3.977  0.00  0.00     0.036 A 
HETATM    5  C   UNK N   1      24.260  20.004   3.316  0.00  0.00     0.058 A 
ENDROOT
BRANCH   5   6
HETATM    6  C   UNK N   1      25.717  20.340   3.291  0.00  0.00     0.105 C 
BRANCH   6   7
HETATM    7  C   UNK N   1      26.532  20.089   4.535  0.00  0.00    -0.030 A 
HETATM    8  C   UNK N   1      26.503  21.092   5.513  0.00  0.00     0.009 A 
HETATM    9  C   UNK N   1      27.175  20.928   6.725  0.00  0.00     0.001 A 
HETATM   10  C   UNK N   1      27.891  19.757   6.972  0.00  0.00     0.002 A 
HETATM   11  C   UNK N   1      27.930  18.748   6.008  0.00  0.00     0.024 A 
HETATM   12  C   UNK N   1      27.254  18.897   4.792  0.00  0.00     0.040 A 
HETATM   13 Cl   UNK N   1      27.334  17.564   3.648  0.00  0.00    -0.084 Cl
ENDBRANCH   6   7
ENDBRANCH   5   6
BRANCH   1  14
HETATM   14  C   UNK N   1      20.964  20.678   2.212  0.00  0.00     0.201 C 
HETATM   15  O   UNK N   1      19.941  20.016   2.223  0.00  0.00    -0.645 OA
BRANCH  14  16
HETATM   16  O   UNK N   1      20.974  21.884   1.609  0.00  0.00    -0.771 OA
HETATM   17  H   UNK N   1      20.986  22.809   1.757  0.00  0.00     0.167 HD
ENDBRANCH  14  16
ENDBRANCH   1  14
TORSDOF 4
ENDMDL
MODEL 6
REMARK VINA RESULT:      -6.1      6.042      8.938
REMARK  4 active torsions:
REMARK  status: ('A' for Active; 'I' for Inactive)
REMARK    1  A    between atoms: C_2  and  C_4 
REMARK    2  A    between atoms: C_2  and  O_3 
REMARK    3  A    between atoms: C_8  and  C_9 
REMARK    4  A    between atoms: C_9  and  C_10 
ROOT
HETATM    1  C   UNK N   1      22.622  20.245   2.940  0.00  0.00     0.148 A 
HETATM    2  O   UNK N   1      23.815  20.761   2.810  0.00  0.00    -0.308 OA
HETATM    3  C   UNK N   1      22.690  19.073   3.676  0.00  0.00     0.047 A 
HETATM    4  C   UNK N   1      24.034  18.903   3.982  0.00  0.00     0.036 A 
HETATM    5  C   UNK N   1      24.680  19.993   3.422  0.00  0.00     0.058 A 
ENDROOT
BRANCH   5   6
HETATM    6  C   UNK N   1      26.145  20.296   3.438  0.00  0.00     0.105 C 
BRANCH   6   7
HETATM    7  C   UNK N   1      27.007  19.605   4.463  0.00  0.00    -0.030 A 
HETATM    8  C   UNK N   1      27.716  18.478   4.027  0.00  0.00     0.009 A 
HETATM    9  C   UNK N   1      28.588  17.805   4.884  0.00  0.00     0.001 A 
HETATM   10  C   UNK N   1      28.758  18.249   6.195  0.00  0.00     0.002 A 
HETATM   11  C   UNK N   1      28.058  19.370   6.646  0.00  0.00     0.024 A 
HETATM   12  C   UNK N   1      27.188  20.059   5.794  0.00  0.00     0.040 A 
HETATM   13 Cl   UNK N   1      26.371  21.476   6.439  0.00  0.00    -0.084 Cl
ENDBRANCH   6   7
ENDBRANCH   5   6
BRANCH   1  14
HETATM   14  C   UNK N   1      21.412  20.840   2.353  0.00  0.00     0.201 C 
HETATM   15  O   UNK N   1      21.250  20.848   1.145  0.00  0.00    -0.645 OA
BRANCH  14  16
HETATM   16  O   UNK N   1      20.482  21.394   3.157  0.00  0.00    -0.771 OA
HETATM   17  H   UNK N   1      19.684  21.233   3.622  0.00  0.00     0.167 HD
ENDBRANCH  14  16
ENDBRANCH   1  14
TORSDOF 4
ENDMDL
MODEL 7
REMARK VINA RESULT:      -5.8      8.047     11.138
REMARK  4 active torsions:
REMARK  status: ('A' for Active; 'I' for Inactive)
REMARK    1  A    between atoms: C_2  and  C_4 
REMARK    2  A    between atoms: C_2  and  O_3 
REMARK    3  A    between atoms: C_8  and  C_9 
REMARK    4  A    between atoms: C_9  and  C_10 
ROOT
HETATM    1  C   UNK N   1      35.321  15.048  11.516  0.00  0.00     0.148 A 
HETATM    2  O   UNK N   1      36.022  15.280  12.592  0.00  0.00    -0.308 OA
HETATM    3  C   UNK N   1      34.779  13.773  11.569  0.00  0.00     0.047 A 
HETATM    4  C   UNK N   1      35.218  13.232  12.771  0.00  0.00     0.036 A 
HETATM    5  C   UNK N   1      35.980  14.226  13.365  0.00  0.00     0.058 A 
ENDROOT
BRANCH   5   6
HETATM    6  C   UNK N   1      36.706  14.163  14.672  0.00  0.00     0.105 C 
BRANCH   6   7
HETATM    7  C   UNK N   1      36.387  13.030  15.614  0.00  0.00    -0.030 A 
HETATM    8  C   UNK N   1      35.519  13.324  16.674  0.00  0.00     0.009 A 
HETATM    9  C   UNK N   1      35.116  12.329  17.565  0.00  0.00     0.001 A 
HETATM   10  C   UNK N   1      35.582  11.023  17.410  0.00  0.00     0.002 A 
HETATM   11  C   UNK N   1      36.448  10.714  16.359  0.00  0.00     0.024 A 
HETATM   12  C   UNK N   1      36.853  11.701  15.453  0.00  0.00     0.040 A 
HETATM   13 Cl   UNK N   1      37.922  11.215  14.145  0.00  0.00    -0.084 Cl
ENDBRANCH   6   7
ENDBRANCH   5   6
BRANCH   1  14
HETATM   14  C   UNK N   1      35.172  16.015  10.418  0.00  0.00     0.201 C 
HETATM   15  O   UNK N   1      35.167  15.639   9.259  0.00  0.00    -0.645 OA
BRANCH  14  16
HETATM   16  O   UNK N   1      35.057  17.328  10.696  0.00  0.00    -0.771 OA
HETATM   17  H   UNK N   1      35.404  18.180  10.510  0.00  0.00     0.167 HD
ENDBRANCH  14  16
ENDBRANCH   1  14
TORSDOF 4
ENDMDL
MODEL 8
REMARK VINA RESULT:      -5.8      1.885      2.629
REMARK  4 active torsions:
REMARK  status: ('A' for Active; 'I' for Inactive)
REMARK    1  A    between atoms: C_2  and  C_4 
REMARK    2  A    between atoms: C_2  and  O_3 
REMARK    3  A    between atoms: C_8  and  C_9 
REMARK    4  A    between atoms: C_9  and  C_10 
ROOT
HETATM    1  C   UNK N   1      32.276  17.306   6.938  0.00  0.00     0.148 A 
HETATM    2  O   UNK N   1      31.088  17.375   6.398  0.00  0.00    -0.308 OA
HETATM    3  C   UNK N   1      32.165  17.094   8.302  0.00  0.00     0.047 A 
HETATM    4  C   UNK N   1      30.801  17.047   8.562  0.00  0.00     0.036 A 
HETATM    5  C   UNK N   1      30.186  17.219   7.333  0.00  0.00     0.058 A 
ENDROOT
BRANCH   5   6
HETATM    6  C   UNK N   1      28.719  17.270   7.044  0.00  0.00     0.105 C 
BRANCH   6   7
HETATM    7  C   UNK N   1      28.168  18.490   6.351  0.00  0.00    -0.030 A 
HETATM    8  C   UNK N   1      27.804  19.565   7.173  0.00  0.00     0.009 A 
HETATM    9  C   UNK N   1      27.341  20.761   6.623  0.00  0.00     0.001 A 
HETATM   10  C   UNK N   1      27.229  20.895   5.240  0.00  0.00     0.002 A 
HETATM   11  C   UNK N   1      27.586  19.833   4.406  0.00  0.00     0.024 A 
HETATM   12  C   UNK N   1      28.061  18.632   4.944  0.00  0.00     0.040 A 
HETATM   13 Cl   UNK N   1      28.514  17.360   3.819  0.00  0.00    -0.084 Cl
ENDBRANCH   6   7
ENDBRANCH   5   6
BRANCH   1  14
HETATM   14  C   UNK N   1      33.524  17.463   6.176  0.00  0.00     0.201 C 
HETATM   15  O   UNK N   1      33.579  17.135   5.004  0.00  0.00    -0.645 OA
BRANCH  14  16
HETATM   16  O   UNK N   1      34.620  17.958   6.785  0.00  0.00    -0.771 OA
HETATM   17  H   UNK N   1      34.924  18.578   7.419  0.00  0.00     0.167 HD
ENDBRANCH  14  16
ENDBRANCH   1  14
TORSDOF 4
ENDMDL
MODEL 9
REMARK VINA RESULT:      -5.7      9.792     11.206
REMARK  4 active torsions:
REMARK  status: ('A' for Active; 'I' for Inactive)
REMARK    1  A    between atoms: C_2  and  C_4 
REMARK    2  A    between atoms: C_2  and  O_3 
REMARK    3  A    between atoms: C_8  and  C_9 
REMARK    4  A    between atoms: C_9  and  C_10 
ROOT
HETATM    1  C   UNK N   1      19.952  17.949   8.486  0.00  0.00     0.148 A 
HETATM    2  O   UNK N   1      20.679  18.572   7.598  0.00  0.00    -0.308 OA
HETATM    3  C   UNK N   1      19.919  16.592   8.205  0.00  0.00     0.047 A 
HETATM    4  C   UNK N   1      20.683  16.432   7.055  0.00  0.00     0.036 A 
HETATM    5  C   UNK N   1      21.136  17.702   6.734  0.00  0.00     0.058 A 
ENDROOT
BRANCH   5   6
HETATM    6  C   UNK N   1      21.987  18.102   5.571  0.00  0.00     0.105 C 
BRANCH   6   7
HETATM    7  C   UNK N   1      21.331  18.259   4.224  0.00  0.00    -0.030 A 
HETATM    8  C   UNK N   1      20.977  19.562   3.849  0.00  0.00     0.009 A 
HETATM    9  C   UNK N   1      20.419  19.820   2.597  0.00  0.00     0.001 A 
HETATM   10  C   UNK N   1      20.202  18.773   1.701  0.00  0.00     0.002 A 
HETATM   11  C   UNK N   1      20.549  17.469   2.058  0.00  0.00     0.024 A 
HETATM   12  C   UNK N   1      21.118  17.198   3.308  0.00  0.00     0.040 A 
HETATM   13 Cl   UNK N   1      21.549  15.531   3.662  0.00  0.00    -0.084 Cl
ENDBRANCH   6   7
ENDBRANCH   5   6
BRANCH   1  14
HETATM   14  C   UNK N   1      19.264  18.628   9.594  0.00  0.00     0.201 C 
HETATM   15  O   UNK N   1      19.817  19.522  10.211  0.00  0.00    -0.645 OA
BRANCH  14  16
HETATM   16  O   UNK N   1      18.018  18.248   9.940  0.00  0.00    -0.771 OA
HETATM   17  H   UNK N   1      17.518  17.593  10.387  0.00  0.00     0.167 HD
ENDBRANCH  14  16
ENDBRANCH   1  14
TORSDOF 4
ENDMDL
