MODEL 1
REMARK VINA RESULT:      -6.4      0.000      0.000
REMARK  5 active torsions:
REMARK  status: ('A' for Active; 'I' for Inactive)
REMARK    1  A    between atoms: C_5  and  S_8 
REMARK    2  A    between atoms: S_8  and  N_11 
REMARK    3  A    between atoms: N_11  and  C_12 
REMARK    4  A    between atoms: C_17  and  C_19 
REMARK    5  A    between atoms: C_19  and  O_20 
ROOT
HETATM    1  N   UNK N   1      28.476  24.982  -4.081  0.00  0.00    -0.280 N 
HETATM    2  H   UNK N   1      28.944  25.699  -3.596  0.00  0.00     0.179 HD
ENDROOT
BRANCH   1   3
HETATM    3  S   UNK N   1      26.768  25.157  -4.464  0.00  0.00     0.263 S 
HETATM    4  O   UNK N   1      26.038  24.112  -3.606  0.00  0.00    -0.200 OA
HETATM    5  O   UNK N   1      26.350  26.464  -3.775  0.00  0.00    -0.200 OA
BRANCH   3   6
HETATM    6  C   UNK N   1      26.272  25.118  -6.185  0.00  0.00     0.080 A 
HETATM    7  C   UNK N   1      26.259  26.301  -6.930  0.00  0.00     0.027 A 
HETATM    8  C   UNK N   1      25.888  26.278  -8.278  0.00  0.00     0.025 A 
HETATM    9  C   UNK N   1      25.533  25.070  -8.884  0.00  0.00     0.034 A 
HETATM   10 Cl   UNK N   1      25.076  25.044 -10.575  0.00  0.00    -0.084 Cl
HETATM   11  C   UNK N   1      25.544  23.884  -8.141  0.00  0.00     0.025 A 
HETATM   12  C   UNK N   1      25.913  23.909  -6.791  0.00  0.00     0.027 A 
ENDBRANCH   3   6
ENDBRANCH   1   3
BRANCH   1  13
HETATM   13  C   UNK N   1      29.182  23.819  -4.467  0.00  0.00     0.059 A 
HETATM   14  C   UNK N   1      29.462  23.628  -5.825  0.00  0.00     0.032 A 
HETATM   15  C   UNK N   1      30.201  22.523  -6.249  0.00  0.00     0.021 A 
HETATM   16  C   UNK N   1      30.674  21.602  -5.316  0.00  0.00     0.012 A 
HETATM   17  C   UNK N   1      30.393  21.774  -3.959  0.00  0.00     0.039 A 
HETATM   18 Br   UNK N   1      31.706  20.107  -5.892  0.00  0.00    -0.051 Br
HETATM   19  C   UNK N   1      29.643  22.873  -3.514  0.00  0.00     0.066 A 
BRANCH  19  20
HETATM   20  C   UNK N   1      29.354  22.981  -2.060  0.00  0.00     0.178 C 
HETATM   21  O   UNK N   1      30.258  23.026  -1.241  0.00  0.00    -0.646 OA
BRANCH  20  22
HETATM   22  O   UNK N   1      28.079  23.074  -1.633  0.00  0.00    -0.773 OA
HETATM   23  H   UNK N   1      27.378  22.691  -2.124  0.00  0.00     0.167 HD
ENDBRANCH  20  22
ENDBRANCH  19  20
ENDBRANCH   1  13
TORSDOF 5
ENDMDL
MODEL 2
REMARK VINA RESULT:      -6.3     10.976     12.876
REMARK  5 active torsions:
REMARK  status: ('A' for Active; 'I' for Inactive)
REMARK    1  A    between atoms: C_5  and  S_8 
REMARK    2  A    between atoms: S_8  and  N_11 
REMARK    3  A    between atoms: N_11  and  C_12 
REMARK    4  A    between atoms: C_17  and  C_19 
REMARK    5  A    between atoms: C_19  and  O_20 
ROOT
HETATM    1  N   UNK N   1      27.745  17.666   6.049  0.00  0.00    -0.280 N 
HETATM    2  H   UNK N   1      27.132  16.900   5.974  0.00  0.00     0.179 HD
ENDROOT
BRANCH   1   3
HETATM    3  S   UNK N   1      27.255  19.239   5.431  0.00  0.00     0.263 S 
HETATM    4  O   UNK N   1      27.461  20.226   6.590  0.00  0.00    -0.200 OA
HETATM    5  O   UNK N   1      28.387  19.649   4.477  0.00  0.00    -0.200 OA
BRANCH   3   6
HETATM    6  C   UNK N   1      25.644  19.388   4.663  0.00  0.00     0.080 A 
HETATM    7  C   UNK N   1      25.415  20.395   3.719  0.00  0.00     0.027 A 
HETATM    8  C   UNK N   1      24.165  20.510   3.104  0.00  0.00     0.025 A 
HETATM    9  C   UNK N   1      23.142  19.614   3.428  0.00  0.00     0.034 A 
HETATM   10 Cl   UNK N   1      21.580  19.756   2.648  0.00  0.00    -0.084 Cl
HETATM   11  C   UNK N   1      23.368  18.606   4.371  0.00  0.00     0.025 A 
HETATM   12  C   UNK N   1      24.618  18.494   4.989  0.00  0.00     0.027 A 
ENDBRANCH   3   6
ENDBRANCH   1   3
BRANCH   1  13
HETATM   13  C   UNK N   1      29.012  17.496   6.653  0.00  0.00     0.059 A 
HETATM   14  C   UNK N   1      30.122  17.289   5.826  0.00  0.00     0.032 A 
HETATM   15  C   UNK N   1      31.400  17.168   6.371  0.00  0.00     0.021 A 
HETATM   16  C   UNK N   1      31.582  17.262   7.750  0.00  0.00     0.012 A 
HETATM   17  C   UNK N   1      30.481  17.457   8.588  0.00  0.00     0.039 A 
HETATM   18 Br   UNK N   1      33.331  17.123   8.493  0.00  0.00    -0.051 Br
HETATM   19  C   UNK N   1      29.186  17.571   8.060  0.00  0.00     0.066 A 
BRANCH  19  20
HETATM   20  C   UNK N   1      28.056  17.748   9.008  0.00  0.00     0.178 C 
HETATM   21  O   UNK N   1      27.793  16.895   9.840  0.00  0.00    -0.646 OA
BRANCH  20  22
HETATM   22  O   UNK N   1      27.331  18.884   8.984  0.00  0.00    -0.773 OA
HETATM   23  H   UNK N   1      26.420  18.879   9.208  0.00  0.00     0.167 HD
ENDBRANCH  20  22
ENDBRANCH  19  20
ENDBRANCH   1  13
TORSDOF 5
ENDMDL
MODEL 3
REMARK VINA RESULT:      -6.3      3.125      4.331
REMARK  5 active torsions:
REMARK  status: ('A' for Active; 'I' for Inactive)
REMARK    1  A    between atoms: C_5  and  S_8 
REMARK    2  A    between atoms: S_8  and  N_11 
REMARK    3  A    between atoms: N_11  and  C_12 
REMARK    4  A    between atoms: C_17  and  C_19 
REMARK    5  A    between atoms: C_19  and  O_20 
ROOT
HETATM    1  N   UNK N   1      30.654  21.147  -3.200  0.00  0.00    -0.280 N 
HETATM    2  H   UNK N   1      30.404  20.492  -2.511  0.00  0.00     0.179 HD
ENDROOT
BRANCH   1   3
HETATM    3  S   UNK N   1      30.355  22.860  -2.928  0.00  0.00     0.263 S 
HETATM    4  O   UNK N   1      30.368  23.049  -1.403  0.00  0.00    -0.200 OA
HETATM    5  O   UNK N   1      31.666  23.550  -3.332  0.00  0.00    -0.200 OA
BRANCH   3   6
HETATM    6  C   UNK N   1      28.932  23.611  -3.713  0.00  0.00     0.080 A 
HETATM    7  C   UNK N   1      28.978  23.929  -5.074  0.00  0.00     0.027 A 
HETATM    8  C   UNK N   1      27.866  24.503  -5.699  0.00  0.00     0.025 A 
HETATM    9  C   UNK N   1      26.705  24.755  -4.964  0.00  0.00     0.034 A 
HETATM   10 Cl   UNK N   1      25.311  25.466  -5.753  0.00  0.00    -0.084 Cl
HETATM   11  C   UNK N   1      26.656  24.439  -3.602  0.00  0.00     0.025 A 
HETATM   12  C   UNK N   1      27.770  23.868  -2.977  0.00  0.00     0.027 A 
ENDBRANCH   3   6
ENDBRANCH   1   3
BRANCH   1  13
HETATM   13  C   UNK N   1      31.254  20.707  -4.402  0.00  0.00     0.059 A 
HETATM   14  C   UNK N   1      30.440  20.528  -5.527  0.00  0.00     0.032 A 
HETATM   15  C   UNK N   1      30.992  20.146  -6.750  0.00  0.00     0.021 A 
HETATM   16  C   UNK N   1      32.367  19.945  -6.861  0.00  0.00     0.012 A 
HETATM   17  C   UNK N   1      33.190  20.109  -5.744  0.00  0.00     0.039 A 
HETATM   18 Br   UNK N   1      33.126  19.448  -8.537  0.00  0.00    -0.051 Br
HETATM   19  C   UNK N   1      32.652  20.483  -4.503  0.00  0.00     0.066 A 
BRANCH  19  20
HETATM   20  C   UNK N   1      33.579  20.611  -3.348  0.00  0.00     0.178 C 
HETATM   21  O   UNK N   1      34.776  20.414  -3.477  0.00  0.00    -0.646 OA
BRANCH  20  22
HETATM   22  O   UNK N   1      33.104  20.991  -2.145  0.00  0.00    -0.773 OA
HETATM   23  H   UNK N   1      33.395  20.572  -1.359  0.00  0.00     0.167 HD
ENDBRANCH  20  22
ENDBRANCH  19  20
ENDBRANCH   1  13
TORSDOF 5
ENDMDL
MODEL 4
REMARK VINA RESULT:      -6.3      3.711      4.824
REMARK  5 active torsions:
REMARK  status: ('A' for Active; 'I' for Inactive)
REMARK    1  A    between atoms: C_5  and  S_8 
REMARK    2  A    between atoms: S_8  and  N_11 
REMARK    3  A    between atoms: N_11  and  C_12 
REMARK    4  A    between atoms: C_17  and  C_19 
REMARK    5  A    between atoms: C_19  and  O_20 
ROOT
HETATM    1  N   UNK N   1      25.160  24.094  -5.680  0.00  0.00    -0.280 N 
HETATM    2  H   UNK N   1      24.500  23.558  -5.184  0.00  0.00     0.179 HD
ENDROOT
BRANCH   1   3
HETATM    3  S   UNK N   1      25.843  23.472  -7.177  0.00  0.00     0.263 S 
HETATM    4  O   UNK N   1      27.077  22.654  -6.765  0.00  0.00    -0.200 OA
HETATM    5  O   UNK N   1      24.874  22.362  -7.612  0.00  0.00    -0.200 OA
BRANCH   3   6
HETATM    6  C   UNK N   1      26.179  24.626  -8.505  0.00  0.00     0.080 A 
HETATM    7  C   UNK N   1      27.320  25.432  -8.451  0.00  0.00     0.027 A 
HETATM    8  C   UNK N   1      27.598  26.325  -9.490  0.00  0.00     0.025 A 
HETATM    9  C   UNK N   1      26.736  26.411 -10.587  0.00  0.00     0.034 A 
HETATM   10 Cl   UNK N   1      27.093  27.525 -11.891  0.00  0.00    -0.084 Cl
HETATM   11  C   UNK N   1      25.593  25.606 -10.644  0.00  0.00     0.025 A 
HETATM   12  C   UNK N   1      25.314  24.714  -9.602  0.00  0.00     0.027 A 
ENDBRANCH   3   6
ENDBRANCH   1   3
BRANCH   1  13
HETATM   13  C   UNK N   1      25.551  25.359  -5.185  0.00  0.00     0.059 A 
HETATM   14  C   UNK N   1      24.932  26.500  -5.708  0.00  0.00     0.032 A 
HETATM   15  C   UNK N   1      25.245  27.767  -5.215  0.00  0.00     0.021 A 
HETATM   16  C   UNK N   1      26.177  27.904  -4.187  0.00  0.00     0.012 A 
HETATM   17  C   UNK N   1      26.810  26.774  -3.663  0.00  0.00     0.039 A 
HETATM   18 Br   UNK N   1      26.586  29.631  -3.495  0.00  0.00    -0.051 Br
HETATM   19  C   UNK N   1      26.516  25.493  -4.152  0.00  0.00     0.066 A 
BRANCH  19  20
HETATM   20  C   UNK N   1      27.247  24.336  -3.572  0.00  0.00     0.178 C 
HETATM   21  O   UNK N   1      26.983  23.923  -2.455  0.00  0.00    -0.646 OA
BRANCH  20  22
HETATM   22  O   UNK N   1      28.188  23.703  -4.299  0.00  0.00    -0.773 OA
HETATM   23  H   UNK N   1      27.949  23.124  -4.997  0.00  0.00     0.167 HD
ENDBRANCH  20  22
ENDBRANCH  19  20
ENDBRANCH   1  13
TORSDOF 5
ENDMDL
MODEL 5
REMARK VINA RESULT:      -6.2     10.833     12.628
REMARK  5 active torsions:
REMARK  status: ('A' for Active; 'I' for Inactive)
REMARK    1  A    between atoms: C_5  and  S_8 
REMARK    2  A    between atoms: S_8  and  N_11 
REMARK    3  A    between atoms: N_11  and  C_12 
REMARK    4  A    between atoms: C_17  and  C_19 
REMARK    5  A    between atoms: C_19  and  O_20 
ROOT
HETATM    1  N   UNK N   1      20.344  18.026   3.090  0.00  0.00    -0.280 N 
HETATM    2  H   UNK N   1      19.422  17.993   3.431  0.00  0.00     0.179 HD
ENDROOT
BRANCH   1   3
HETATM    3  S   UNK N   1      21.185  19.569   2.992  0.00  0.00     0.263 S 
HETATM    4  O   UNK N   1      20.849  20.141   1.606  0.00  0.00    -0.200 OA
HETATM    5  O   UNK N   1      20.383  20.504   3.910  0.00  0.00    -0.200 OA
BRANCH   3   6
HETATM    6  C   UNK N   1      22.937  19.610   3.360  0.00  0.00     0.080 A 
HETATM    7  C   UNK N   1      23.451  18.804   4.381  0.00  0.00     0.027 A 
HETATM    8  C   UNK N   1      24.819  18.818   4.664  0.00  0.00     0.025 A 
HETATM    9  C   UNK N   1      25.678  19.636   3.925  0.00  0.00     0.034 A 
HETATM   10 Cl   UNK N   1      27.394  19.644   4.278  0.00  0.00    -0.084 Cl
HETATM   11  C   UNK N   1      25.167  20.444   2.903  0.00  0.00     0.025 A 
HETATM   12  C   UNK N   1      23.796  20.432   2.622  0.00  0.00     0.027 A 
ENDBRANCH   3   6
ENDBRANCH   1   3
BRANCH   1  13
HETATM   13  C   UNK N   1      20.985  16.834   2.683  0.00  0.00     0.059 A 
HETATM   14  C   UNK N   1      21.805  16.170   3.603  0.00  0.00     0.032 A 
HETATM   15  C   UNK N   1      22.417  14.962   3.267  0.00  0.00     0.021 A 
HETATM   16  C   UNK N   1      22.208  14.402   2.007  0.00  0.00     0.012 A 
HETATM   17  C   UNK N   1      21.401  15.060   1.075  0.00  0.00     0.039 A 
HETATM   18 Br   UNK N   1      23.022  12.740   1.556  0.00  0.00    -0.051 Br
HETATM   19  C   UNK N   1      20.786  16.280   1.391  0.00  0.00     0.066 A 
BRANCH  19  20
HETATM   20  C   UNK N   1      19.964  16.942   0.344  0.00  0.00     0.178 C 
HETATM   21  O   UNK N   1      18.915  16.449  -0.037  0.00  0.00    -0.646 OA
BRANCH  20  22
HETATM   22  O   UNK N   1      20.354  18.126  -0.167  0.00  0.00    -0.773 OA
HETATM   23  H   UNK N   1      21.035  18.626   0.240  0.00  0.00     0.167 HD
ENDBRANCH  20  22
ENDBRANCH  19  20
ENDBRANCH   1  13
TORSDOF 5
ENDMDL
MODEL 6
REMARK VINA RESULT:      -6.2     14.149     15.645
REMARK  5 active torsions:
REMARK  status: ('A' for Active; 'I' for Inactive)
REMARK    1  A    between atoms: C_5  and  S_8 
REMARK    2  A    between atoms: S_8  and  N_11 
REMARK    3  A    between atoms: N_11  and  C_12 
REMARK    4  A    between atoms: C_17  and  C_19 
REMARK    5  A    between atoms: C_19  and  O_20 
ROOT
HETATM    1  N   UNK N   1      20.349  16.260   6.172  0.00  0.00    -0.280 N 
HETATM    2  H   UNK N   1      19.537  16.140   5.630  0.00  0.00     0.179 HD
ENDROOT
BRANCH   1   3
HETATM    3  S   UNK N   1      21.429  17.609   5.840  0.00  0.00     0.263 S 
HETATM    4  O   UNK N   1      21.354  18.519   7.076  0.00  0.00    -0.200 OA
HETATM    5  O   UNK N   1      22.840  17.018   5.983  0.00  0.00    -0.200 OA
BRANCH   3   6
HETATM    6  C   UNK N   1      21.229  18.502   4.301  0.00  0.00     0.080 A 
HETATM    7  C   UNK N   1      22.203  19.422   3.900  0.00  0.00     0.027 A 
HETATM    8  C   UNK N   1      22.062  20.112   2.693  0.00  0.00     0.025 A 
HETATM    9  C   UNK N   1      20.947  19.882   1.882  0.00  0.00     0.034 A 
HETATM   10 Cl   UNK N   1      20.778  20.743   0.366  0.00  0.00    -0.084 Cl
HETATM   11  C   UNK N   1      19.970  18.963   2.281  0.00  0.00     0.025 A 
HETATM   12  C   UNK N   1      20.111  18.274   3.491  0.00  0.00     0.027 A 
ENDBRANCH   3   6
ENDBRANCH   1   3
BRANCH   1  13
HETATM   13  C   UNK N   1      20.640  15.348   7.212  0.00  0.00     0.059 A 
HETATM   14  C   UNK N   1      21.546  14.312   6.956  0.00  0.00     0.032 A 
HETATM   15  C   UNK N   1      21.906  13.418   7.965  0.00  0.00     0.021 A 
HETATM   16  C   UNK N   1      21.368  13.557   9.243  0.00  0.00     0.012 A 
HETATM   17  C   UNK N   1      20.454  14.579   9.509  0.00  0.00     0.039 A 
HETATM   18 Br   UNK N   1      21.879  12.352  10.628  0.00  0.00    -0.051 Br
HETATM   19  C   UNK N   1      20.072  15.481   8.506  0.00  0.00     0.066 A 
BRANCH  19  20
HETATM   20  C   UNK N   1      19.073  16.528   8.848  0.00  0.00     0.178 C 
HETATM   21  O   UNK N   1      17.926  16.231   9.137  0.00  0.00    -0.646 OA
BRANCH  20  22
HETATM   22  O   UNK N   1      19.443  17.823   8.882  0.00  0.00    -0.773 OA
HETATM   23  H   UNK N   1      19.696  18.231   9.688  0.00  0.00     0.167 HD
ENDBRANCH  20  22
ENDBRANCH  19  20
ENDBRANCH   1  13
TORSDOF 5
ENDMDL
MODEL 7
REMARK VINA RESULT:      -6.2      4.067      5.593
REMARK  5 active torsions:
REMARK  status: ('A' for Active; 'I' for Inactive)
REMARK    1  A    between atoms: C_5  and  S_8 
REMARK    2  A    between atoms: S_8  and  N_11 
REMARK    3  A    between atoms: N_11  and  C_12 
REMARK    4  A    between atoms: C_17  and  C_19 
REMARK    5  A    between atoms: C_19  and  O_20 
ROOT
HETATM    1  N   UNK N   1      25.342  24.083  -5.601  0.00  0.00    -0.280 N 
HETATM    2  H   UNK N   1      24.793  23.486  -5.045  0.00  0.00     0.179 HD
ENDROOT
BRANCH   1   3
HETATM    3  S   UNK N   1      25.924  23.529  -7.167  0.00  0.00     0.263 S 
HETATM    4  O   UNK N   1      24.683  23.017  -7.915  0.00  0.00    -0.200 OA
HETATM    5  O   UNK N   1      26.236  24.818  -7.941  0.00  0.00    -0.200 OA
BRANCH   3   6
HETATM    6  C   UNK N   1      27.292  22.374  -7.208  0.00  0.00     0.080 A 
HETATM    7  C   UNK N   1      27.251  21.279  -8.077  0.00  0.00     0.027 A 
HETATM    8  C   UNK N   1      28.321  20.381  -8.126  0.00  0.00     0.025 A 
HETATM    9  C   UNK N   1      29.437  20.579  -7.308  0.00  0.00     0.034 A 
HETATM   10 Cl   UNK N   1      30.779  19.456  -7.379  0.00  0.00    -0.084 Cl
HETATM   11  C   UNK N   1      29.481  21.673  -6.437  0.00  0.00     0.025 A 
HETATM   12  C   UNK N   1      28.408  22.570  -6.386  0.00  0.00     0.027 A 
ENDBRANCH   3   6
ENDBRANCH   1   3
BRANCH   1  13
HETATM   13  C   UNK N   1      25.659  25.380  -5.137  0.00  0.00     0.059 A 
HETATM   14  C   UNK N   1      25.029  26.476  -5.740  0.00  0.00     0.032 A 
HETATM   15  C   UNK N   1      25.267  27.772  -5.283  0.00  0.00     0.021 A 
HETATM   16  C   UNK N   1      26.134  27.984  -4.211  0.00  0.00     0.012 A 
HETATM   17  C   UNK N   1      26.778  26.901  -3.608  0.00  0.00     0.039 A 
HETATM   18 Br   UNK N   1      26.440  29.752  -3.569  0.00  0.00    -0.051 Br
HETATM   19  C   UNK N   1      26.559  25.592  -4.060  0.00  0.00     0.066 A 
BRANCH  19  20
HETATM   20  C   UNK N   1      27.297  24.488  -3.393  0.00  0.00     0.178 C 
HETATM   21  O   UNK N   1      26.706  23.622  -2.769  0.00  0.00    -0.646 OA
BRANCH  20  22
HETATM   22  O   UNK N   1      28.638  24.410  -3.509  0.00  0.00    -0.773 OA
HETATM   23  H   UNK N   1      29.126  23.766  -3.034  0.00  0.00     0.167 HD
ENDBRANCH  20  22
ENDBRANCH  19  20
ENDBRANCH   1  13
TORSDOF 5
ENDMDL
MODEL 8
REMARK VINA RESULT:      -6.2     14.199     17.184
REMARK  5 active torsions:
REMARK  status: ('A' for Active; 'I' for Inactive)
REMARK    1  A    between atoms: C_5  and  S_8 
REMARK    2  A    between atoms: S_8  and  N_11 
REMARK    3  A    between atoms: N_11  and  C_12 
REMARK    4  A    between atoms: C_17  and  C_19 
REMARK    5  A    between atoms: C_19  and  O_20 
ROOT
HETATM    1  N   UNK N   1      31.255  16.346   7.796  0.00  0.00    -0.280 N 
HETATM    2  H   UNK N   1      30.974  15.487   8.187  0.00  0.00     0.179 HD
ENDROOT
BRANCH   1   3
HETATM    3  S   UNK N   1      32.896  16.927   8.051  0.00  0.00     0.263 S 
HETATM    4  O   UNK N   1      33.600  16.799   6.691  0.00  0.00    -0.200 OA
HETATM    5  O   UNK N   1      32.751  18.450   8.177  0.00  0.00    -0.200 OA
BRANCH   3   6
HETATM    6  C   UNK N   1      33.846  16.230   9.399  0.00  0.00     0.080 A 
HETATM    7  C   UNK N   1      33.488  14.988   9.933  0.00  0.00     0.027 A 
HETATM    8  C   UNK N   1      34.233  14.430  10.976  0.00  0.00     0.025 A 
HETATM    9  C   UNK N   1      35.342  15.111  11.485  0.00  0.00     0.034 A 
HETATM   10 Cl   UNK N   1      36.278  14.404  12.786  0.00  0.00    -0.084 Cl
HETATM   11  C   UNK N   1      35.703  16.355  10.954  0.00  0.00     0.025 A 
HETATM   12  C   UNK N   1      34.955  16.914   9.912  0.00  0.00     0.027 A 
ENDBRANCH   3   6
ENDBRANCH   1   3
BRANCH   1  13
HETATM   13  C   UNK N   1      30.337  17.103   7.033  0.00  0.00     0.059 A 
HETATM   14  C   UNK N   1      30.461  17.093   5.639  0.00  0.00     0.032 A 
HETATM   15  C   UNK N   1      29.547  17.781   4.840  0.00  0.00     0.021 A 
HETATM   16  C   UNK N   1      28.496  18.481   5.429  0.00  0.00     0.012 A 
HETATM   17  C   UNK N   1      28.367  18.509   6.819  0.00  0.00     0.039 A 
HETATM   18 Br   UNK N   1      27.233  19.400   4.337  0.00  0.00    -0.051 Br
HETATM   19  C   UNK N   1      29.280  17.832   7.640  0.00  0.00     0.066 A 
BRANCH  19  20
HETATM   20  C   UNK N   1      29.103  17.927   9.113  0.00  0.00     0.178 C 
HETATM   21  O   UNK N   1      28.074  17.548   9.648  0.00  0.00    -0.646 OA
BRANCH  20  22
HETATM   22  O   UNK N   1      30.106  18.397   9.881  0.00  0.00    -0.773 OA
HETATM   23  H   UNK N   1      29.965  19.110  10.473  0.00  0.00     0.167 HD
ENDBRANCH  20  22
ENDBRANCH  19  20
ENDBRANCH   1  13
TORSDOF 5
ENDMDL
MODEL 9
REMARK VINA RESULT:      -6.1     19.301     22.436
REMARK  5 active torsions:
REMARK  status: ('A' for Active; 'I' for Inactive)
REMARK    1  A    between atoms: C_5  and  S_8 
REMARK    2  A    between atoms: S_8  and  N_11 
REMARK    3  A    between atoms: N_11  and  C_12 
REMARK    4  A    between atoms: C_17  and  C_19 
REMARK    5  A    between atoms: C_19  and  O_20 
ROOT
HETATM    1  N   UNK N   1      34.477  13.945  11.809  0.00  0.00    -0.280 N 
HETATM    2  H   UNK N   1      33.604  14.241  12.152  0.00  0.00     0.179 HD
ENDROOT
BRANCH   1   3
HETATM    3  S   UNK N   1      35.769  13.548  12.936  0.00  0.00     0.263 S 
HETATM    4  O   UNK N   1      36.965  13.125  12.068  0.00  0.00    -0.200 OA
HETATM    5  O   UNK N   1      36.246  14.907  13.470  0.00  0.00    -0.200 OA
BRANCH   3   6
HETATM    6  C   UNK N   1      35.421  12.392  14.258  0.00  0.00     0.080 A 
HETATM    7  C   UNK N   1      34.358  11.492  14.132  0.00  0.00     0.027 A 
HETATM    8  C   UNK N   1      34.088  10.577  15.153  0.00  0.00     0.025 A 
HETATM    9  C   UNK N   1      34.884  10.556  16.302  0.00  0.00     0.034 A 
HETATM   10 Cl   UNK N   1      34.548   9.402  17.576  0.00  0.00    -0.084 Cl
HETATM   11  C   UNK N   1      35.949  11.456  16.432  0.00  0.00     0.025 A 
HETATM   12  C   UNK N   1      36.216  12.374  15.410  0.00  0.00     0.027 A 
ENDBRANCH   3   6
ENDBRANCH   1   3
BRANCH   1  13
HETATM   13  C   UNK N   1      34.685  13.839  10.414  0.00  0.00     0.059 A 
HETATM   14  C   UNK N   1      34.288  12.662   9.769  0.00  0.00     0.032 A 
HETATM   15  C   UNK N   1      34.422  12.530   8.386  0.00  0.00     0.021 A 
HETATM   16  C   UNK N   1      34.949  13.579   7.635  0.00  0.00     0.012 A 
HETATM   17  C   UNK N   1      35.360  14.755   8.267  0.00  0.00     0.039 A 
HETATM   18 Br   UNK N   1      35.110  13.410   5.744  0.00  0.00    -0.051 Br
HETATM   19  C   UNK N   1      35.242  14.903   9.657  0.00  0.00     0.066 A 
BRANCH  19  20
HETATM   20  C   UNK N   1      35.725  16.167  10.271  0.00  0.00     0.178 C 
HETATM   21  O   UNK N   1      35.063  17.189  10.208  0.00  0.00    -0.646 OA
BRANCH  20  22
HETATM   22  O   UNK N   1      36.892  16.184  10.946  0.00  0.00    -0.773 OA
HETATM   23  H   UNK N   1      37.633  16.652  10.615  0.00  0.00     0.167 HD
ENDBRANCH  20  22
ENDBRANCH  19  20
ENDBRANCH   1  13
TORSDOF 5
ENDMDL
