REMARK  4 active torsions:
REMARK  status: ('A' for Active; 'I' for Inactive)
REMARK    1  A    between atoms: C_5  and  C_2 
REMARK    2  A    between atoms: C_12  and  N_13 
REMARK    3  A    between atoms: N_13  and  C_14 
REMARK    4  A    between atoms: C_14  and  C_16 
ROOT
HETATM    1  C   UNK N   1       2.419   2.706  -0.311  0.00  0.00     0.190 C 
HETATM    2  C   UNK N   1       3.079   1.686   0.569  0.00  0.00     0.251 C 
HETATM    3  O   UNK N   1       3.923   1.979   1.405  0.00  0.00    -0.271 OA
HETATM    4  N   UNK N   1       2.603   0.440   0.481  0.00  0.00    -0.306 N 
ATOM      5  HN  UNK N   1       2.931  -0.322   1.074  1.00  0.00     0.171 HD
HETATM    6  C   UNK N   1       3.472   3.438  -1.128  0.00  0.00     0.047 C 
HETATM    7  S   UNK N   1       1.336   1.728  -1.422  0.00  0.00    -0.065 SA
HETATM    8  C   UNK N   1       1.702   0.289  -0.408  0.00  0.00     0.144 C 
ENDROOT
BRANCH   8   9
HETATM    9  N   UNK N   1       0.866  -0.853  -0.366  0.00  0.00    -0.362 N 
HETATM   10  H   UNK N   1       1.253  -1.715  -0.089  0.00  0.00     0.162 HD
BRANCH   9  11
HETATM   11  C   UNK N   1      -0.538  -0.799  -0.718  0.00  0.00     0.115 C 
HETATM   12  C   UNK N   1      -1.197   0.314   0.098  0.00  0.00     0.037 C 
BRANCH  11  13
HETATM   13  C   UNK N   1      -1.255  -2.096  -0.388  0.00  0.00     0.003 A 
HETATM   14  C   UNK N   1      -0.596  -3.250   0.110  0.00  0.00     0.124 A 
HETATM   15  F   UNK N   1       0.749  -3.289   0.283  0.00  0.00    -0.205 F 
HETATM   16  C   UNK N   1      -1.335  -4.390   0.437  0.00  0.00     0.043 A 
HETATM   17  C   UNK N   1      -2.721  -4.403   0.281  0.00  0.00     0.003 A 
HETATM   18  C   UNK N   1      -3.378  -3.280  -0.219  0.00  0.00     0.001 A 
HETATM   19  C   UNK N   1      -2.650  -2.139  -0.555  0.00  0.00     0.012 A 
ENDBRANCH  11  13
ENDBRANCH   9  11
ENDBRANCH   8   9
BRANCH   1  20
HETATM   20  C   UNK N   1       1.541   3.669   0.506  0.00  0.00     0.413 C 
HETATM   21  F   UNK N   1       2.299   4.374   1.423  0.00  0.00    -0.169 F 
HETATM   22  F   UNK N   1       0.567   2.956   1.190  0.00  0.00    -0.169 F 
HETATM   23  F   UNK N   1       0.911   4.565  -0.340  0.00  0.00    -0.169 F 
ENDBRANCH   1  20
TORSDOF 4
