MODEL 1
REMARK VINA RESULT:      -7.1      0.000      0.000
REMARK  4 active torsions:
REMARK  status: ('A' for Active; 'I' for Inactive)
REMARK    1  A    between atoms: C_5  and  C_2 
REMARK    2  A    between atoms: C_12  and  N_13 
REMARK    3  A    between atoms: N_13  and  C_14 
REMARK    4  A    between atoms: C_14  and  C_16 
ROOT
HETATM    1  C   UNK N   1      33.629  16.951   7.788  0.00  0.00     0.190 C 
HETATM    2  C   UNK N   1      34.541  17.856   8.563  0.00  0.00     0.251 C 
HETATM    3  O   UNK N   1      34.765  19.012   8.231  0.00  0.00    -0.271 OA
HETATM    4  N   UNK N   1      35.004  17.371   9.719  0.00  0.00    -0.306 N 
ATOM      5  HN  UNK N   1      35.581  17.919  10.358  1.00  0.00     0.171 HD
HETATM    6  C   UNK N   1      34.138  16.806   6.363  0.00  0.00     0.047 C 
HETATM    7  S   UNK N   1      33.733  15.338   8.655  0.00  0.00    -0.065 SA
HETATM    8  C   UNK N   1      34.662  16.166   9.953  0.00  0.00     0.144 C 
ENDROOT
BRANCH   8   9
HETATM    9  N   UNK N   1      34.764  15.655  11.269  0.00  0.00    -0.362 N 
HETATM   10  H   UNK N   1      33.956  15.630  11.833  0.00  0.00     0.162 HD
BRANCH   9  11
HETATM   11  C   UNK N   1      36.013  15.170  11.818  0.00  0.00     0.115 C 
HETATM   12  C   UNK N   1      36.789  14.468  10.702  0.00  0.00     0.037 C 
BRANCH  11  13
HETATM   13  C   UNK N   1      35.790  14.159  12.928  0.00  0.00     0.003 A 
HETATM   14  C   UNK N   1      36.280  14.327  14.250  0.00  0.00     0.124 A 
HETATM   15  F   UNK N   1      37.033  15.398  14.604  0.00  0.00    -0.205 F 
HETATM   16  C   UNK N   1      35.989  13.374  15.229  0.00  0.00     0.043 A 
HETATM   17  C   UNK N   1      35.216  12.255  14.918  0.00  0.00     0.003 A 
HETATM   18  C   UNK N   1      34.740  12.072  13.621  0.00  0.00     0.001 A 
HETATM   19  C   UNK N   1      35.030  13.014  12.634  0.00  0.00     0.012 A 
ENDBRANCH  11  13
ENDBRANCH   9  11
ENDBRANCH   8   9
BRANCH   1  20
HETATM   20  C   UNK N   1      32.172  17.442   7.840  0.00  0.00     0.413 C 
HETATM   21  F   UNK N   1      31.351  16.496   8.426  0.00  0.00    -0.169 F 
HETATM   22  F   UNK N   1      31.713  17.695   6.556  0.00  0.00    -0.169 F 
HETATM   23  F   UNK N   1      32.097  18.616   8.569  0.00  0.00    -0.169 F 
ENDBRANCH   1  20
TORSDOF 4
ENDMDL
MODEL 2
REMARK VINA RESULT:      -6.9      2.514      3.470
REMARK  4 active torsions:
REMARK  status: ('A' for Active; 'I' for Inactive)
REMARK    1  A    between atoms: C_5  and  C_2 
REMARK    2  A    between atoms: C_12  and  N_13 
REMARK    3  A    between atoms: N_13  and  C_14 
REMARK    4  A    between atoms: C_14  and  C_16 
ROOT
HETATM    1  C   UNK N   1      35.251  14.892   9.774  0.00  0.00     0.190 C 
HETATM    2  C   UNK N   1      35.857  15.954  10.643  0.00  0.00     0.251 C 
HETATM    3  O   UNK N   1      35.687  17.150  10.443  0.00  0.00    -0.271 OA
HETATM    4  N   UNK N   1      36.498  15.525  11.734  0.00  0.00    -0.306 N 
ATOM      5  HN  UNK N   1      36.896  16.157  12.428  1.00  0.00     0.171 HD
HETATM    6  C   UNK N   1      35.721  15.071   8.339  0.00  0.00     0.047 C 
HETATM    7  S   UNK N   1      35.900  13.315  10.451  0.00  0.00    -0.065 SA
HETATM    8  C   UNK N   1      36.568  14.256  11.830  0.00  0.00     0.144 C 
ENDROOT
BRANCH   8   9
HETATM    9  N   UNK N   1      36.882  13.668  13.079  0.00  0.00    -0.362 N 
HETATM   10  H   UNK N   1      37.652  13.056  13.136  0.00  0.00     0.162 HD
BRANCH   9  11
HETATM   11  C   UNK N   1      36.110  13.932  14.276  0.00  0.00     0.115 C 
HETATM   12  C   UNK N   1      37.044  14.529  15.330  0.00  0.00     0.037 C 
BRANCH  11  13
HETATM   13  C   UNK N   1      35.514  12.663  14.858  0.00  0.00     0.003 A 
HETATM   14  C   UNK N   1      34.622  11.819  14.145  0.00  0.00     0.124 A 
HETATM   15  F   UNK N   1      34.198  12.119  12.892  0.00  0.00    -0.205 F 
HETATM   16  C   UNK N   1      34.156  10.641  14.734  0.00  0.00     0.043 A 
HETATM   17  C   UNK N   1      34.563  10.283  16.019  0.00  0.00     0.003 A 
HETATM   18  C   UNK N   1      35.428  11.110  16.733  0.00  0.00     0.001 A 
HETATM   19  C   UNK N   1      35.895  12.292  16.159  0.00  0.00     0.012 A 
ENDBRANCH  11  13
ENDBRANCH   9  11
ENDBRANCH   8   9
BRANCH   1  20
HETATM   20  C   UNK N   1      33.717  14.880   9.889  0.00  0.00     0.413 C 
HETATM   21  F   UNK N   1      33.317  15.028  11.204  0.00  0.00    -0.169 F 
HETATM   22  F   UNK N   1      33.216  13.680   9.405  0.00  0.00    -0.169 F 
HETATM   23  F   UNK N   1      33.180  15.910   9.137  0.00  0.00    -0.169 F 
ENDBRANCH   1  20
TORSDOF 4
ENDMDL
MODEL 3
REMARK VINA RESULT:      -6.8     17.865     21.075
REMARK  4 active torsions:
REMARK  status: ('A' for Active; 'I' for Inactive)
REMARK    1  A    between atoms: C_5  and  C_2 
REMARK    2  A    between atoms: C_12  and  N_13 
REMARK    3  A    between atoms: N_13  and  C_14 
REMARK    4  A    between atoms: C_14  and  C_16 
ROOT
HETATM    1  C   UNK N   1      28.518  24.167  -4.395  0.00  0.00     0.190 C 
HETATM    2  C   UNK N   1      27.131  24.110  -3.827  0.00  0.00     0.251 C 
HETATM    3  O   UNK N   1      26.905  24.152  -2.625  0.00  0.00    -0.271 OA
HETATM    4  N   UNK N   1      26.132  24.138  -4.715  0.00  0.00    -0.306 N 
ATOM      5  HN  UNK N   1      25.149  24.167  -4.444  1.00  0.00     0.171 HD
HETATM    6  C   UNK N   1      29.344  23.013  -3.851  0.00  0.00     0.047 C 
HETATM    7  S   UNK N   1      28.286  23.970  -6.204  0.00  0.00    -0.065 SA
HETATM    8  C   UNK N   1      26.516  24.128  -5.930  0.00  0.00     0.144 C 
ENDROOT
BRANCH   8   9
HETATM    9  N   UNK N   1      25.614  24.518  -6.950  0.00  0.00    -0.362 N 
HETATM   10  H   UNK N   1      24.866  23.918  -7.177  0.00  0.00     0.162 HD
BRANCH   9  11
HETATM   11  C   UNK N   1      25.752  25.766  -7.671  0.00  0.00     0.115 C 
HETATM   12  C   UNK N   1      26.887  25.614  -8.685  0.00  0.00     0.037 C 
BRANCH  11  13
HETATM   13  C   UNK N   1      26.112  26.917  -6.748  0.00  0.00     0.003 A 
HETATM   14  C   UNK N   1      25.309  27.320  -5.650  0.00  0.00     0.124 A 
HETATM   15  F   UNK N   1      24.121  26.725  -5.373  0.00  0.00    -0.205 F 
HETATM   16  C   UNK N   1      25.735  28.358  -4.817  0.00  0.00     0.043 A 
HETATM   17  C   UNK N   1      26.949  29.002  -5.054  0.00  0.00     0.003 A 
HETATM   18  C   UNK N   1      27.740  28.623  -6.137  0.00  0.00     0.001 A 
HETATM   19  C   UNK N   1      27.322  27.593  -6.979  0.00  0.00     0.012 A 
ENDBRANCH  11  13
ENDBRANCH   9  11
ENDBRANCH   8   9
BRANCH   1  20
HETATM   20  C   UNK N   1      29.177  25.532  -4.132  0.00  0.00     0.413 C 
HETATM   21  F   UNK N   1      30.180  25.424  -3.186  0.00  0.00    -0.169 F 
HETATM   22  F   UNK N   1      28.229  26.434  -3.672  0.00  0.00    -0.169 F 
HETATM   23  F   UNK N   1      29.717  26.028  -5.306  0.00  0.00    -0.169 F 
ENDBRANCH   1  20
TORSDOF 4
ENDMDL
MODEL 4
REMARK VINA RESULT:      -6.8      3.013      7.202
REMARK  4 active torsions:
REMARK  status: ('A' for Active; 'I' for Inactive)
REMARK    1  A    between atoms: C_5  and  C_2 
REMARK    2  A    between atoms: C_12  and  N_13 
REMARK    3  A    between atoms: N_13  and  C_14 
REMARK    4  A    between atoms: C_14  and  C_16 
ROOT
HETATM    1  C   UNK N   1      35.438  13.841  10.111  0.00  0.00     0.190 C 
HETATM    2  C   UNK N   1      34.514  14.294  11.202  0.00  0.00     0.251 C 
HETATM    3  O   UNK N   1      34.662  13.969  12.372  0.00  0.00    -0.271 OA
HETATM    4  N   UNK N   1      33.582  15.185  10.849  0.00  0.00    -0.306 N 
ATOM      5  HN  UNK N   1      32.940  15.610  11.517  1.00  0.00     0.171 HD
HETATM    6  C   UNK N   1      35.450  12.321  10.046  0.00  0.00     0.047 C 
HETATM    7  S   UNK N   1      34.709  14.524   8.573  0.00  0.00    -0.065 SA
HETATM    8  C   UNK N   1      33.568  15.457   9.603  0.00  0.00     0.144 C 
ENDROOT
BRANCH   8   9
HETATM    9  N   UNK N   1      32.903  16.623   9.152  0.00  0.00    -0.362 N 
HETATM   10  H   UNK N   1      32.924  17.430   9.716  0.00  0.00     0.162 HD
BRANCH   9  11
HETATM   11  C   UNK N   1      32.192  16.671   7.891  0.00  0.00     0.115 C 
HETATM   12  C   UNK N   1      32.993  17.539   6.919  0.00  0.00     0.037 C 
BRANCH  11  13
HETATM   13  C   UNK N   1      30.817  17.296   8.039  0.00  0.00     0.003 A 
HETATM   14  C   UNK N   1      29.758  17.087   7.118  0.00  0.00     0.124 A 
HETATM   15  F   UNK N   1      29.920  16.340   5.997  0.00  0.00    -0.205 F 
HETATM   16  C   UNK N   1      28.505  17.659   7.352  0.00  0.00     0.043 A 
HETATM   17  C   UNK N   1      28.283  18.435   8.490  0.00  0.00     0.003 A 
HETATM   18  C   UNK N   1      29.319  18.657   9.396  0.00  0.00     0.001 A 
HETATM   19  C   UNK N   1      30.576  18.097   9.169  0.00  0.00     0.012 A 
ENDBRANCH  11  13
ENDBRANCH   9  11
ENDBRANCH   8   9
BRANCH   1  20
HETATM   20  C   UNK N   1      36.848  14.428  10.288  0.00  0.00     0.413 C 
HETATM   21  F   UNK N   1      37.570  13.712  11.225  0.00  0.00    -0.169 F 
HETATM   22  F   UNK N   1      36.761  15.748  10.708  0.00  0.00    -0.169 F 
HETATM   23  F   UNK N   1      37.525  14.400   9.081  0.00  0.00    -0.169 F 
ENDBRANCH   1  20
TORSDOF 4
ENDMDL
MODEL 5
REMARK VINA RESULT:      -6.8     16.662     19.088
REMARK  4 active torsions:
REMARK  status: ('A' for Active; 'I' for Inactive)
REMARK    1  A    between atoms: C_5  and  C_2 
REMARK    2  A    between atoms: C_12  and  N_13 
REMARK    3  A    between atoms: N_13  and  C_14 
REMARK    4  A    between atoms: C_14  and  C_16 
ROOT
HETATM    1  C   UNK N   1      26.424  27.121  -5.200  0.00  0.00     0.190 C 
HETATM    2  C   UNK N   1      26.242  26.981  -3.717  0.00  0.00     0.251 C 
HETATM    3  O   UNK N   1      25.475  27.686  -3.075  0.00  0.00    -0.271 OA
HETATM    4  N   UNK N   1      26.874  25.953  -3.143  0.00  0.00    -0.306 N 
ATOM      5  HN  UNK N   1      26.774  25.722  -2.155  1.00  0.00     0.171 HD
HETATM    6  C   UNK N   1      26.893  28.530  -5.529  0.00  0.00     0.047 C 
HETATM    7  S   UNK N   1      27.737  25.912  -5.621  0.00  0.00    -0.065 SA
HETATM    8  C   UNK N   1      27.610  25.285  -3.941  0.00  0.00     0.144 C 
ENDROOT
BRANCH   8   9
HETATM    9  N   UNK N   1      28.037  23.986  -3.572  0.00  0.00    -0.362 N 
HETATM   10  H   UNK N   1      27.375  23.257  -3.548  0.00  0.00     0.162 HD
BRANCH   9  11
HETATM   11  C   UNK N   1      29.413  23.691  -3.228  0.00  0.00     0.115 C 
HETATM   12  C   UNK N   1      30.256  24.936  -3.505  0.00  0.00     0.037 C 
BRANCH  11  13
HETATM   13  C   UNK N   1      29.976  22.558  -4.068  0.00  0.00     0.003 A 
HETATM   14  C   UNK N   1      30.986  21.672  -3.610  0.00  0.00     0.124 A 
HETATM   15  F   UNK N   1      31.560  21.808  -2.389  0.00  0.00    -0.205 F 
HETATM   16  C   UNK N   1      31.417  20.623  -4.427  0.00  0.00     0.043 A 
HETATM   17  C   UNK N   1      30.859  20.436  -5.691  0.00  0.00     0.003 A 
HETATM   18  C   UNK N   1      29.875  21.307  -6.156  0.00  0.00     0.001 A 
HETATM   19  C   UNK N   1      29.442  22.361  -5.353  0.00  0.00     0.012 A 
ENDBRANCH  11  13
ENDBRANCH   9  11
ENDBRANCH   8   9
BRANCH   1  20
HETATM   20  C   UNK N   1      25.143  26.740  -5.961  0.00  0.00     0.413 C 
HETATM   21  F   UNK N   1      25.370  26.702  -7.325  0.00  0.00    -0.169 F 
HETATM   22  F   UNK N   1      24.145  27.668  -5.703  0.00  0.00    -0.169 F 
HETATM   23  F   UNK N   1      24.700  25.496  -5.545  0.00  0.00    -0.169 F 
ENDBRANCH   1  20
TORSDOF 4
ENDMDL
MODEL 6
REMARK VINA RESULT:      -6.7      2.886      6.896
REMARK  4 active torsions:
REMARK  status: ('A' for Active; 'I' for Inactive)
REMARK    1  A    between atoms: C_5  and  C_2 
REMARK    2  A    between atoms: C_12  and  N_13 
REMARK    3  A    between atoms: N_13  and  C_14 
REMARK    4  A    between atoms: C_14  and  C_16 
ROOT
HETATM    1  C   UNK N   1      35.532  14.369   9.886  0.00  0.00     0.190 C 
HETATM    2  C   UNK N   1      35.416  15.822  10.242  0.00  0.00     0.251 C 
HETATM    3  O   UNK N   1      36.379  16.503  10.569  0.00  0.00    -0.271 OA
HETATM    4  N   UNK N   1      34.213  16.375  10.060  0.00  0.00    -0.306 N 
ATOM      5  HN  UNK N   1      34.031  17.368  10.209  1.00  0.00     0.171 HD
HETATM    6  C   UNK N   1      36.115  13.598  11.059  0.00  0.00     0.047 C 
HETATM    7  S   UNK N   1      33.807  13.828   9.579  0.00  0.00    -0.065 SA
HETATM    8  C   UNK N   1      33.314  15.554   9.683  0.00  0.00     0.144 C 
ENDROOT
BRANCH   8   9
HETATM    9  N   UNK N   1      32.117  16.046   9.110  0.00  0.00    -0.362 N 
HETATM   10  H   UNK N   1      31.325  15.461   9.086  0.00  0.00     0.162 HD
BRANCH   9  11
HETATM   11  C   UNK N   1      32.014  17.380   8.555  0.00  0.00     0.115 C 
HETATM   12  C   UNK N   1      30.630  17.937   8.890  0.00  0.00     0.037 C 
BRANCH  11  13
HETATM   13  C   UNK N   1      32.154  17.377   7.043  0.00  0.00     0.003 A 
HETATM   14  C   UNK N   1      33.399  17.500   6.372  0.00  0.00     0.124 A 
HETATM   15  F   UNK N   1      34.562  17.678   7.046  0.00  0.00    -0.205 F 
HETATM   16  C   UNK N   1      33.449  17.438   4.977  0.00  0.00     0.043 A 
HETATM   17  C   UNK N   1      32.282  17.252   4.235  0.00  0.00     0.003 A 
HETATM   18  C   UNK N   1      31.053  17.144   4.882  0.00  0.00     0.001 A 
HETATM   19  C   UNK N   1      30.990  17.211   6.274  0.00  0.00     0.012 A 
ENDBRANCH  11  13
ENDBRANCH   9  11
ENDBRANCH   8   9
BRANCH   1  20
HETATM   20  C   UNK N   1      36.345  14.170   8.595  0.00  0.00     0.413 C 
HETATM   21  F   UNK N   1      37.696  14.352   8.827  0.00  0.00    -0.169 F 
HETATM   22  F   UNK N   1      35.933  15.080   7.632  0.00  0.00    -0.169 F 
HETATM   23  F   UNK N   1      36.141  12.893   8.103  0.00  0.00    -0.169 F 
ENDBRANCH   1  20
TORSDOF 4
ENDMDL
MODEL 7
REMARK VINA RESULT:      -6.6     16.490     19.366
REMARK  4 active torsions:
REMARK  status: ('A' for Active; 'I' for Inactive)
REMARK    1  A    between atoms: C_5  and  C_2 
REMARK    2  A    between atoms: C_12  and  N_13 
REMARK    3  A    between atoms: N_13  and  C_14 
REMARK    4  A    between atoms: C_14  and  C_16 
ROOT
HETATM    1  C   UNK N   1      31.136  22.720  -4.552  0.00  0.00     0.190 C 
HETATM    2  C   UNK N   1      30.492  21.642  -5.373  0.00  0.00     0.251 C 
HETATM    3  O   UNK N   1      30.822  20.466  -5.299  0.00  0.00    -0.271 OA
HETATM    4  N   UNK N   1      29.440  22.015  -6.109  0.00  0.00    -0.306 N 
ATOM      5  HN  UNK N   1      28.887  21.358  -6.658  1.00  0.00     0.171 HD
HETATM    6  C   UNK N   1      32.628  22.763  -4.840  0.00  0.00     0.047 C 
HETATM    7  S   UNK N   1      30.345  24.273  -5.123  0.00  0.00    -0.065 SA
HETATM    8  C   UNK N   1      29.190  23.264  -6.062  0.00  0.00     0.144 C 
ENDROOT
BRANCH   8   9
HETATM    9  N   UNK N   1      27.922  23.737  -6.480  0.00  0.00    -0.362 N 
HETATM   10  H   UNK N   1      27.837  24.141  -7.374  0.00  0.00     0.162 HD
BRANCH   9  11
HETATM   11  C   UNK N   1      26.747  23.649  -5.639  0.00  0.00     0.115 C 
HETATM   12  C   UNK N   1      25.625  22.991  -6.445  0.00  0.00     0.037 C 
BRANCH  11  13
HETATM   13  C   UNK N   1      26.257  25.019  -5.205  0.00  0.00     0.003 A 
HETATM   14  C   UNK N   1      26.587  25.610  -3.958  0.00  0.00     0.124 A 
HETATM   15  F   UNK N   1      27.337  24.960  -3.033  0.00  0.00    -0.205 F 
HETATM   16  C   UNK N   1      26.137  26.898  -3.654  0.00  0.00     0.043 A 
HETATM   17  C   UNK N   1      25.366  27.612  -4.570  0.00  0.00     0.003 A 
HETATM   18  C   UNK N   1      25.025  27.038  -5.793  0.00  0.00     0.001 A 
HETATM   19  C   UNK N   1      25.462  25.751  -6.105  0.00  0.00     0.012 A 
ENDBRANCH  11  13
ENDBRANCH   9  11
ENDBRANCH   8   9
BRANCH   1  20
HETATM   20  C   UNK N   1      30.836  22.539  -3.054  0.00  0.00     0.413 C 
HETATM   21  F   UNK N   1      29.596  21.957  -2.863  0.00  0.00    -0.169 F 
HETATM   22  F   UNK N   1      30.850  23.772  -2.417  0.00  0.00    -0.169 F 
HETATM   23  F   UNK N   1      31.804  21.738  -2.473  0.00  0.00    -0.169 F 
ENDBRANCH   1  20
TORSDOF 4
ENDMDL
MODEL 8
REMARK VINA RESULT:      -6.5     16.302     19.569
REMARK  4 active torsions:
REMARK  status: ('A' for Active; 'I' for Inactive)
REMARK    1  A    between atoms: C_5  and  C_2 
REMARK    2  A    between atoms: C_12  and  N_13 
REMARK    3  A    between atoms: N_13  and  C_14 
REMARK    4  A    between atoms: C_14  and  C_16 
ROOT
HETATM    1  C   UNK N   1      30.653  22.310  -4.002  0.00  0.00     0.190 C 
HETATM    2  C   UNK N   1      30.049  23.130  -2.900  0.00  0.00     0.251 C 
HETATM    3  O   UNK N   1      30.472  23.111  -1.752  0.00  0.00    -0.271 OA
HETATM    4  N   UNK N   1      29.094  23.991  -3.266  0.00  0.00    -0.306 N 
ATOM      5  HN  UNK N   1      28.656  24.643  -2.616  1.00  0.00     0.171 HD
HETATM    6  C   UNK N   1      30.589  20.835  -3.637  0.00  0.00     0.047 C 
HETATM    7  S   UNK N   1      29.590  22.639  -5.460  0.00  0.00    -0.065 SA
HETATM    8  C   UNK N   1      28.780  23.925  -4.500  0.00  0.00     0.144 C 
ENDROOT
BRANCH   8   9
HETATM    9  N   UNK N   1      28.070  24.996  -5.096  0.00  0.00    -0.362 N 
HETATM   10  H   UNK N   1      28.392  25.360  -5.952  0.00  0.00     0.162 HD
BRANCH   9  11
HETATM   11  C   UNK N   1      26.889  25.574  -4.490  0.00  0.00     0.115 C 
HETATM   12  C   UNK N   1      25.660  25.061  -5.243  0.00  0.00     0.037 C 
BRANCH  11  13
HETATM   13  C   UNK N   1      26.887  27.090  -4.587  0.00  0.00     0.003 A 
HETATM   14  C   UNK N   1      26.244  27.934  -3.645  0.00  0.00     0.124 A 
HETATM   15  F   UNK N   1      25.535  27.434  -2.602  0.00  0.00    -0.205 F 
HETATM   16  C   UNK N   1      26.330  29.322  -3.778  0.00  0.00     0.043 A 
HETATM   17  C   UNK N   1      27.049  29.888  -4.830  0.00  0.00     0.003 A 
HETATM   18  C   UNK N   1      27.674  29.070  -5.769  0.00  0.00     0.001 A 
HETATM   19  C   UNK N   1      27.589  27.683  -5.651  0.00  0.00     0.012 A 
ENDBRANCH  11  13
ENDBRANCH   9  11
ENDBRANCH   8   9
BRANCH   1  20
HETATM   20  C   UNK N   1      32.084  22.769  -4.325  0.00  0.00     0.413 C 
HETATM   21  F   UNK N   1      32.405  22.502  -5.643  0.00  0.00    -0.169 F 
HETATM   22  F   UNK N   1      32.989  22.111  -3.505  0.00  0.00    -0.169 F 
HETATM   23  F   UNK N   1      32.205  24.130  -4.101  0.00  0.00    -0.169 F 
ENDBRANCH   1  20
TORSDOF 4
ENDMDL
MODEL 9
REMARK VINA RESULT:      -6.4      3.165      7.358
REMARK  4 active torsions:
REMARK  status: ('A' for Active; 'I' for Inactive)
REMARK    1  A    between atoms: C_5  and  C_2 
REMARK    2  A    between atoms: C_12  and  N_13 
REMARK    3  A    between atoms: N_13  and  C_14 
REMARK    4  A    between atoms: C_14  and  C_16 
ROOT
HETATM    1  C   UNK N   1      34.774  15.249  10.047  0.00  0.00     0.190 C 
HETATM    2  C   UNK N   1      34.939  16.739   9.988  0.00  0.00     0.251 C 
HETATM    3  O   UNK N   1      35.916  17.316  10.446  0.00  0.00    -0.271 OA
HETATM    4  N   UNK N   1      34.013  17.404   9.290  0.00  0.00    -0.306 N 
ATOM      5  HN  UNK N   1      34.057  18.410   9.129  1.00  0.00     0.171 HD
HETATM    6  C   UNK N   1      34.798  14.786  11.495  0.00  0.00     0.047 C 
HETATM    7  S   UNK N   1      33.119  14.937   9.319  0.00  0.00    -0.065 SA
HETATM    8  C   UNK N   1      33.073  16.670   8.841  0.00  0.00     0.144 C 
ENDROOT
BRANCH   8   9
HETATM    9  N   UNK N   1      32.244  17.157   7.801  0.00  0.00    -0.362 N 
HETATM   10  H   UNK N   1      32.483  18.005   7.362  0.00  0.00     0.162 HD
BRANCH   9  11
HETATM   11  C   UNK N   1      31.057  16.453   7.363  0.00  0.00     0.115 C 
HETATM   12  C   UNK N   1      31.360  15.785   6.021  0.00  0.00     0.037 C 
BRANCH  11  13
HETATM   13  C   UNK N   1      29.885  17.396   7.151  0.00  0.00     0.003 A 
HETATM   14  C   UNK N   1      29.275  18.134   8.199  0.00  0.00     0.124 A 
HETATM   15  F   UNK N   1      29.673  18.009   9.490  0.00  0.00    -0.205 F 
HETATM   16  C   UNK N   1      28.233  19.019   7.915  0.00  0.00     0.043 A 
HETATM   17  C   UNK N   1      27.786  19.188   6.604  0.00  0.00     0.003 A 
HETATM   18  C   UNK N   1      28.369  18.460   5.568  0.00  0.00     0.001 A 
HETATM   19  C   UNK N   1      29.406  17.568   5.841  0.00  0.00     0.012 A 
ENDBRANCH  11  13
ENDBRANCH   9  11
ENDBRANCH   8   9
BRANCH   1  20
HETATM   20  C   UNK N   1      35.830  14.533   9.188  0.00  0.00     0.413 C 
HETATM   21  F   UNK N   1      35.846  15.037   7.900  0.00  0.00    -0.169 F 
HETATM   22  F   UNK N   1      35.550  13.175   9.129  0.00  0.00    -0.169 F 
HETATM   23  F   UNK N   1      37.084  14.694   9.750  0.00  0.00    -0.169 F 
ENDBRANCH   1  20
TORSDOF 4
ENDMDL
