REMARK  0 active torsions:
REMARK  status: ('A' for Active; 'I' for Inactive)
ROOT
HETATM    1  C   UNK N   1       2.243  -2.001   0.031  0.00  0.00     0.041 A 
HETATM    2  C   UNK N   1       0.911  -1.595   0.227  0.00  0.00     0.095 A 
HETATM    3  C   UNK N   1       0.616  -0.202   0.314  0.00  0.00     0.071 A 
HETATM    4  C   UNK N   1       1.666   0.721   0.249  0.00  0.00     0.056 A 
HETATM    5  C   UNK N   1       2.982   0.297   0.061  0.00  0.00     0.036 A 
HETATM    6  C   UNK N   1       3.269  -1.061  -0.059  0.00  0.00     0.026 A 
HETATM    7 Cl   UNK N   1       4.275   1.472  -0.029  0.00  0.00    -0.084 Cl
HETATM    8  O   UNK N   1      -0.072  -2.523   0.359  0.00  0.00    -0.349 OA
HETATM    9  C   UNK N   1       0.135  -3.883   0.266  0.00  0.00     0.175 C 
HETATM   10  N   UNK N   1      -0.706   0.307   0.507  0.00  0.00    -0.306 N 
HETATM   11  C   UNK N   1      -1.837  -0.251   0.004  0.00  0.00     0.326 C 
HETATM   12  N   UNK N   1      -3.051   0.229   0.380  0.00  0.00    -0.293 N 
HETATM   13  O   UNK N   1      -1.767  -1.162  -0.810  0.00  0.00    -0.247 OA
HETATM   14  C   UNK N   1      -4.253  -0.473   0.094  0.00  0.00     0.126 A 
HETATM   15  N   UNK N   1      -4.215  -1.811  -0.139  0.00  0.00    -0.321 N 
ATOM     16  HN  UNK N   1      -3.310  -2.281  -0.168  1.00  0.00     0.169 HD
HETATM   17  C   UNK N   1      -5.340  -2.540  -0.333  0.00  0.00     0.159 A 
HETATM   18  C   UNK N   1      -6.577  -1.892  -0.310  0.00  0.00     0.144 A 
HETATM   19  N   UNK N   1      -6.625  -0.549  -0.082  0.00  0.00    -0.368 N 
ATOM     20  HN  UNK N   1      -7.528  -0.075  -0.076  1.00  0.00     0.164 HD
HETATM   21  C   UNK N   1      -5.490   0.171   0.140  0.00  0.00     0.136 A 
HETATM   22  O   UNK N   1      -5.269  -3.881  -0.518  0.00  0.00    -0.335 OA
HETATM   23  C   UNK N   1      -4.073  -4.574  -0.626  0.00  0.00     0.177 C 
HETATM   24  C   UNK N   1      -3.217  -4.452   0.632  0.00  0.00     0.027 C 
HETATM   25  C   UNK N   1      -0.791  -4.620   1.220  0.00  0.00     0.027 C 
HETATM   26  C   UNK N   1      -1.938  -5.250   0.449  0.00  0.00     0.004 C 
HETATM   27  H   UNK N   1      -0.804   1.125   1.046  0.00  0.00     0.171 HD
HETATM   28  H   UNK N   1      -3.099   1.085   0.864  0.00  0.00     0.172 HD
ENDROOT
TORSDOF 0
