MODEL 1
REMARK VINA RESULT:      -7.6      0.000      0.000
REMARK  0 active torsions:
REMARK  status: ('A' for Active; 'I' for Inactive)
ROOT
HETATM    1  C   UNK N   1      25.520  14.882   7.158  0.00  0.00     0.041 A 
HETATM    2  C   UNK N   1      24.566  15.419   6.275  0.00  0.00     0.095 A 
HETATM    3  C   UNK N   1      23.253  14.863   6.250  0.00  0.00     0.071 A 
HETATM    4  C   UNK N   1      22.962  13.768   7.072  0.00  0.00     0.056 A 
HETATM    5  C   UNK N   1      23.924  13.246   7.937  0.00  0.00     0.036 A 
HETATM    6  C   UNK N   1      25.198  13.809   7.988  0.00  0.00     0.026 A 
HETATM    7 Cl   UNK N   1      23.531  11.885   8.963  0.00  0.00    -0.084 Cl
HETATM    8  O   UNK N   1      24.907  16.434   5.439  0.00  0.00    -0.349 OA
HETATM    9  C   UNK N   1      26.149  17.033   5.421  0.00  0.00     0.175 C 
HETATM   10  N   UNK N   1      22.216  15.344   5.391  0.00  0.00    -0.306 N 
HETATM   11  C   UNK N   1      22.045  16.640   5.026  0.00  0.00     0.326 C 
HETATM   12  N   UNK N   1      21.121  16.960   4.083  0.00  0.00    -0.293 N 
HETATM   13  O   UNK N   1      22.697  17.525   5.565  0.00  0.00    -0.247 OA
HETATM   14  C   UNK N   1      21.082  18.247   3.481  0.00  0.00     0.126 A 
HETATM   15  N   UNK N   1      22.195  19.025   3.477  0.00  0.00    -0.321 N 
ATOM     16  HN  UNK N   1      23.029  18.696   3.964  1.00  0.00     0.169 HD
HETATM   17  C   UNK N   1      22.234  20.222   2.845  0.00  0.00     0.159 A 
HETATM   18  C   UNK N   1      21.086  20.679   2.192  0.00  0.00     0.144 A 
HETATM   19  N   UNK N   1      19.963  19.907   2.196  0.00  0.00    -0.368 N 
ATOM     20  HN  UNK N   1      19.122  20.246   1.728  1.00  0.00     0.164 HD
HETATM   21  C   UNK N   1      19.942  18.692   2.810  0.00  0.00     0.136 A 
HETATM   22  O   UNK N   1      23.375  20.953   2.821  0.00  0.00    -0.335 OA
HETATM   23  C   UNK N   1      24.524  20.595   3.509  0.00  0.00     0.177 C 
HETATM   24  C   UNK N   1      25.081  19.251   3.047  0.00  0.00     0.027 C 
HETATM   25  C   UNK N   1      26.515  17.436   4.002  0.00  0.00     0.027 C 
HETATM   26  C   UNK N   1      26.346  18.936   3.827  0.00  0.00     0.004 C 
HETATM   27  H   UNK N   1      21.576  14.684   5.037  0.00  0.00     0.171 HD
HETATM   28  H   UNK N   1      20.463  16.281   3.808  0.00  0.00     0.172 HD
ENDROOT
TORSDOF 0
ENDMDL
MODEL 2
REMARK VINA RESULT:      -7.4      2.931      3.984
REMARK  0 active torsions:
REMARK  status: ('A' for Active; 'I' for Inactive)
ROOT
HETATM    1  C   UNK N   1      24.829  12.668   9.715  0.00  0.00     0.041 A 
HETATM    2  C   UNK N   1      23.774  13.054   8.868  0.00  0.00     0.095 A 
HETATM    3  C   UNK N   1      22.439  13.036   9.369  0.00  0.00     0.071 A 
HETATM    4  C   UNK N   1      22.209  12.590  10.676  0.00  0.00     0.056 A 
HETATM    5  C   UNK N   1      23.269  12.205  11.498  0.00  0.00     0.036 A 
HETATM    6  C   UNK N   1      24.577  12.254  11.023  0.00  0.00     0.026 A 
HETATM    7 Cl   UNK N   1      22.956  11.663  13.132  0.00  0.00    -0.084 Cl
HETATM    8  O   UNK N   1      24.029  13.411   7.582  0.00  0.00    -0.349 OA
HETATM    9  C   UNK N   1      25.293  13.471   7.035  0.00  0.00     0.175 C 
HETATM   10  N   UNK N   1      21.304  13.415   8.587  0.00  0.00    -0.306 N 
HETATM   11  C   UNK N   1      21.301  14.388   7.640  0.00  0.00     0.326 C 
HETATM   12  N   UNK N   1      20.208  14.557   6.850  0.00  0.00    -0.293 N 
HETATM   13  O   UNK N   1      22.263  15.134   7.517  0.00  0.00    -0.247 OA
HETATM   14  C   UNK N   1      20.246  15.374   5.688  0.00  0.00     0.126 A 
HETATM   15  N   UNK N   1      21.434  15.633   5.082  0.00  0.00    -0.321 N 
ATOM     16  HN  UNK N   1      22.292  15.287   5.512  1.00  0.00     0.169 HD
HETATM   17  C   UNK N   1      21.515  16.334   3.926  0.00  0.00     0.159 A 
HETATM   18  C   UNK N   1      20.341  16.822   3.349  0.00  0.00     0.144 A 
HETATM   19  N   UNK N   1      19.144  16.572   3.952  0.00  0.00    -0.368 N 
ATOM     20  HN  UNK N   1      18.288  16.938   3.535  1.00  0.00     0.164 HD
HETATM   21  C   UNK N   1      19.070  15.841   5.099  0.00  0.00     0.136 A 
HETATM   22  O   UNK N   1      22.713  16.536   3.325  0.00  0.00    -0.335 OA
HETATM   23  C   UNK N   1      23.921  16.145   3.881  0.00  0.00     0.177 C 
HETATM   24  C   UNK N   1      24.001  14.635   4.091  0.00  0.00     0.027 C 
HETATM   25  C   UNK N   1      25.252  13.055   5.574  0.00  0.00     0.027 C 
HETATM   26  C   UNK N   1      25.354  14.280   4.681  0.00  0.00     0.004 C 
HETATM   27  H   UNK N   1      20.461  12.933   8.746  0.00  0.00     0.171 HD
HETATM   28  H   UNK N   1      19.369  14.101   7.089  0.00  0.00     0.172 HD
ENDROOT
TORSDOF 0
ENDMDL
MODEL 3
REMARK VINA RESULT:      -7.4      9.525     12.371
REMARK  0 active torsions:
REMARK  status: ('A' for Active; 'I' for Inactive)
ROOT
HETATM    1  C   UNK N   1      30.101  16.960   5.986  0.00  0.00     0.041 A 
HETATM    2  C   UNK N   1      31.258  16.882   6.781  0.00  0.00     0.095 A 
HETATM    3  C   UNK N   1      31.260  17.500   8.067  0.00  0.00     0.071 A 
HETATM    4  C   UNK N   1      30.127  18.207   8.483  0.00  0.00     0.056 A 
HETATM    5  C   UNK N   1      28.990  18.279   7.676  0.00  0.00     0.036 A 
HETATM    6  C   UNK N   1      28.973  17.647   6.434  0.00  0.00     0.026 A 
HETATM    7 Cl   UNK N   1      27.582  19.160   8.225  0.00  0.00    -0.084 Cl
HETATM    8  O   UNK N   1      32.365  16.249   6.313  0.00  0.00    -0.349 OA
HETATM    9  C   UNK N   1      32.430  15.613   5.091  0.00  0.00     0.175 C 
HETATM   10  N   UNK N   1      32.386  17.469   8.947  0.00  0.00    -0.306 N 
HETATM   11  C   UNK N   1      33.255  16.433   9.065  0.00  0.00     0.326 C 
HETATM   12  N   UNK N   1      34.376  16.576   9.819  0.00  0.00    -0.293 N 
HETATM   13  O   UNK N   1      33.018  15.363   8.522  0.00  0.00    -0.247 OA
HETATM   14  C   UNK N   1      35.436  15.630   9.768  0.00  0.00     0.126 A 
HETATM   15  N   UNK N   1      35.579  14.834   8.676  0.00  0.00    -0.321 N 
ATOM     16  HN  UNK N   1      34.881  14.885   7.934  1.00  0.00     0.169 HD
HETATM   17  C   UNK N   1      36.620  13.977   8.542  0.00  0.00     0.159 A 
HETATM   18  C   UNK N   1      37.565  13.897   9.567  0.00  0.00     0.144 A 
HETATM   19  N   UNK N   1      37.428  14.688  10.668  0.00  0.00    -0.368 N 
ATOM     20  HN  UNK N   1      38.113  14.622  11.420  1.00  0.00     0.164 HD
HETATM   21  C   UNK N   1      36.393  15.568  10.782  0.00  0.00     0.136 A 
HETATM   22  O   UNK N   1      36.757  13.230   7.419  0.00  0.00    -0.335 OA
HETATM   23  C   UNK N   1      35.817  13.206   6.400  0.00  0.00     0.177 C 
HETATM   24  C   UNK N   1      35.620  14.578   5.761  0.00  0.00     0.027 C 
HETATM   25  C   UNK N   1      33.819  15.766   4.494  0.00  0.00     0.027 C 
HETATM   26  C   UNK N   1      34.597  14.470   4.644  0.00  0.00     0.004 C 
HETATM   27  H   UNK N   1      32.542  18.260   9.512  0.00  0.00     0.171 HD
HETATM   28  H   UNK N   1      34.457  17.355  10.416  0.00  0.00     0.172 HD
ENDROOT
TORSDOF 0
ENDMDL
MODEL 4
REMARK VINA RESULT:      -7.2     12.786     13.661
REMARK  0 active torsions:
REMARK  status: ('A' for Active; 'I' for Inactive)
ROOT
HETATM    1  C   UNK N   1      30.819  20.654  -6.376  0.00  0.00     0.041 A 
HETATM    2  C   UNK N   1      29.967  21.581  -5.750  0.00  0.00     0.095 A 
HETATM    3  C   UNK N   1      30.276  22.026  -4.430  0.00  0.00     0.071 A 
HETATM    4  C   UNK N   1      31.392  21.491  -3.776  0.00  0.00     0.056 A 
HETATM    5  C   UNK N   1      32.221  20.567  -4.412  0.00  0.00     0.036 A 
HETATM    6  C   UNK N   1      31.942  20.157  -5.714  0.00  0.00     0.026 A 
HETATM    7 Cl   UNK N   1      33.617  19.923  -3.577  0.00  0.00    -0.084 Cl
HETATM    8  O   UNK N   1      28.853  22.022  -6.389  0.00  0.00    -0.349 OA
HETATM    9  C   UNK N   1      28.502  21.652  -7.670  0.00  0.00     0.175 C 
HETATM   10  N   UNK N   1      29.474  22.969  -3.715  0.00  0.00    -0.306 N 
HETATM   11  C   UNK N   1      28.805  24.007  -4.277  0.00  0.00     0.326 C 
HETATM   12  N   UNK N   1      27.950  24.746  -3.523  0.00  0.00    -0.293 N 
HETATM   13  O   UNK N   1      28.993  24.300  -5.450  0.00  0.00    -0.247 OA
HETATM   14  C   UNK N   1      27.040  25.666  -4.111  0.00  0.00     0.126 A 
HETATM   15  N   UNK N   1      26.672  25.516  -5.410  0.00  0.00    -0.321 N 
ATOM     16  HN  UNK N   1      27.108  24.778  -5.964  1.00  0.00     0.169 HD
HETATM   17  C   UNK N   1      25.745  26.314  -5.993  0.00  0.00     0.159 A 
HETATM   18  C   UNK N   1      25.162  27.334  -5.238  0.00  0.00     0.144 A 
HETATM   19  N   UNK N   1      25.528  27.496  -3.936  0.00  0.00    -0.368 N 
ATOM     20  HN  UNK N   1      25.110  28.248  -3.389  1.00  0.00     0.164 HD
HETATM   21  C   UNK N   1      26.441  26.671  -3.350  0.00  0.00     0.136 A 
HETATM   22  O   UNK N   1      25.368  26.107  -7.279  0.00  0.00    -0.335 OA
HETATM   23  C   UNK N   1      25.959  25.163  -8.105  0.00  0.00     0.177 C 
HETATM   24  C   UNK N   1      25.798  23.743  -7.569  0.00  0.00     0.027 C 
HETATM   25  C   UNK N   1      26.990  21.555  -7.791  0.00  0.00     0.027 C 
HETATM   26  C   UNK N   1      26.448  22.765  -8.532  0.00  0.00     0.004 C 
HETATM   27  H   UNK N   1      29.402  22.856  -2.739  0.00  0.00     0.171 HD
HETATM   28  H   UNK N   1      27.960  24.641  -2.544  0.00  0.00     0.172 HD
ENDROOT
TORSDOF 0
ENDMDL
MODEL 5
REMARK VINA RESULT:      -7.1      7.987      9.725
REMARK  0 active torsions:
REMARK  status: ('A' for Active; 'I' for Inactive)
ROOT
HETATM    1  C   UNK N   1      35.327  14.228   7.126  0.00  0.00     0.041 A 
HETATM    2  C   UNK N   1      34.115  14.778   7.579  0.00  0.00     0.095 A 
HETATM    3  C   UNK N   1      33.959  15.064   8.969  0.00  0.00     0.071 A 
HETATM    4  C   UNK N   1      34.999  14.745   9.849  0.00  0.00     0.056 A 
HETATM    5  C   UNK N   1      36.191  14.192   9.380  0.00  0.00     0.036 A 
HETATM    6  C   UNK N   1      36.360  13.945   8.019  0.00  0.00     0.026 A 
HETATM    7 Cl   UNK N   1      37.481  13.814  10.500  0.00  0.00    -0.084 Cl
HETATM    8  O   UNK N   1      33.101  15.006   6.705  0.00  0.00    -0.349 OA
HETATM    9  C   UNK N   1      33.186  14.775   5.349  0.00  0.00     0.175 C 
HETATM   10  N   UNK N   1      32.768  15.628   9.522  0.00  0.00    -0.306 N 
HETATM   11  C   UNK N   1      31.969  16.529   8.897  0.00  0.00     0.326 C 
HETATM   12  N   UNK N   1      30.780  16.879   9.454  0.00  0.00    -0.293 N 
HETATM   13  O   UNK N   1      32.328  17.052   7.850  0.00  0.00    -0.247 OA
HETATM   14  C   UNK N   1      29.800  17.607   8.728  0.00  0.00     0.126 A 
HETATM   15  N   UNK N   1      29.808  17.582   7.370  0.00  0.00    -0.321 N 
ATOM     16  HN  UNK N   1      30.561  17.089   6.890  1.00  0.00     0.169 HD
HETATM   17  C   UNK N   1      28.847  18.190   6.633  0.00  0.00     0.159 A 
HETATM   18  C   UNK N   1      27.826  18.879   7.291  0.00  0.00     0.144 A 
HETATM   19  N   UNK N   1      27.812  18.914   8.654  0.00  0.00    -0.368 N 
ATOM     20  HN  UNK N   1      27.072  19.427   9.133  1.00  0.00     0.164 HD
HETATM   21  C   UNK N   1      28.767  18.276   9.387  0.00  0.00     0.136 A 
HETATM   22  O   UNK N   1      28.861  18.107   5.280  0.00  0.00    -0.335 OA
HETATM   23  C   UNK N   1      29.883  17.504   4.563  0.00  0.00     0.177 C 
HETATM   24  C   UNK N   1      30.034  16.024   4.903  0.00  0.00     0.027 C 
HETATM   25  C   UNK N   1      31.845  14.300   4.813  0.00  0.00     0.027 C 
HETATM   26  C   UNK N   1      31.153  15.428   4.068  0.00  0.00     0.004 C 
HETATM   27  H   UNK N   1      32.507  15.340  10.427  0.00  0.00     0.171 HD
HETATM   28  H   UNK N   1      30.593  16.620  10.386  0.00  0.00     0.172 HD
ENDROOT
TORSDOF 0
ENDMDL
MODEL 6
REMARK VINA RESULT:      -7.1      6.091      9.067
REMARK  0 active torsions:
REMARK  status: ('A' for Active; 'I' for Inactive)
ROOT
HETATM    1  C   UNK N   1      26.699  20.178   5.939  0.00  0.00     0.041 A 
HETATM    2  C   UNK N   1      27.479  19.035   5.693  0.00  0.00     0.095 A 
HETATM    3  C   UNK N   1      27.370  18.378   4.431  0.00  0.00     0.071 A 
HETATM    4  C   UNK N   1      26.455  18.862   3.490  0.00  0.00     0.056 A 
HETATM    5  C   UNK N   1      25.685  19.994   3.756  0.00  0.00     0.036 A 
HETATM    6  C   UNK N   1      25.814  20.658   4.974  0.00  0.00     0.026 A 
HETATM    7 Cl   UNK N   1      24.557  20.586   2.556  0.00  0.00    -0.084 Cl
HETATM    8  O   UNK N   1      28.303  18.551   6.659  0.00  0.00    -0.349 OA
HETATM    9  C   UNK N   1      28.474  19.143   7.893  0.00  0.00     0.175 C 
HETATM   10  N   UNK N   1      28.126  17.214   4.088  0.00  0.00    -0.306 N 
HETATM   11  C   UNK N   1      29.395  16.960   4.497  0.00  0.00     0.326 C 
HETATM   12  N   UNK N   1      29.958  15.751   4.237  0.00  0.00    -0.293 N 
HETATM   13  O   UNK N   1      30.045  17.825   5.069  0.00  0.00    -0.247 OA
HETATM   14  C   UNK N   1      31.169  15.342   4.859  0.00  0.00     0.126 A 
HETATM   15  N   UNK N   1      31.551  15.911   6.033  0.00  0.00    -0.321 N 
ATOM     16  HN  UNK N   1      30.992  16.672   6.417  1.00  0.00     0.169 HD
HETATM   17  C   UNK N   1      32.651  15.498   6.707  0.00  0.00     0.159 A 
HETATM   18  C   UNK N   1      33.426  14.467   6.171  0.00  0.00     0.144 A 
HETATM   19  N   UNK N   1      33.053  13.894   4.992  0.00  0.00    -0.368 N 
ATOM     20  HN  UNK N   1      33.625  13.149   4.595  1.00  0.00     0.164 HD
HETATM   21  C   UNK N   1      31.930  14.297   4.334  0.00  0.00     0.136 A 
HETATM   22  O   UNK N   1      32.979  16.057   7.898  0.00  0.00    -0.335 OA
HETATM   23  C   UNK N   1      32.298  17.131   8.450  0.00  0.00     0.177 C 
HETATM   24  C   UNK N   1      30.831  16.809   8.723  0.00  0.00     0.027 C 
HETATM   25  C   UNK N   1      28.689  18.081   8.958  0.00  0.00     0.027 C 
HETATM   26  C   UNK N   1      30.157  18.020   9.344  0.00  0.00     0.004 C 
HETATM   27  H   UNK N   1      27.692  16.545   3.510  0.00  0.00     0.171 HD
HETATM   28  H   UNK N   1      29.516  15.142   3.603  0.00  0.00     0.172 HD
ENDROOT
TORSDOF 0
ENDMDL
MODEL 7
REMARK VINA RESULT:      -6.9     12.421     14.526
REMARK  0 active torsions:
REMARK  status: ('A' for Active; 'I' for Inactive)
ROOT
HETATM    1  C   UNK N   1      27.351  25.617  -3.809  0.00  0.00     0.041 A 
HETATM    2  C   UNK N   1      27.610  24.492  -4.612  0.00  0.00     0.095 A 
HETATM    3  C   UNK N   1      26.810  24.267  -5.771  0.00  0.00     0.071 A 
HETATM    4  C   UNK N   1      25.758  25.147  -6.052  0.00  0.00     0.056 A 
HETATM    5  C   UNK N   1      25.513  26.254  -5.239  0.00  0.00     0.036 A 
HETATM    6  C   UNK N   1      26.315  26.495  -4.125  0.00  0.00     0.026 A 
HETATM    7 Cl   UNK N   1      24.199  27.345  -5.619  0.00  0.00    -0.084 Cl
HETATM    8  O   UNK N   1      28.593  23.620  -4.267  0.00  0.00    -0.349 OA
HETATM    9  C   UNK N   1      29.418  23.783  -3.174  0.00  0.00     0.175 C 
HETATM   10  N   UNK N   1      27.000  23.156  -6.650  0.00  0.00    -0.306 N 
HETATM   11  C   UNK N   1      28.200  22.597  -6.950  0.00  0.00     0.326 C 
HETATM   12  N   UNK N   1      28.247  21.448  -7.674  0.00  0.00    -0.293 N 
HETATM   13  O   UNK N   1      29.239  23.139  -6.600  0.00  0.00    -0.247 OA
HETATM   14  C   UNK N   1      29.442  20.689  -7.794  0.00  0.00     0.126 A 
HETATM   15  N   UNK N   1      30.419  20.814  -6.857  0.00  0.00    -0.321 N 
ATOM     16  HN  UNK N   1      30.304  21.503  -6.114  1.00  0.00     0.169 HD
HETATM   17  C   UNK N   1      31.539  20.053  -6.879  0.00  0.00     0.159 A 
HETATM   18  C   UNK N   1      31.703  19.121  -7.907  0.00  0.00     0.144 A 
HETATM   19  N   UNK N   1      30.731  18.992  -8.854  0.00  0.00    -0.368 N 
ATOM     20  HN  UNK N   1      30.856  18.319  -9.610  1.00  0.00     0.164 HD
HETATM   21  C   UNK N   1      29.595  19.742  -8.808  0.00  0.00     0.136 A 
HETATM   22  O   UNK N   1      32.473  20.172  -5.904  0.00  0.00    -0.335 OA
HETATM   23  C   UNK N   1      32.408  21.125  -4.899  0.00  0.00     0.177 C 
HETATM   24  C   UNK N   1      31.162  20.969  -4.031  0.00  0.00     0.027 C 
HETATM   25  C   UNK N   1      29.755  22.431  -2.567  0.00  0.00     0.027 C 
HETATM   26  C   UNK N   1      31.171  22.029  -2.944  0.00  0.00     0.004 C 
HETATM   27  H   UNK N   1      26.199  22.766  -7.070  0.00  0.00     0.171 HD
HETATM   28  H   UNK N   1      27.432  21.133  -8.127  0.00  0.00     0.172 HD
ENDROOT
TORSDOF 0
ENDMDL
MODEL 8
REMARK VINA RESULT:      -6.9      4.181      7.459
REMARK  0 active torsions:
REMARK  status: ('A' for Active; 'I' for Inactive)
ROOT
HETATM    1  C   UNK N   1      21.550  19.170   4.076  0.00  0.00     0.041 A 
HETATM    2  C   UNK N   1      20.885  17.936   3.967  0.00  0.00     0.095 A 
HETATM    3  C   UNK N   1      20.213  17.615   2.750  0.00  0.00     0.071 A 
HETATM    4  C   UNK N   1      20.195  18.556   1.715  0.00  0.00     0.056 A 
HETATM    5  C   UNK N   1      20.856  19.778   1.846  0.00  0.00     0.036 A 
HETATM    6  C   UNK N   1      21.542  20.080   3.020  0.00  0.00     0.026 A 
HETATM    7 Cl   UNK N   1      20.828  20.932   0.531  0.00  0.00    -0.084 Cl
HETATM    8  O   UNK N   1      20.862  17.078   5.020  0.00  0.00    -0.349 OA
HETATM    9  C   UNK N   1      21.504  17.312   6.218  0.00  0.00     0.175 C 
HETATM   10  N   UNK N   1      19.515  16.384   2.543  0.00  0.00    -0.306 N 
HETATM   11  C   UNK N   1      19.884  15.183   3.057  0.00  0.00     0.326 C 
HETATM   12  N   UNK N   1      19.060  14.111   2.924  0.00  0.00    -0.293 N 
HETATM   13  O   UNK N   1      20.967  15.054   3.611  0.00  0.00    -0.247 OA
HETATM   14  C   UNK N   1      19.271  12.912   3.657  0.00  0.00     0.126 A 
HETATM   15  N   UNK N   1      19.986  12.942   4.811  0.00  0.00    -0.321 N 
ATOM     16  HN  UNK N   1      20.418  13.820   5.101  1.00  0.00     0.169 HD
HETATM   17  C   UNK N   1      20.145  11.844   5.589  0.00  0.00     0.159 A 
HETATM   18  C   UNK N   1      19.568  10.639   5.182  0.00  0.00     0.144 A 
HETATM   19  N   UNK N   1      18.852  10.598   4.022  0.00  0.00    -0.368 N 
ATOM     20  HN  UNK N   1      18.440   9.715   3.721  1.00  0.00     0.164 HD
HETATM   21  C   UNK N   1      18.675  11.713   3.261  0.00  0.00     0.136 A 
HETATM   22  O   UNK N   1      20.827  11.920   6.757  0.00  0.00    -0.335 OA
HETATM   23  C   UNK N   1      21.486  13.063   7.183  0.00  0.00     0.177 C 
HETATM   24  C   UNK N   1      20.536  14.243   7.374  0.00  0.00     0.027 C 
HETATM   25  C   UNK N   1      20.692  16.740   7.368  0.00  0.00     0.027 C 
HETATM   26  C   UNK N   1      21.322  15.448   7.859  0.00  0.00     0.004 C 
HETATM   27  H   UNK N   1      18.704  16.410   1.985  0.00  0.00     0.171 HD
HETATM   28  H   UNK N   1      18.297  14.167   2.304  0.00  0.00     0.172 HD
ENDROOT
TORSDOF 0
ENDMDL
MODEL 9
REMARK VINA RESULT:      -6.9     10.444     13.762
REMARK  0 active torsions:
REMARK  status: ('A' for Active; 'I' for Inactive)
ROOT
HETATM    1  C   UNK N   1      34.176  17.167   7.325  0.00  0.00     0.041 A 
HETATM    2  C   UNK N   1      33.816  15.945   7.920  0.00  0.00     0.095 A 
HETATM    3  C   UNK N   1      32.878  15.100   7.257  0.00  0.00     0.071 A 
HETATM    4  C   UNK N   1      32.305  15.531   6.055  0.00  0.00     0.056 A 
HETATM    5  C   UNK N   1      32.671  16.750   5.484  0.00  0.00     0.036 A 
HETATM    6  C   UNK N   1      33.613  17.562   6.112  0.00  0.00     0.026 A 
HETATM    7 Cl   UNK N   1      31.950  17.261   3.974  0.00  0.00    -0.084 Cl
HETATM    8  O   UNK N   1      34.338  15.594   9.124  0.00  0.00    -0.349 OA
HETATM    9  C   UNK N   1      35.263  16.349   9.813  0.00  0.00     0.175 C 
HETATM   10  N   UNK N   1      32.455  13.839   7.780  0.00  0.00    -0.306 N 
HETATM   11  C   UNK N   1      33.238  12.987   8.491  0.00  0.00     0.326 C 
HETATM   12  N   UNK N   1      32.688  11.889   9.072  0.00  0.00    -0.293 N 
HETATM   13  O   UNK N   1      34.442  13.188   8.584  0.00  0.00    -0.247 OA
HETATM   14  C   UNK N   1      33.397  11.116  10.030  0.00  0.00     0.126 A 
HETATM   15  N   UNK N   1      34.423  11.675  10.724  0.00  0.00    -0.321 N 
ATOM     16  HN  UNK N   1      34.710  12.628  10.497  1.00  0.00     0.169 HD
HETATM   17  C   UNK N   1      35.075  11.009  11.706  0.00  0.00     0.159 A 
HETATM   18  C   UNK N   1      34.692   9.699  12.002  0.00  0.00     0.144 A 
HETATM   19  N   UNK N   1      33.668   9.127  11.308  0.00  0.00    -0.368 N 
ATOM     20  HN  UNK N   1      33.396   8.167  11.519  1.00  0.00     0.164 HD
HETATM   21  C   UNK N   1      32.999   9.816  10.342  0.00  0.00     0.136 A 
HETATM   22  O   UNK N   1      36.065  11.612  12.409  0.00  0.00    -0.335 OA
HETATM   23  C   UNK N   1      36.544  12.880  12.117  0.00  0.00     0.177 C 
HETATM   24  C   UNK N   1      35.462  13.951  12.242  0.00  0.00     0.027 C 
HETATM   25  C   UNK N   1      35.026  16.231  11.310  0.00  0.00     0.027 C 
HETATM   26  C   UNK N   1      36.062  15.310  11.930  0.00  0.00     0.004 C 
HETATM   27  H   UNK N   1      31.523  13.566   7.613  0.00  0.00     0.171 HD
HETATM   28  H   UNK N   1      31.773  11.623   8.822  0.00  0.00     0.172 HD
ENDROOT
TORSDOF 0
ENDMDL
