MODEL 1
REMARK VINA RESULT:      -7.3      0.000      0.000
REMARK  3 active torsions:
REMARK  status: ('A' for Active; 'I' for Inactive)
REMARK    1  A    between atoms: C_5  and  S_7 
REMARK    2  A    between atoms: S_7  and  N_10 
REMARK    3  A    between atoms: N_10  and  C_11 
ROOT
HETATM    1  N   UNK N   1      36.071  15.640  11.895  0.00  0.00    -0.245 N 
HETATM    2  H   UNK N   1      36.445  16.345  12.471  0.00  0.00     0.182 HD
ENDROOT
BRANCH   1   3
HETATM    3  S   UNK N   1      36.071  13.974  12.467  0.00  0.00     0.267 S 
HETATM    4  O   UNK N   1      37.291  13.315  11.807  0.00  0.00    -0.200 OA
HETATM    5  O   UNK N   1      34.962  13.351  11.604  0.00  0.00    -0.200 OA
BRANCH   3   6
HETATM    6  C   UNK N   1      35.827  13.413  14.172  0.00  0.00     0.103 A 
HETATM    7  C   UNK N   1      35.153  12.199  14.364  0.00  0.00     0.050 A 
HETATM    8  C   UNK N   1      34.983  11.669  15.644  0.00  0.00     0.035 A 
HETATM    9  C   UNK N   1      35.487  12.347  16.752  0.00  0.00     0.025 A 
HETATM   10 Cl   UNK N   1      34.158  10.141  15.858  0.00  0.00    -0.084 Cl
HETATM   11  C   UNK N   1      36.161  13.554  16.580  0.00  0.00     0.027 A 
HETATM   12  C   UNK N   1      36.341  14.093  15.302  0.00  0.00     0.057 A 
HETATM   13 Cl   UNK N   1      37.231  15.589  15.187  0.00  0.00    -0.083 Cl
ENDBRANCH   3   6
ENDBRANCH   1   3
BRANCH   1  14
HETATM   14  C   UNK N   1      35.547  15.989  10.629  0.00  0.00     0.239 A 
HETATM   15  N   UNK N   1      35.552  15.157   9.555  0.00  0.00    -0.319 N 
HETATM   16  C   UNK N   1      34.987  15.908   8.590  0.00  0.00     0.071 A 
ATOM     17  HN  UNK N   1      35.897  14.199   9.493  1.00  0.00     0.169 HD
HETATM   18  C   UNK N   1      34.746  15.581   7.260  0.00  0.00     0.056 A 
HETATM   19  C   UNK N   1      34.658  17.127   9.101  0.00  0.00     0.106 A 
HETATM   20  C   UNK N   1      34.131  16.562   6.452  0.00  0.00     0.036 A 
HETATM   21 Cl   UNK N   1      33.823  16.236   4.760  0.00  0.00    -0.084 Cl
HETATM   22  C   UNK N   1      33.769  17.818   6.997  0.00  0.00     0.026 A 
HETATM   23  C   UNK N   1      34.037  18.113   8.346  0.00  0.00     0.041 A 
HETATM   24  O   UNK N   1      35.023  17.165  10.350  0.00  0.00    -0.277 OA
ENDBRANCH   1  14
TORSDOF 3
ENDMDL
MODEL 2
REMARK VINA RESULT:      -7.2      3.090      7.948
REMARK  3 active torsions:
REMARK  status: ('A' for Active; 'I' for Inactive)
REMARK    1  A    between atoms: C_5  and  S_7 
REMARK    2  A    between atoms: S_7  and  N_10 
REMARK    3  A    between atoms: N_10  and  C_11 
ROOT
HETATM    1  N   UNK N   1      34.561  17.292   9.804  0.00  0.00    -0.245 N 
HETATM    2  H   UNK N   1      34.652  18.174  10.231  0.00  0.00     0.182 HD
ENDROOT
BRANCH   1   3
HETATM    3  S   UNK N   1      34.002  17.199   8.136  0.00  0.00     0.267 S 
HETATM    4  O   UNK N   1      34.807  16.056   7.499  0.00  0.00    -0.200 OA
HETATM    5  O   UNK N   1      34.730  18.392   7.499  0.00  0.00    -0.200 OA
BRANCH   3   6
HETATM    6  C   UNK N   1      32.283  17.229   7.565  0.00  0.00     0.103 A 
HETATM    7  C   UNK N   1      31.282  17.382   8.533  0.00  0.00     0.050 A 
HETATM    8  C   UNK N   1      29.939  17.478   8.164  0.00  0.00     0.035 A 
HETATM    9  C   UNK N   1      29.579  17.424   6.819  0.00  0.00     0.025 A 
HETATM   10 Cl   UNK N   1      28.707  17.691   9.388  0.00  0.00    -0.084 Cl
HETATM   11  C   UNK N   1      30.562  17.274   5.843  0.00  0.00     0.027 A 
HETATM   12  C   UNK N   1      31.911  17.180   6.200  0.00  0.00     0.057 A 
HETATM   13 Cl   UNK N   1      33.069  17.033   4.903  0.00  0.00    -0.083 Cl
ENDBRANCH   3   6
ENDBRANCH   1   3
BRANCH   1  14
HETATM   14  C   UNK N   1      34.880  16.131  10.544  0.00  0.00     0.239 A 
HETATM   15  N   UNK N   1      34.510  14.876  10.178  0.00  0.00    -0.319 N 
HETATM   16  C   UNK N   1      35.003  14.114  11.173  0.00  0.00     0.071 A 
ATOM     17  HN  UNK N   1      33.987  14.582   9.352  1.00  0.00     0.169 HD
HETATM   18  C   UNK N   1      34.912  12.736  11.342  0.00  0.00     0.056 A 
HETATM   19  C   UNK N   1      35.647  14.907  12.073  0.00  0.00     0.106 A 
HETATM   20  C   UNK N   1      35.528  12.182  12.485  0.00  0.00     0.036 A 
HETATM   21 Cl   UNK N   1      35.431  10.460  12.784  0.00  0.00    -0.084 Cl
HETATM   22  C   UNK N   1      36.216  13.011  13.404  0.00  0.00     0.026 A 
HETATM   23  C   UNK N   1      36.279  14.400  13.201  0.00  0.00     0.041 A 
HETATM   24  O   UNK N   1      35.548  16.144  11.680  0.00  0.00    -0.277 OA
ENDBRANCH   1  14
TORSDOF 3
ENDMDL
MODEL 3
REMARK VINA RESULT:      -7.2      1.847      2.204
REMARK  3 active torsions:
REMARK  status: ('A' for Active; 'I' for Inactive)
REMARK    1  A    between atoms: C_5  and  S_7 
REMARK    2  A    between atoms: S_7  and  N_10 
REMARK    3  A    between atoms: N_10  and  C_11 
ROOT
HETATM    1  N   UNK N   1      36.022  15.467  12.062  0.00  0.00    -0.245 N 
HETATM    2  H   UNK N   1      36.374  16.094  12.734  0.00  0.00     0.182 HD
ENDROOT
BRANCH   1   3
HETATM    3  S   UNK N   1      36.360  13.747  12.233  0.00  0.00     0.267 S 
HETATM    4  O   UNK N   1      37.608  13.489  11.375  0.00  0.00    -0.200 OA
HETATM    5  O   UNK N   1      35.299  13.130  11.308  0.00  0.00    -0.200 OA
BRANCH   3   6
HETATM    6  C   UNK N   1      36.376  12.792  13.772  0.00  0.00     0.103 A 
HETATM    7  C   UNK N   1      35.884  13.416  14.926  0.00  0.00     0.050 A 
HETATM    8  C   UNK N   1      35.805  12.724  16.136  0.00  0.00     0.035 A 
HETATM    9  C   UNK N   1      36.216  11.395  16.207  0.00  0.00     0.025 A 
HETATM   10 Cl   UNK N   1      35.167  13.516  17.559  0.00  0.00    -0.084 Cl
HETATM   11  C   UNK N   1      36.707  10.758  15.069  0.00  0.00     0.027 A 
HETATM   12  C   UNK N   1      36.788  11.440  13.851  0.00  0.00     0.057 A 
HETATM   13 Cl   UNK N   1      37.379  10.544  12.475  0.00  0.00    -0.083 Cl
ENDBRANCH   3   6
ENDBRANCH   1   3
BRANCH   1  14
HETATM   14  C   UNK N   1      35.258  15.968  10.984  0.00  0.00     0.239 A 
HETATM   15  N   UNK N   1      34.037  15.485  10.633  0.00  0.00    -0.319 N 
HETATM   16  C   UNK N   1      33.712  16.234   9.563  0.00  0.00     0.071 A 
ATOM     17  HN  UNK N   1      33.498  14.738  11.074  1.00  0.00     0.169 HD
HETATM   18  C   UNK N   1      32.571  16.172   8.770  0.00  0.00     0.056 A 
HETATM   19  C   UNK N   1      34.710  17.127   9.316  0.00  0.00     0.106 A 
HETATM   20  C   UNK N   1      32.477  17.086   7.697  0.00  0.00     0.036 A 
HETATM   21 Cl   UNK N   1      31.086  17.049   6.636  0.00  0.00    -0.084 Cl
HETATM   22  C   UNK N   1      33.508  18.027   7.463  0.00  0.00     0.026 A 
HETATM   23  C   UNK N   1      34.650  18.052   8.283  0.00  0.00     0.041 A 
HETATM   24  O   UNK N   1      35.658  16.940  10.188  0.00  0.00    -0.277 OA
ENDBRANCH   1  14
TORSDOF 3
ENDMDL
MODEL 4
REMARK VINA RESULT:      -7.0      2.390      3.095
REMARK  3 active torsions:
REMARK  status: ('A' for Active; 'I' for Inactive)
REMARK    1  A    between atoms: C_5  and  S_7 
REMARK    2  A    between atoms: S_7  and  N_10 
REMARK    3  A    between atoms: N_10  and  C_11 
ROOT
HETATM    1  N   UNK N   1      37.193  13.474  12.610  0.00  0.00    -0.245 N 
HETATM    2  H   UNK N   1      38.085  13.084  12.469  0.00  0.00     0.182 HD
ENDROOT
BRANCH   1   3
HETATM    3  S   UNK N   1      36.383  13.230  14.155  0.00  0.00     0.267 S 
HETATM    4  O   UNK N   1      34.923  13.647  13.922  0.00  0.00    -0.200 OA
HETATM    5  O   UNK N   1      36.860  14.454  14.952  0.00  0.00    -0.200 OA
BRANCH   3   6
HETATM    6  C   UNK N   1      36.517  11.780  15.233  0.00  0.00     0.103 A 
HETATM    7  C   UNK N   1      37.336  10.727  14.802  0.00  0.00     0.050 A 
HETATM    8  C   UNK N   1      37.541   9.605  15.607  0.00  0.00     0.035 A 
HETATM    9  C   UNK N   1      36.929   9.521  16.856  0.00  0.00     0.025 A 
HETATM   10 Cl   UNK N   1      38.584   8.312  15.059  0.00  0.00    -0.084 Cl
HETATM   11  C   UNK N   1      36.113  10.559  17.301  0.00  0.00     0.027 A 
HETATM   12  C   UNK N   1      35.904  11.691  16.505  0.00  0.00     0.057 A 
HETATM   13 Cl   UNK N   1      34.898  12.953  17.167  0.00  0.00    -0.083 Cl
ENDBRANCH   3   6
ENDBRANCH   1   3
BRANCH   1  14
HETATM   14  C   UNK N   1      36.592  14.216  11.568  0.00  0.00     0.239 A 
HETATM   15  N   UNK N   1      36.202  15.512  11.690  0.00  0.00    -0.319 N 
HETATM   16  C   UNK N   1      35.674  15.783  10.481  0.00  0.00     0.071 A 
ATOM     17  HN  UNK N   1      36.288  16.129  12.498  1.00  0.00     0.169 HD
HETATM   18  C   UNK N   1      35.094  16.963  10.028  0.00  0.00     0.056 A 
HETATM   19  C   UNK N   1      35.770  14.680   9.688  0.00  0.00     0.106 A 
HETATM   20  C   UNK N   1      34.616  16.982   8.700  0.00  0.00     0.036 A 
HETATM   21 Cl   UNK N   1      33.845  18.421   8.067  0.00  0.00    -0.084 Cl
HETATM   22  C   UNK N   1      34.742  15.839   7.874  0.00  0.00     0.026 A 
HETATM   23  C   UNK N   1      35.328  14.662   8.372  0.00  0.00     0.041 A 
HETATM   24  O   UNK N   1      36.322  13.722  10.376  0.00  0.00    -0.277 OA
ENDBRANCH   1  14
TORSDOF 3
ENDMDL
MODEL 5
REMARK VINA RESULT:      -6.9      2.179      3.143
REMARK  3 active torsions:
REMARK  status: ('A' for Active; 'I' for Inactive)
REMARK    1  A    between atoms: C_5  and  S_7 
REMARK    2  A    between atoms: S_7  and  N_10 
REMARK    3  A    between atoms: N_10  and  C_11 
ROOT
HETATM    1  N   UNK N   1      33.409  15.028  10.807  0.00  0.00    -0.245 N 
HETATM    2  H   UNK N   1      32.712  14.867  11.482  0.00  0.00     0.182 HD
ENDROOT
BRANCH   1   3
HETATM    3  S   UNK N   1      35.095  14.735  11.223  0.00  0.00     0.267 S 
HETATM    4  O   UNK N   1      35.837  16.029  10.861  0.00  0.00    -0.200 OA
HETATM    5  O   UNK N   1      35.556  13.856  10.050  0.00  0.00    -0.200 OA
BRANCH   3   6
HETATM    6  C   UNK N   1      35.721  13.990  12.752  0.00  0.00     0.103 A 
HETATM    7  C   UNK N   1      36.326  14.842  13.686  0.00  0.00     0.050 A 
HETATM    8  C   UNK N   1      36.774  14.353  14.914  0.00  0.00     0.035 A 
HETATM    9  C   UNK N   1      36.622  13.004  15.226  0.00  0.00     0.025 A 
HETATM   10 Cl   UNK N   1      37.507  15.438  16.075  0.00  0.00    -0.084 Cl
HETATM   11  C   UNK N   1      36.021  12.143  14.309  0.00  0.00     0.027 A 
HETATM   12  C   UNK N   1      35.565  12.621  13.077  0.00  0.00     0.057 A 
HETATM   13 Cl   UNK N   1      34.792  11.474  12.015  0.00  0.00    -0.083 Cl
ENDBRANCH   3   6
ENDBRANCH   1   3
BRANCH   1  14
HETATM   14  C   UNK N   1      33.033  15.492   9.525  0.00  0.00     0.239 A 
HETATM   15  N   UNK N   1      33.920  15.873   8.569  0.00  0.00    -0.319 N 
HETATM   16  C   UNK N   1      33.122  16.251   7.552  0.00  0.00     0.071 A 
ATOM     17  HN  UNK N   1      34.939  15.872   8.610  1.00  0.00     0.169 HD
HETATM   18  C   UNK N   1      33.479  16.756   6.306  0.00  0.00     0.056 A 
HETATM   19  C   UNK N   1      31.820  16.080   7.911  0.00  0.00     0.106 A 
HETATM   20  C   UNK N   1      32.434  17.074   5.412  0.00  0.00     0.036 A 
HETATM   21 Cl   UNK N   1      32.802  17.743   3.837  0.00  0.00    -0.084 Cl
HETATM   22  C   UNK N   1      31.083  16.870   5.784  0.00  0.00     0.026 A 
HETATM   23  C   UNK N   1      30.763  16.365   7.056  0.00  0.00     0.041 A 
HETATM   24  O   UNK N   1      31.783  15.627   9.131  0.00  0.00    -0.277 OA
ENDBRANCH   1  14
TORSDOF 3
ENDMDL
MODEL 6
REMARK VINA RESULT:      -6.8      1.916      8.138
REMARK  3 active torsions:
REMARK  status: ('A' for Active; 'I' for Inactive)
REMARK    1  A    between atoms: C_5  and  S_7 
REMARK    2  A    between atoms: S_7  and  N_10 
REMARK    3  A    between atoms: N_10  and  C_11 
ROOT
HETATM    1  N   UNK N   1      36.628  14.915  11.200  0.00  0.00    -0.245 N 
HETATM    2  H   UNK N   1      37.586  14.930  10.973  0.00  0.00     0.182 HD
ENDROOT
BRANCH   1   3
HETATM    3  S   UNK N   1      35.485  15.756  10.156  0.00  0.00     0.267 S 
HETATM    4  O   UNK N   1      35.654  17.247  10.483  0.00  0.00    -0.200 OA
HETATM    5  O   UNK N   1      34.156  15.498  10.882  0.00  0.00    -0.200 OA
BRANCH   3   6
HETATM    6  C   UNK N   1      35.216  15.468   8.388  0.00  0.00     0.103 A 
HETATM    7  C   UNK N   1      34.501  16.440   7.675  0.00  0.00     0.050 A 
HETATM    8  C   UNK N   1      34.309  16.320   6.297  0.00  0.00     0.035 A 
HETATM    9  C   UNK N   1      34.831  15.225   5.613  0.00  0.00     0.025 A 
HETATM   10 Cl   UNK N   1      33.432  17.556   5.424  0.00  0.00    -0.084 Cl
HETATM   11  C   UNK N   1      35.546  14.249   6.305  0.00  0.00     0.027 A 
HETATM   12  C   UNK N   1      35.749  14.360   7.685  0.00  0.00     0.057 A 
HETATM   13 Cl   UNK N   1      36.690  13.109   8.454  0.00  0.00    -0.083 Cl
ENDBRANCH   3   6
ENDBRANCH   1   3
BRANCH   1  14
HETATM   14  C   UNK N   1      36.203  14.220  12.355  0.00  0.00     0.239 A 
HETATM   15  N   UNK N   1      36.596  14.539  13.616  0.00  0.00    -0.319 N 
HETATM   16  C   UNK N   1      35.973  13.613  14.369  0.00  0.00     0.071 A 
ATOM     17  HN  UNK N   1      37.211  15.295  13.919  1.00  0.00     0.169 HD
HETATM   18  C   UNK N   1      36.021  13.434  15.748  0.00  0.00     0.056 A 
HETATM   19  C   UNK N   1      35.237  12.797  13.565  0.00  0.00     0.106 A 
HETATM   20  C   UNK N   1      35.263  12.375  16.291  0.00  0.00     0.036 A 
HETATM   21 Cl   UNK N   1      35.296  12.067  18.014  0.00  0.00    -0.084 Cl
HETATM   22  C   UNK N   1      34.481  11.546  15.450  0.00  0.00     0.026 A 
HETATM   23  C   UNK N   1      34.465  11.755  14.060  0.00  0.00     0.041 A 
HETATM   24  O   UNK N   1      35.402  13.174  12.330  0.00  0.00    -0.277 OA
ENDBRANCH   1  14
TORSDOF 3
ENDMDL
MODEL 7
REMARK VINA RESULT:      -6.7      2.768      3.226
REMARK  3 active torsions:
REMARK  status: ('A' for Active; 'I' for Inactive)
REMARK    1  A    between atoms: C_5  and  S_7 
REMARK    2  A    between atoms: S_7  and  N_10 
REMARK    3  A    between atoms: N_10  and  C_11 
ROOT
HETATM    1  N   UNK N   1      36.544  15.394  12.009  0.00  0.00    -0.245 N 
HETATM    2  H   UNK N   1      37.358  15.915  12.192  0.00  0.00     0.182 HD
ENDROOT
BRANCH   1   3
HETATM    3  S   UNK N   1      36.237  13.927  12.934  0.00  0.00     0.267 S 
HETATM    4  O   UNK N   1      34.712  13.864  13.108  0.00  0.00    -0.200 OA
HETATM    5  O   UNK N   1      36.625  14.368  14.354  0.00  0.00    -0.200 OA
BRANCH   3   6
HETATM    6  C   UNK N   1      36.961  12.291  12.645  0.00  0.00     0.103 A 
HETATM    7  C   UNK N   1      37.427  11.583  13.762  0.00  0.00     0.050 A 
HETATM    8  C   UNK N   1      37.939  10.292  13.627  0.00  0.00     0.035 A 
HETATM    9  C   UNK N   1      37.991   9.689  12.372  0.00  0.00     0.025 A 
HETATM   10 Cl   UNK N   1      38.494   9.418  15.037  0.00  0.00    -0.084 Cl
HETATM   11  C   UNK N   1      37.531  10.378  11.251  0.00  0.00     0.027 A 
HETATM   12  C   UNK N   1      37.013  11.671  11.374  0.00  0.00     0.057 A 
HETATM   13 Cl   UNK N   1      36.426  12.434   9.919  0.00  0.00    -0.083 Cl
ENDBRANCH   3   6
ENDBRANCH   1   3
BRANCH   1  14
HETATM   14  C   UNK N   1      35.649  15.840  11.010  0.00  0.00     0.239 A 
HETATM   15  N   UNK N   1      34.511  15.182  10.666  0.00  0.00    -0.319 N 
HETATM   16  C   UNK N   1      34.006  15.948   9.680  0.00  0.00     0.071 A 
ATOM     17  HN  UNK N   1      34.131  14.321  11.059  1.00  0.00     0.169 HD
HETATM   18  C   UNK N   1      32.851  15.754   8.930  0.00  0.00     0.056 A 
HETATM   19  C   UNK N   1      34.823  17.018   9.475  0.00  0.00     0.106 A 
HETATM   20  C   UNK N   1      32.545  16.720   7.948  0.00  0.00     0.036 A 
HETATM   21 Cl   UNK N   1      31.125  16.529   6.943  0.00  0.00    -0.084 Cl
HETATM   22  C   UNK N   1      33.388  17.842   7.757  0.00  0.00     0.026 A 
HETATM   23  C   UNK N   1      34.551  17.999   8.531  0.00  0.00     0.041 A 
HETATM   24  O   UNK N   1      35.835  16.928  10.289  0.00  0.00    -0.277 OA
ENDBRANCH   1  14
TORSDOF 3
ENDMDL
MODEL 8
REMARK VINA RESULT:      -6.7      2.526      3.546
REMARK  3 active torsions:
REMARK  status: ('A' for Active; 'I' for Inactive)
REMARK    1  A    between atoms: C_5  and  S_7 
REMARK    2  A    between atoms: S_7  and  N_10 
REMARK    3  A    between atoms: N_10  and  C_11 
ROOT
HETATM    1  N   UNK N   1      37.016  13.004  13.224  0.00  0.00    -0.245 N 
HETATM    2  H   UNK N   1      37.836  12.474  13.100  0.00  0.00     0.182 HD
ENDROOT
BRANCH   1   3
HETATM    3  S   UNK N   1      36.195  12.965  14.782  0.00  0.00     0.267 S 
HETATM    4  O   UNK N   1      34.744  13.373  14.489  0.00  0.00    -0.200 OA
HETATM    5  O   UNK N   1      36.689  14.271  15.425  0.00  0.00    -0.200 OA
BRANCH   3   6
HETATM    6  C   UNK N   1      36.301  11.658  16.031  0.00  0.00     0.103 A 
HETATM    7  C   UNK N   1      35.705  11.902  17.276  0.00  0.00     0.050 A 
HETATM    8  C   UNK N   1      35.690  10.919  18.267  0.00  0.00     0.035 A 
HETATM    9  C   UNK N   1      36.269   9.676  18.026  0.00  0.00     0.025 A 
HETATM   10 Cl   UNK N   1      34.921  11.238  19.806  0.00  0.00    -0.084 Cl
HETATM   11  C   UNK N   1      36.865   9.415  16.793  0.00  0.00     0.027 A 
HETATM   12  C   UNK N   1      36.884  10.390  15.791  0.00  0.00     0.057 A 
HETATM   13 Cl   UNK N   1      37.618   9.954  14.270  0.00  0.00    -0.083 Cl
ENDBRANCH   3   6
ENDBRANCH   1   3
BRANCH   1  14
HETATM   14  C   UNK N   1      36.526  13.778  12.147  0.00  0.00     0.239 A 
HETATM   15  N   UNK N   1      36.240  15.103  12.238  0.00  0.00    -0.319 N 
HETATM   16  C   UNK N   1      35.791  15.399  11.003  0.00  0.00     0.071 A 
ATOM     17  HN  UNK N   1      36.342  15.722  13.042  1.00  0.00     0.169 HD
HETATM   18  C   UNK N   1      35.332  16.617  10.512  0.00  0.00     0.056 A 
HETATM   19  C   UNK N   1      35.830  14.281  10.227  0.00  0.00     0.106 A 
HETATM   20  C   UNK N   1      34.916  16.657   9.163  0.00  0.00     0.036 A 
HETATM   21 Cl   UNK N   1      34.298  18.145   8.481  0.00  0.00    -0.084 Cl
HETATM   22  C   UNK N   1      34.983  15.495   8.356  0.00  0.00     0.026 A 
HETATM   23  C   UNK N   1      35.446  14.281   8.893  0.00  0.00     0.041 A 
HETATM   24  O   UNK N   1      36.269  13.291  10.950  0.00  0.00    -0.277 OA
ENDBRANCH   1  14
TORSDOF 3
ENDMDL
MODEL 9
REMARK VINA RESULT:      -6.7     18.084     21.349
REMARK  3 active torsions:
REMARK  status: ('A' for Active; 'I' for Inactive)
REMARK    1  A    between atoms: C_5  and  S_7 
REMARK    2  A    between atoms: S_7  and  N_10 
REMARK    3  A    between atoms: N_10  and  C_11 
ROOT
HETATM    1  N   UNK N   1      27.204  23.714  -5.982  0.00  0.00    -0.245 N 
HETATM    2  H   UNK N   1      26.840  23.485  -6.867  0.00  0.00     0.182 HD
ENDROOT
BRANCH   1   3
HETATM    3  S   UNK N   1      26.418  24.968  -5.027  0.00  0.00     0.267 S 
HETATM    4  O   UNK N   1      26.254  24.371  -3.622  0.00  0.00    -0.200 OA
HETATM    5  O   UNK N   1      24.963  24.857  -5.508  0.00  0.00    -0.200 OA
BRANCH   3   6
HETATM    6  C   UNK N   1      26.853  26.726  -4.978  0.00  0.00     0.103 A 
HETATM    7  C   UNK N   1      27.091  27.299  -3.721  0.00  0.00     0.050 A 
HETATM    8  C   UNK N   1      27.493  28.631  -3.607  0.00  0.00     0.035 A 
HETATM    9  C   UNK N   1      27.664  29.409  -4.750  0.00  0.00     0.025 A 
HETATM   10 Cl   UNK N   1      27.807  29.319  -2.029  0.00  0.00    -0.084 Cl
HETATM   11  C   UNK N   1      27.433  28.856  -6.008  0.00  0.00     0.027 A 
HETATM   12  C   UNK N   1      27.033  27.521  -6.135  0.00  0.00     0.057 A 
HETATM   13 Cl   UNK N   1      26.807  26.910  -7.753  0.00  0.00    -0.083 Cl
ENDBRANCH   3   6
ENDBRANCH   1   3
BRANCH   1  14
HETATM   14  C   UNK N   1      28.347  23.030  -5.508  0.00  0.00     0.239 A 
HETATM   15  N   UNK N   1      29.004  23.357  -4.364  0.00  0.00    -0.319 N 
HETATM   16  C   UNK N   1      30.015  22.469  -4.333  0.00  0.00     0.071 A 
ATOM     17  HN  UNK N   1      28.784  24.094  -3.694  1.00  0.00     0.169 HD
HETATM   18  C   UNK N   1      31.031  22.338  -3.392  0.00  0.00     0.056 A 
HETATM   19  C   UNK N   1      29.932  21.650  -5.418  0.00  0.00     0.106 A 
HETATM   20  C   UNK N   1      31.975  21.308  -3.596  0.00  0.00     0.036 A 
HETATM   21 Cl   UNK N   1      33.300  21.099  -2.472  0.00  0.00    -0.084 Cl
HETATM   22  C   UNK N   1      31.867  20.446  -4.714  0.00  0.00     0.026 A 
HETATM   23  C   UNK N   1      30.829  20.616  -5.647  0.00  0.00     0.041 A 
HETATM   24  O   UNK N   1      28.911  22.018  -6.137  0.00  0.00    -0.277 OA
ENDBRANCH   1  14
TORSDOF 3
ENDMDL
