REMARK  5 active torsions:
REMARK  status: ('A' for Active; 'I' for Inactive)
REMARK    1  A    between atoms: C_4  and  S_7 
REMARK    2  A    between atoms: S_7  and  N_8 
REMARK    3  A    between atoms: N_8  and  C_11 
REMARK    4  A    between atoms: C_16  and  C_17 
REMARK    5  A    between atoms: C_17  and  O_18 
ROOT
HETATM    1  C   UNK N   1       0.233  -2.129  -0.423  0.00  0.00     0.059 A 
HETATM    2  C   UNK N   1       0.570  -3.432  -0.031  0.00  0.00     0.032 A 
HETATM    3  C   UNK N   1      -0.424  -4.336   0.351  0.00  0.00     0.009 A 
HETATM    4  C   UNK N   1      -1.762  -3.940   0.362  0.00  0.00    -0.061 A 
HETATM    5  C   UNK N   1      -2.109  -2.647  -0.030  0.00  0.00     0.027 A 
HETATM    6  C   UNK N   1      -1.129  -1.733  -0.437  0.00  0.00     0.065 A 
HETATM    7  C   UNK N   1      -2.820  -4.896   0.780  0.00  0.00     0.048 C 
ENDROOT
BRANCH   1   8
HETATM    8  N   UNK N   1       1.270  -1.219  -0.741  0.00  0.00    -0.280 N 
HETATM    9  H   UNK N   1       1.643  -1.201  -1.651  0.00  0.00     0.179 HD
BRANCH   8  10
HETATM   10  S   UNK N   1       1.896  -0.119   0.486  0.00  0.00     0.263 S 
HETATM   11  O   UNK N   1       1.354  -0.642   1.826  0.00  0.00    -0.200 OA
HETATM   12  O   UNK N   1       3.381  -0.492   0.604  0.00  0.00    -0.200 OA
BRANCH  10  13
HETATM   13  C   UNK N   1       1.674   1.657   0.319  0.00  0.00     0.079 A 
HETATM   14  C   UNK N   1       2.787   2.505   0.332  0.00  0.00     0.025 A 
HETATM   15  C   UNK N   1       2.616   3.890   0.224  0.00  0.00     0.002 A 
HETATM   16  C   UNK N   1       1.332   4.429   0.100  0.00  0.00     0.000 A 
HETATM   17  C   UNK N   1       0.219   3.585   0.094  0.00  0.00     0.002 A 
HETATM   18  C   UNK N   1       0.391   2.203   0.212  0.00  0.00     0.025 A 
ENDBRANCH  10  13
ENDBRANCH   8  10
ENDBRANCH   1   8
BRANCH   6  19
HETATM   19  C   UNK N   1      -1.562  -0.390  -0.889  0.00  0.00     0.178 C 
HETATM   20  O   UNK N   1      -0.792   0.348  -1.477  0.00  0.00    -0.646 OA
BRANCH  19  21
HETATM   21  O   UNK N   1      -2.839   0.001  -0.709  0.00  0.00    -0.773 OA
HETATM   22  H   UNK N   1      -3.048   0.906  -0.584  0.00  0.00     0.167 HD
ENDBRANCH  19  21
ENDBRANCH   6  19
TORSDOF 5
