MODEL 1
REMARK VINA RESULT:      -6.5      0.000      0.000
REMARK  5 active torsions:
REMARK  status: ('A' for Active; 'I' for Inactive)
REMARK    1  A    between atoms: C_4  and  S_7 
REMARK    2  A    between atoms: S_7  and  N_8 
REMARK    3  A    between atoms: N_8  and  C_11 
REMARK    4  A    between atoms: C_16  and  C_17 
REMARK    5  A    between atoms: C_17  and  O_18 
ROOT
HETATM    1  C   UNK N   1      29.259  23.505  -4.485  0.00  0.00     0.059 A 
HETATM    2  C   UNK N   1      29.520  23.166  -5.820  0.00  0.00     0.032 A 
HETATM    3  C   UNK N   1      30.235  22.006  -6.129  0.00  0.00     0.009 A 
HETATM    4  C   UNK N   1      30.710  21.184  -5.107  0.00  0.00    -0.061 A 
HETATM    5  C   UNK N   1      30.453  21.510  -3.775  0.00  0.00     0.027 A 
HETATM    6  C   UNK N   1      29.720  22.657  -3.445  0.00  0.00     0.065 A 
HETATM    7  C   UNK N   1      31.481  19.957  -5.433  0.00  0.00     0.048 C 
ENDROOT
BRANCH   1   8
HETATM    8  N   UNK N   1      28.590  24.720  -4.205  0.00  0.00    -0.280 N 
HETATM    9  H   UNK N   1      29.084  25.470  -3.805  0.00  0.00     0.179 HD
BRANCH   8  10
HETATM   10  S   UNK N   1      26.874  24.895  -4.568  0.00  0.00     0.263 S 
HETATM   11  O   UNK N   1      26.134  24.159  -3.439  0.00  0.00    -0.200 OA
HETATM   12  O   UNK N   1      26.562  26.358  -4.219  0.00  0.00    -0.200 OA
BRANCH  10  13
HETATM   13  C   UNK N   1      26.234  24.454  -6.189  0.00  0.00     0.079 A 
HETATM   14  C   UNK N   1      25.869  23.131  -6.460  0.00  0.00     0.025 A 
HETATM   15  C   UNK N   1      25.391  22.780  -7.728  0.00  0.00     0.002 A 
HETATM   16  C   UNK N   1      25.274  23.752  -8.726  0.00  0.00     0.000 A 
HETATM   17  C   UNK N   1      25.644  25.072  -8.460  0.00  0.00     0.002 A 
HETATM   18  C   UNK N   1      26.131  25.419  -7.196  0.00  0.00     0.025 A 
ENDBRANCH  10  13
ENDBRANCH   8  10
ENDBRANCH   1   8
BRANCH   6  19
HETATM   19  C   UNK N   1      29.436  22.925  -2.016  0.00  0.00     0.178 C 
HETATM   20  O   UNK N   1      30.343  23.056  -1.214  0.00  0.00    -0.646 OA
BRANCH  19  21
HETATM   21  O   UNK N   1      28.164  23.092  -1.602  0.00  0.00    -0.773 OA
HETATM   22  H   UNK N   1      27.538  22.400  -1.692  0.00  0.00     0.167 HD
ENDBRANCH  19  21
ENDBRANCH   6  19
TORSDOF 5
ENDMDL
MODEL 2
REMARK VINA RESULT:      -6.4      3.035      5.330
REMARK  5 active torsions:
REMARK  status: ('A' for Active; 'I' for Inactive)
REMARK    1  A    between atoms: C_4  and  S_7 
REMARK    2  A    between atoms: S_7  and  N_8 
REMARK    3  A    between atoms: N_8  and  C_11 
REMARK    4  A    between atoms: C_16  and  C_17 
REMARK    5  A    between atoms: C_17  and  O_18 
ROOT
HETATM    1  C   UNK N   1      25.628  25.456  -5.151  0.00  0.00     0.059 A 
HETATM    2  C   UNK N   1      24.990  26.563  -5.728  0.00  0.00     0.032 A 
HETATM    3  C   UNK N   1      25.195  27.846  -5.215  0.00  0.00     0.009 A 
HETATM    4  C   UNK N   1      26.024  28.031  -4.108  0.00  0.00    -0.061 A 
HETATM    5  C   UNK N   1      26.667  26.937  -3.528  0.00  0.00     0.027 A 
HETATM    6  C   UNK N   1      26.491  25.646  -4.042  0.00  0.00     0.065 A 
HETATM    7  C   UNK N   1      26.234  29.393  -3.553  0.00  0.00     0.048 C 
ENDROOT
BRANCH   1   8
HETATM    8  N   UNK N   1      25.347  24.163  -5.654  0.00  0.00    -0.280 N 
HETATM    9  H   UNK N   1      24.759  23.558  -5.148  0.00  0.00     0.179 HD
BRANCH   8  10
HETATM   10  S   UNK N   1      26.045  23.633  -7.184  0.00  0.00     0.263 S 
HETATM   11  O   UNK N   1      24.851  23.249  -8.073  0.00  0.00    -0.200 OA
HETATM   12  O   UNK N   1      26.507  24.933  -7.858  0.00  0.00    -0.200 OA
BRANCH  10  13
HETATM   13  C   UNK N   1      27.334  22.381  -7.214  0.00  0.00     0.079 A 
HETATM   14  C   UNK N   1      28.465  22.522  -6.402  0.00  0.00     0.025 A 
HETATM   15  C   UNK N   1      29.481  21.560  -6.439  0.00  0.00     0.002 A 
HETATM   16  C   UNK N   1      29.366  20.453  -7.286  0.00  0.00     0.000 A 
HETATM   17  C   UNK N   1      28.241  20.314  -8.103  0.00  0.00     0.002 A 
HETATM   18  C   UNK N   1      27.232  21.281  -8.072  0.00  0.00     0.025 A 
ENDBRANCH  10  13
ENDBRANCH   8  10
ENDBRANCH   1   8
BRANCH   6  19
HETATM   19  C   UNK N   1      27.238  24.531  -3.414  0.00  0.00     0.178 C 
HETATM   20  O   UNK N   1      26.650  23.639  -2.828  0.00  0.00    -0.646 OA
BRANCH  19  21
HETATM   21  O   UNK N   1      28.577  24.459  -3.545  0.00  0.00    -0.773 OA
HETATM   22  H   UNK N   1      28.980  24.553  -4.386  0.00  0.00     0.167 HD
ENDBRANCH  19  21
ENDBRANCH   6  19
TORSDOF 5
ENDMDL
MODEL 3
REMARK VINA RESULT:      -6.3      3.251      5.096
REMARK  5 active torsions:
REMARK  status: ('A' for Active; 'I' for Inactive)
REMARK    1  A    between atoms: C_4  and  S_7 
REMARK    2  A    between atoms: S_7  and  N_8 
REMARK    3  A    between atoms: N_8  and  C_11 
REMARK    4  A    between atoms: C_16  and  C_17 
REMARK    5  A    between atoms: C_17  and  O_18 
ROOT
HETATM    1  C   UNK N   1      25.541  25.350  -5.180  0.00  0.00     0.059 A 
HETATM    2  C   UNK N   1      24.901  26.486  -5.696  0.00  0.00     0.032 A 
HETATM    3  C   UNK N   1      25.166  27.751  -5.165  0.00  0.00     0.009 A 
HETATM    4  C   UNK N   1      26.059  27.889  -4.102  0.00  0.00    -0.061 A 
HETATM    5  C   UNK N   1      26.705  26.766  -3.584  0.00  0.00     0.027 A 
HETATM    6  C   UNK N   1      26.469  25.493  -4.117  0.00  0.00     0.065 A 
HETATM    7  C   UNK N   1      26.334  29.232  -3.527  0.00  0.00     0.048 C 
ENDROOT
BRANCH   1   8
HETATM    8  N   UNK N   1      25.200  24.077  -5.697  0.00  0.00    -0.280 N 
HETATM    9  H   UNK N   1      24.593  23.491  -5.192  0.00  0.00     0.179 HD
BRANCH   8  10
HETATM   10  S   UNK N   1      25.859  23.538  -7.241  0.00  0.00     0.263 S 
HETATM   11  O   UNK N   1      27.102  22.705  -6.892  0.00  0.00    -0.200 OA
HETATM   12  O   UNK N   1      24.889  22.440  -7.701  0.00  0.00    -0.200 OA
BRANCH  10  13
HETATM   13  C   UNK N   1      26.189  24.719  -8.555  0.00  0.00     0.079 A 
HETATM   14  C   UNK N   1      27.285  25.585  -8.458  0.00  0.00     0.025 A 
HETATM   15  C   UNK N   1      27.532  26.520  -9.469  0.00  0.00     0.002 A 
HETATM   16  C   UNK N   1      26.686  26.590 -10.580  0.00  0.00     0.000 A 
HETATM   17  C   UNK N   1      25.588  25.732 -10.676  0.00  0.00     0.002 A 
HETATM   18  C   UNK N   1      25.337  24.805  -9.660  0.00  0.00     0.025 A 
ENDBRANCH  10  13
ENDBRANCH   8  10
ENDBRANCH   1   8
BRANCH   6  19
HETATM   19  C   UNK N   1      27.220  24.344  -3.558  0.00  0.00     0.178 C 
HETATM   20  O   UNK N   1      26.975  23.923  -2.442  0.00  0.00    -0.646 OA
BRANCH  19  21
HETATM   21  O   UNK N   1      28.141  23.712  -4.311  0.00  0.00    -0.773 OA
HETATM   22  H   UNK N   1      28.006  23.595  -5.231  0.00  0.00     0.167 HD
ENDBRANCH  19  21
ENDBRANCH   6  19
TORSDOF 5
ENDMDL
MODEL 4
REMARK VINA RESULT:      -6.3     11.891     14.403
REMARK  5 active torsions:
REMARK  status: ('A' for Active; 'I' for Inactive)
REMARK    1  A    between atoms: C_4  and  S_7 
REMARK    2  A    between atoms: S_7  and  N_8 
REMARK    3  A    between atoms: N_8  and  C_11 
REMARK    4  A    between atoms: C_16  and  C_17 
REMARK    5  A    between atoms: C_17  and  O_18 
ROOT
HETATM    1  C   UNK N   1      28.396  17.868   6.417  0.00  0.00     0.059 A 
HETATM    2  C   UNK N   1      28.296  18.488   5.164  0.00  0.00     0.032 A 
HETATM    3  C   UNK N   1      27.844  19.806   5.059  0.00  0.00     0.009 A 
HETATM    4  C   UNK N   1      27.472  20.510   6.205  0.00  0.00    -0.061 A 
HETATM    5  C   UNK N   1      27.571  19.904   7.458  0.00  0.00     0.027 A 
HETATM    6  C   UNK N   1      28.042  18.591   7.585  0.00  0.00     0.065 A 
HETATM    7  C   UNK N   1      26.979  21.907   6.095  0.00  0.00     0.048 C 
ENDROOT
BRANCH   1   8
HETATM    8  N   UNK N   1      28.794  16.511   6.481  0.00  0.00    -0.280 N 
HETATM    9  H   UNK N   1      28.160  15.829   6.798  0.00  0.00     0.179 HD
BRANCH   8  10
HETATM   10  S   UNK N   1      30.421  16.038   5.995  0.00  0.00     0.263 S 
HETATM   11  O   UNK N   1      30.481  14.513   6.178  0.00  0.00    -0.200 OA
HETATM   12  O   UNK N   1      30.405  16.149   4.463  0.00  0.00    -0.200 OA
BRANCH  10  13
HETATM   13  C   UNK N   1      31.859  16.855   6.699  0.00  0.00     0.079 A 
HETATM   14  C   UNK N   1      33.081  16.829   6.018  0.00  0.00     0.025 A 
HETATM   15  C   UNK N   1      34.208  17.447   6.574  0.00  0.00     0.002 A 
HETATM   16  C   UNK N   1      34.113  18.093   7.810  0.00  0.00     0.000 A 
HETATM   17  C   UNK N   1      32.896  18.114   8.495  0.00  0.00     0.002 A 
HETATM   18  C   UNK N   1      31.775  17.489   7.943  0.00  0.00     0.025 A 
ENDBRANCH  10  13
ENDBRANCH   8  10
ENDBRANCH   1   8
BRANCH   6  19
HETATM   19  C   UNK N   1      28.172  18.018   8.945  0.00  0.00     0.178 C 
HETATM   20  O   UNK N   1      27.617  16.974   9.237  0.00  0.00    -0.646 OA
BRANCH  19  21
HETATM   21  O   UNK N   1      28.964  18.618   9.855  0.00  0.00    -0.773 OA
HETATM   22  H   UNK N   1      29.801  18.256  10.072  0.00  0.00     0.167 HD
ENDBRANCH  19  21
ENDBRANCH   6  19
TORSDOF 5
ENDMDL
MODEL 5
REMARK VINA RESULT:      -6.2     12.125     13.928
REMARK  5 active torsions:
REMARK  status: ('A' for Active; 'I' for Inactive)
REMARK    1  A    between atoms: C_4  and  S_7 
REMARK    2  A    between atoms: S_7  and  N_8 
REMARK    3  A    between atoms: N_8  and  C_11 
REMARK    4  A    between atoms: C_16  and  C_17 
REMARK    5  A    between atoms: C_17  and  O_18 
ROOT
HETATM    1  C   UNK N   1      28.855  17.858   6.659  0.00  0.00     0.059 A 
HETATM    2  C   UNK N   1      28.670  18.330   5.352  0.00  0.00     0.032 A 
HETATM    3  C   UNK N   1      28.005  19.537   5.123  0.00  0.00     0.009 A 
HETATM    4  C   UNK N   1      27.502  20.273   6.197  0.00  0.00    -0.061 A 
HETATM    5  C   UNK N   1      27.684  19.814   7.502  0.00  0.00     0.027 A 
HETATM    6  C   UNK N   1      28.368  18.617   7.753  0.00  0.00     0.065 A 
HETATM    7  C   UNK N   1      26.783  21.550   5.955  0.00  0.00     0.048 C 
ENDROOT
BRANCH   1   8
HETATM    8  N   UNK N   1      29.476  16.600   6.851  0.00  0.00    -0.280 N 
HETATM    9  H   UNK N   1      28.923  15.798   6.993  0.00  0.00     0.179 HD
BRANCH   8  10
HETATM   10  S   UNK N   1      31.233  16.463   6.840  0.00  0.00     0.263 S 
HETATM   11  O   UNK N   1      31.747  17.671   7.640  0.00  0.00    -0.200 OA
HETATM   12  O   UNK N   1      31.528  15.316   7.818  0.00  0.00    -0.200 OA
BRANCH  10  13
HETATM   13  C   UNK N   1      32.123  16.255   5.292  0.00  0.00     0.079 A 
HETATM   14  C   UNK N   1      31.974  17.197   4.268  0.00  0.00     0.025 A 
HETATM   15  C   UNK N   1      32.649  17.026   3.054  0.00  0.00     0.002 A 
HETATM   16  C   UNK N   1      33.475  15.915   2.862  0.00  0.00     0.000 A 
HETATM   17  C   UNK N   1      33.620  14.969   3.881  0.00  0.00     0.002 A 
HETATM   18  C   UNK N   1      32.937  15.136   5.089  0.00  0.00     0.025 A 
ENDBRANCH  10  13
ENDBRANCH   8  10
ENDBRANCH   1   8
BRANCH   6  19
HETATM   19  C   UNK N   1      28.573  18.205   9.161  0.00  0.00     0.178 C 
HETATM   20  O   UNK N   1      27.849  17.374   9.679  0.00  0.00    -0.646 OA
BRANCH  19  21
HETATM   21  O   UNK N   1      29.609  18.703   9.864  0.00  0.00    -0.773 OA
HETATM   22  H   UNK N   1      30.206  18.130  10.305  0.00  0.00     0.167 HD
ENDBRANCH  19  21
ENDBRANCH   6  19
TORSDOF 5
ENDMDL
MODEL 6
REMARK VINA RESULT:      -6.0     25.781     28.724
REMARK  5 active torsions:
REMARK  status: ('A' for Active; 'I' for Inactive)
REMARK    1  A    between atoms: C_4  and  S_7 
REMARK    2  A    between atoms: S_7  and  N_8 
REMARK    3  A    between atoms: N_8  and  C_11 
REMARK    4  A    between atoms: C_16  and  C_17 
REMARK    5  A    between atoms: C_17  and  O_18 
ROOT
HETATM    1  C   UNK N   1      35.238  10.717  19.243  0.00  0.00     0.059 A 
HETATM    2  C   UNK N   1      35.258   9.523  18.510  0.00  0.00     0.032 A 
HETATM    3  C   UNK N   1      35.158   9.546  17.116  0.00  0.00     0.009 A 
HETATM    4  C   UNK N   1      35.020  10.762  16.446  0.00  0.00    -0.061 A 
HETATM    5  C   UNK N   1      35.004  11.957  17.166  0.00  0.00     0.027 A 
HETATM    6  C   UNK N   1      35.124  11.956  18.561  0.00  0.00     0.065 A 
HETATM    7  C   UNK N   1      34.901  10.788  14.965  0.00  0.00     0.048 C 
ENDROOT
BRANCH   1   8
HETATM    8  N   UNK N   1      35.275  10.654  20.657  0.00  0.00    -0.280 N 
HETATM    9  H   UNK N   1      36.069  10.977  21.141  0.00  0.00     0.179 HD
BRANCH   8  10
HETATM   10  S   UNK N   1      33.907   9.998  21.555  0.00  0.00     0.263 S 
HETATM   11  O   UNK N   1      34.468   9.594  22.927  0.00  0.00    -0.200 OA
HETATM   12  O   UNK N   1      33.076  11.234  21.929  0.00  0.00    -0.200 OA
BRANCH  10  13
HETATM   13  C   UNK N   1      32.882   8.706  20.841  0.00  0.00     0.079 A 
HETATM   14  C   UNK N   1      33.445   7.467  20.515  0.00  0.00     0.025 A 
HETATM   15  C   UNK N   1      32.654   6.466  19.939  0.00  0.00     0.002 A 
HETATM   16  C   UNK N   1      31.298   6.701  19.691  0.00  0.00     0.000 A 
HETATM   17  C   UNK N   1      30.736   7.940  20.009  0.00  0.00     0.002 A 
HETATM   18  C   UNK N   1      31.529   8.942  20.574  0.00  0.00     0.025 A 
ENDBRANCH  10  13
ENDBRANCH   8  10
ENDBRANCH   1   8
BRANCH   6  19
HETATM   19  C   UNK N   1      35.149  13.258  19.267  0.00  0.00     0.178 C 
HETATM   20  O   UNK N   1      35.615  14.248  18.732  0.00  0.00    -0.646 OA
BRANCH  19  21
HETATM   21  O   UNK N   1      34.594  13.371  20.490  0.00  0.00    -0.773 OA
HETATM   22  H   UNK N   1      35.128  13.354  21.260  0.00  0.00     0.167 HD
ENDBRANCH  19  21
ENDBRANCH   6  19
TORSDOF 5
ENDMDL
MODEL 7
REMARK VINA RESULT:      -6.0      2.748      3.562
REMARK  5 active torsions:
REMARK  status: ('A' for Active; 'I' for Inactive)
REMARK    1  A    between atoms: C_4  and  S_7 
REMARK    2  A    between atoms: S_7  and  N_8 
REMARK    3  A    between atoms: N_8  and  C_11 
REMARK    4  A    between atoms: C_16  and  C_17 
REMARK    5  A    between atoms: C_17  and  O_18 
ROOT
HETATM    1  C   UNK N   1      29.508  23.928  -4.474  0.00  0.00     0.059 A 
HETATM    2  C   UNK N   1      29.710  23.757  -5.851  0.00  0.00     0.032 A 
HETATM    3  C   UNK N   1      30.100  22.516  -6.360  0.00  0.00     0.009 A 
HETATM    4  C   UNK N   1      30.310  21.440  -5.496  0.00  0.00    -0.061 A 
HETATM    5  C   UNK N   1      30.108  21.599  -4.125  0.00  0.00     0.027 A 
HETATM    6  C   UNK N   1      29.696  22.829  -3.597  0.00  0.00     0.065 A 
HETATM    7  C   UNK N   1      30.737  20.123  -6.034  0.00  0.00     0.048 C 
ENDROOT
BRANCH   1   8
HETATM    8  N   UNK N   1      29.176  25.215  -3.985  0.00  0.00    -0.280 N 
HETATM    9  H   UNK N   1      29.853  25.745  -3.506  0.00  0.00     0.179 HD
BRANCH   8  10
HETATM   10  S   UNK N   1      27.558  25.870  -4.229  0.00  0.00     0.263 S 
HETATM   11  O   UNK N   1      26.987  25.120  -5.443  0.00  0.00    -0.200 OA
HETATM   12  O   UNK N   1      26.729  25.260  -3.089  0.00  0.00    -0.200 OA
BRANCH  10  13
HETATM   13  C   UNK N   1      27.301  27.645  -4.355  0.00  0.00     0.079 A 
HETATM   14  C   UNK N   1      27.903  28.367  -5.392  0.00  0.00     0.025 A 
HETATM   15  C   UNK N   1      27.722  29.752  -5.480  0.00  0.00     0.002 A 
HETATM   16  C   UNK N   1      26.938  30.417  -4.532  0.00  0.00     0.000 A 
HETATM   17  C   UNK N   1      26.343  29.699  -3.492  0.00  0.00     0.002 A 
HETATM   18  C   UNK N   1      26.532  28.318  -3.400  0.00  0.00     0.025 A 
ENDBRANCH  10  13
ENDBRANCH   8  10
ENDBRANCH   1   8
BRANCH   6  19
HETATM   19  C   UNK N   1      29.450  22.924  -2.139  0.00  0.00     0.178 C 
HETATM   20  O   UNK N   1      30.379  22.958  -1.352  0.00  0.00    -0.646 OA
BRANCH  19  21
HETATM   21  O   UNK N   1      28.190  23.040  -1.675  0.00  0.00    -0.773 OA
HETATM   22  H   UNK N   1      27.822  22.379  -1.122  0.00  0.00     0.167 HD
ENDBRANCH  19  21
ENDBRANCH   6  19
TORSDOF 5
ENDMDL
MODEL 8
REMARK VINA RESULT:      -5.9      3.215      5.350
REMARK  5 active torsions:
REMARK  status: ('A' for Active; 'I' for Inactive)
REMARK    1  A    between atoms: C_4  and  S_7 
REMARK    2  A    between atoms: S_7  and  N_8 
REMARK    3  A    between atoms: N_8  and  C_11 
REMARK    4  A    between atoms: C_16  and  C_17 
REMARK    5  A    between atoms: C_17  and  O_18 
ROOT
HETATM    1  C   UNK N   1      26.631  26.931  -5.994  0.00  0.00     0.059 A 
HETATM    2  C   UNK N   1      27.266  27.308  -7.186  0.00  0.00     0.032 A 
HETATM    3  C   UNK N   1      27.994  28.498  -7.255  0.00  0.00     0.009 A 
HETATM    4  C   UNK N   1      28.079  29.330  -6.138  0.00  0.00    -0.061 A 
HETATM    5  C   UNK N   1      27.455  28.963  -4.946  0.00  0.00     0.027 A 
HETATM    6  C   UNK N   1      26.738  27.763  -4.851  0.00  0.00     0.065 A 
HETATM    7  C   UNK N   1      28.843  30.603  -6.212  0.00  0.00     0.048 C 
ENDROOT
BRANCH   1   8
HETATM    8  N   UNK N   1      25.847  25.752  -5.979  0.00  0.00    -0.280 N 
HETATM    9  H   UNK N   1      24.892  25.796  -6.209  0.00  0.00     0.179 HD
BRANCH   8  10
HETATM   10  S   UNK N   1      26.574  24.205  -5.547  0.00  0.00     0.263 S 
HETATM   11  O   UNK N   1      28.016  24.530  -5.123  0.00  0.00    -0.200 OA
HETATM   12  O   UNK N   1      25.941  23.857  -4.192  0.00  0.00    -0.200 OA
BRANCH  10  13
HETATM   13  C   UNK N   1      26.505  22.814  -6.684  0.00  0.00     0.079 A 
HETATM   14  C   UNK N   1      27.682  22.320  -7.256  0.00  0.00     0.025 A 
HETATM   15  C   UNK N   1      27.630  21.251  -8.158  0.00  0.00     0.002 A 
HETATM   16  C   UNK N   1      26.400  20.673  -8.487  0.00  0.00     0.000 A 
HETATM   17  C   UNK N   1      25.223  21.170  -7.923  0.00  0.00     0.002 A 
HETATM   18  C   UNK N   1      25.276  22.244  -7.030  0.00  0.00     0.025 A 
ENDBRANCH  10  13
ENDBRANCH   8  10
ENDBRANCH   1   8
BRANCH   6  19
HETATM   19  C   UNK N   1      26.138  27.402  -3.545  0.00  0.00     0.178 C 
HETATM   20  O   UNK N   1      25.329  28.137  -3.007  0.00  0.00    -0.646 OA
BRANCH  19  21
HETATM   21  O   UNK N   1      26.435  26.219  -2.972  0.00  0.00    -0.773 OA
HETATM   22  H   UNK N   1      26.713  26.179  -2.078  0.00  0.00     0.167 HD
ENDBRANCH  19  21
ENDBRANCH   6  19
TORSDOF 5
ENDMDL
MODEL 9
REMARK VINA RESULT:      -5.8      2.898      3.708
REMARK  5 active torsions:
REMARK  status: ('A' for Active; 'I' for Inactive)
REMARK    1  A    between atoms: C_4  and  S_7 
REMARK    2  A    between atoms: S_7  and  N_8 
REMARK    3  A    between atoms: N_8  and  C_11 
REMARK    4  A    between atoms: C_16  and  C_17 
REMARK    5  A    between atoms: C_17  and  O_18 
ROOT
HETATM    1  C   UNK N   1      30.907  22.518  -5.261  0.00  0.00     0.059 A 
HETATM    2  C   UNK N   1      29.993  22.711  -6.306  0.00  0.00     0.032 A 
HETATM    3  C   UNK N   1      29.531  21.624  -7.053  0.00  0.00     0.009 A 
HETATM    4  C   UNK N   1      29.993  20.338  -6.773  0.00  0.00    -0.061 A 
HETATM    5  C   UNK N   1      30.900  20.134  -5.733  0.00  0.00     0.027 A 
HETATM    6  C   UNK N   1      31.358  21.208  -4.959  0.00  0.00     0.065 A 
HETATM    7  C   UNK N   1      29.514  19.182  -7.574  0.00  0.00     0.048 C 
ENDROOT
BRANCH   1   8
HETATM    8  N   UNK N   1      31.404  23.648  -4.568  0.00  0.00    -0.280 N 
HETATM    9  H   UNK N   1      32.326  23.951  -4.724  0.00  0.00     0.179 HD
BRANCH   8  10
HETATM   10  S   UNK N   1      30.377  24.514  -3.426  0.00  0.00     0.263 S 
HETATM   11  O   UNK N   1      30.473  23.730  -2.107  0.00  0.00    -0.200 OA
HETATM   12  O   UNK N   1      31.181  25.775  -3.077  0.00  0.00    -0.200 OA
BRANCH  10  13
HETATM   13  C   UNK N   1      28.676  24.913  -3.848  0.00  0.00     0.079 A 
HETATM   14  C   UNK N   1      28.360  26.177  -4.358  0.00  0.00     0.025 A 
HETATM   15  C   UNK N   1      27.033  26.498  -4.667  0.00  0.00     0.002 A 
HETATM   16  C   UNK N   1      26.021  25.555  -4.469  0.00  0.00     0.000 A 
HETATM   17  C   UNK N   1      26.332  24.295  -3.953  0.00  0.00     0.002 A 
HETATM   18  C   UNK N   1      27.656  23.979  -3.636  0.00  0.00     0.025 A 
ENDBRANCH  10  13
ENDBRANCH   8  10
ENDBRANCH   1   8
BRANCH   6  19
HETATM   19  C   UNK N   1      32.282  20.924  -3.836  0.00  0.00     0.178 C 
HETATM   20  O   UNK N   1      33.387  20.454  -4.042  0.00  0.00    -0.646 OA
BRANCH  19  21
HETATM   21  O   UNK N   1      31.929  21.246  -2.576  0.00  0.00    -0.773 OA
HETATM   22  H   UNK N   1      31.539  22.077  -2.388  0.00  0.00     0.167 HD
ENDBRANCH  19  21
ENDBRANCH   6  19
TORSDOF 5
ENDMDL
