MODEL 1
REMARK VINA RESULT:      -6.2      0.000      0.000
REMARK  4 active torsions:
REMARK  status: ('A' for Active; 'I' for Inactive)
REMARK    1  A    between atoms: C_5  and  N_11 
REMARK       I    between atoms: N_11  and  C_12 
REMARK       I    between atoms: C_12  and  N_14 
REMARK    2  A    between atoms: N_14  and  C_15 
REMARK    3  A    between atoms: C_18  and  O_23 
REMARK    4  A    between atoms: C_20  and  O_21 
ROOT
HETATM    1  C   UNK N   1      20.250  15.586   2.205  0.00  0.00     0.129 C 
HETATM    2  N   UNK N   1      19.452  16.664   2.113  0.00  0.00    -0.353 N 
ATOM      3  HN  UNK N   1      18.552  16.608   1.638  1.00  0.00     0.166 HD
HETATM    4  C   UNK N   1      19.865  17.805   2.659  0.00  0.00     0.137 C 
HETATM    5  C   UNK N   1      21.102  17.850   3.357  0.00  0.00     0.124 C 
HETATM    6  N   UNK N   1      21.966  16.835   3.248  0.00  0.00    -0.348 N 
ATOM      7  HN  UNK N   1      22.918  16.928   3.602  1.00  0.00     0.167 HD
HETATM    8  C   UNK N   1      21.563  15.693   2.666  0.00  0.00     0.130 C 
HETATM    9  C   UNK N   1      19.648  14.319   2.186  0.00  0.00     0.119 C 
HETATM   10  N   UNK N   1      19.135  13.289   2.164  0.00  0.00    -0.190 NA
ENDROOT
BRANCH   5  11
HETATM   11  N   UNK N   1      21.179  18.636   4.508  0.00  0.00    -0.293 N 
HETATM   12  C   UNK N   1      21.450  17.958   5.595  0.00  0.00     0.326 C 
HETATM   13  O   UNK N   1      22.633  17.839   5.935  0.00  0.00    -0.247 OA
HETATM   14  N   UNK N   1      20.542  17.020   5.932  0.00  0.00    -0.306 N 
HETATM   15  H   UNK N   1      19.669  16.958   5.482  0.00  0.00     0.171 HD
HETATM   16  H   UNK N   1      21.042  19.610   4.504  0.00  0.00     0.172 HD
BRANCH  14  17
HETATM   17  C   UNK N   1      20.895  16.169   6.923  0.00  0.00     0.071 A 
HETATM   18  C   UNK N   1      21.068  14.880   6.501  0.00  0.00     0.059 A 
HETATM   19  C   UNK N   1      20.911  13.850   7.379  0.00  0.00     0.069 A 
HETATM   20 Cl   UNK N   1      21.114  12.268   6.664  0.00  0.00    -0.081 Cl
HETATM   21  C   UNK N   1      20.535  14.152   8.728  0.00  0.00     0.092 A 
HETATM   22  C   UNK N   1      20.406  15.452   9.125  0.00  0.00     0.077 A 
HETATM   23  C   UNK N   1      20.596  16.487   8.267  0.00  0.00     0.097 A 
BRANCH  21  24
HETATM   24  O   UNK N   1      20.312  13.275   9.708  0.00  0.00    -0.354 OA
HETATM   25  C   UNK N   1      21.267  12.668  10.455  0.00  0.00     0.210 C 
ENDBRANCH  21  24
BRANCH  23  26
HETATM   26  O   UNK N   1      20.400  17.752   8.721  0.00  0.00    -0.354 OA
HETATM   27  C   UNK N   1      19.191  18.144   9.281  0.00  0.00     0.210 C 
ENDBRANCH  23  26
ENDBRANCH  14  17
ENDBRANCH   5  11
TORSDOF 4
ENDMDL
MODEL 2
REMARK VINA RESULT:      -6.2      8.624     10.020
REMARK  4 active torsions:
REMARK  status: ('A' for Active; 'I' for Inactive)
REMARK    1  A    between atoms: C_5  and  N_11 
REMARK       I    between atoms: N_11  and  C_12 
REMARK       I    between atoms: C_12  and  N_14 
REMARK    2  A    between atoms: N_14  and  C_15 
REMARK    3  A    between atoms: C_18  and  O_23 
REMARK    4  A    between atoms: C_20  and  O_21 
ROOT
HETATM    1  C   UNK N   1      25.185  19.914   3.787  0.00  0.00     0.129 C 
HETATM    2  N   UNK N   1      25.062  18.647   4.220  0.00  0.00    -0.353 N 
ATOM      3  HN  UNK N   1      24.150  18.270   4.477  1.00  0.00     0.166 HD
HETATM    4  C   UNK N   1      26.158  17.897   4.302  0.00  0.00     0.137 C 
HETATM    5  C   UNK N   1      27.411  18.428   3.895  0.00  0.00     0.124 C 
HETATM    6  N   UNK N   1      27.541  19.741   3.678  0.00  0.00    -0.348 N 
ATOM      7  HN  UNK N   1      28.464  20.154   3.552  1.00  0.00     0.167 HD
HETATM    8  C   UNK N   1      26.438  20.508   3.629  0.00  0.00     0.130 C 
HETATM    9  C   UNK N   1      24.080  20.504   3.155  0.00  0.00     0.119 C 
HETATM   10  N   UNK N   1      23.161  20.969   2.642  0.00  0.00    -0.190 NA
ENDROOT
BRANCH   5  11
HETATM   11  N   UNK N   1      28.301  17.579   3.233  0.00  0.00    -0.293 N 
HETATM   12  C   UNK N   1      29.175  17.009   4.023  0.00  0.00     0.326 C 
HETATM   13  O   UNK N   1      28.906  15.898   4.496  0.00  0.00    -0.247 OA
HETATM   14  N   UNK N   1      29.998  17.853   4.679  0.00  0.00    -0.306 N 
HETATM   15  H   UNK N   1      30.038  18.812   4.461  0.00  0.00     0.171 HD
HETATM   16  H   UNK N   1      28.273  17.423   2.262  0.00  0.00     0.172 HD
BRANCH  14  17
HETATM   17  C   UNK N   1      30.765  17.310   5.652  0.00  0.00     0.071 A 
HETATM   18  C   UNK N   1      30.162  17.294   6.879  0.00  0.00     0.059 A 
HETATM   19  C   UNK N   1      30.920  17.280   8.011  0.00  0.00     0.069 A 
HETATM   20 Cl   UNK N   1      29.992  17.316   9.491  0.00  0.00    -0.081 Cl
HETATM   21  C   UNK N   1      32.347  17.314   7.878  0.00  0.00     0.092 A 
HETATM   22  C   UNK N   1      32.917  17.293   6.639  0.00  0.00     0.077 A 
HETATM   23  C   UNK N   1      32.170  17.270   5.504  0.00  0.00     0.097 A 
BRANCH  21  24
HETATM   24  O   UNK N   1      33.239  17.335   8.871  0.00  0.00    -0.354 OA
HETATM   25  C   UNK N   1      34.584  17.402   8.719  0.00  0.00     0.210 C 
ENDBRANCH  21  24
BRANCH  23  26
HETATM   26  O   UNK N   1      32.806  17.302   4.306  0.00  0.00    -0.354 OA
HETATM   27  C   UNK N   1      33.264  16.142   3.694  0.00  0.00     0.210 C 
ENDBRANCH  23  26
ENDBRANCH  14  17
ENDBRANCH   5  11
TORSDOF 4
ENDMDL
MODEL 3
REMARK VINA RESULT:      -6.2     14.576     15.694
REMARK  4 active torsions:
REMARK  status: ('A' for Active; 'I' for Inactive)
REMARK    1  A    between atoms: C_5  and  N_11 
REMARK       I    between atoms: N_11  and  C_12 
REMARK       I    between atoms: C_12  and  N_14 
REMARK    2  A    between atoms: N_14  and  C_15 
REMARK    3  A    between atoms: C_18  and  O_23 
REMARK    4  A    between atoms: C_20  and  O_21 
ROOT
HETATM    1  C   UNK N   1      33.335  16.654   6.917  0.00  0.00     0.129 C 
HETATM    2  N   UNK N   1      34.427  15.906   7.152  0.00  0.00    -0.353 N 
ATOM      3  HN  UNK N   1      34.914  15.439   6.388  1.00  0.00     0.166 HD
HETATM    4  C   UNK N   1      34.859  15.793   8.406  0.00  0.00     0.137 C 
HETATM    5  C   UNK N   1      34.193  16.490   9.450  0.00  0.00     0.124 C 
HETATM    6  N   UNK N   1      32.997  17.044   9.225  0.00  0.00    -0.348 N 
ATOM      7  HN  UNK N   1      32.437  17.396  10.001  1.00  0.00     0.167 HD
HETATM    8  C   UNK N   1      32.542  17.129   7.962  0.00  0.00     0.130 C 
HETATM    9  C   UNK N   1      33.207  17.254   5.655  0.00  0.00     0.119 C 
HETATM   10  N   UNK N   1      33.121  17.734   4.613  0.00  0.00    -0.190 NA
ENDROOT
BRANCH   5  11
HETATM   11  N   UNK N   1      34.968  17.036  10.474  0.00  0.00    -0.293 N 
HETATM   12  C   UNK N   1      35.741  16.166  11.074  0.00  0.00     0.326 C 
HETATM   13  O   UNK N   1      36.896  16.018  10.659  0.00  0.00    -0.247 OA
HETATM   14  N   UNK N   1      35.099  15.152  11.691  0.00  0.00    -0.306 N 
HETATM   15  H   UNK N   1      34.122  15.154  11.811  0.00  0.00     0.171 HD
HETATM   16  H   UNK N   1      34.938  17.987  10.723  0.00  0.00     0.172 HD
BRANCH  14  17
HETATM   17  C   UNK N   1      35.871  14.134  12.137  0.00  0.00     0.071 A 
HETATM   18  C   UNK N   1      35.716  12.978  11.424  0.00  0.00     0.059 A 
HETATM   19  C   UNK N   1      35.985  11.777  12.008  0.00  0.00     0.069 A 
HETATM   20 Cl   UNK N   1      35.683  10.399  10.976  0.00  0.00    -0.081 Cl
HETATM   21  C   UNK N   1      36.399  11.761  13.379  0.00  0.00     0.092 A 
HETATM   22  C   UNK N   1      36.578  12.935  14.051  0.00  0.00     0.077 A 
HETATM   23  C   UNK N   1      36.348  14.140  13.467  0.00  0.00     0.097 A 
BRANCH  21  24
HETATM   24  O   UNK N   1      36.675  10.683  14.116  0.00  0.00    -0.354 OA
HETATM   25  C   UNK N   1      36.877  10.675  15.456  0.00  0.00     0.210 C 
ENDBRANCH  21  24
BRANCH  23  26
HETATM   26  O   UNK N   1      36.499  15.264  14.213  0.00  0.00    -0.354 OA
HETATM   27  C   UNK N   1      37.247  15.265  15.383  0.00  0.00     0.210 C 
ENDBRANCH  23  26
ENDBRANCH  14  17
ENDBRANCH   5  11
TORSDOF 4
ENDMDL
MODEL 4
REMARK VINA RESULT:      -6.1     12.031     13.957
REMARK  4 active torsions:
REMARK  status: ('A' for Active; 'I' for Inactive)
REMARK    1  A    between atoms: C_5  and  N_11 
REMARK       I    between atoms: N_11  and  C_12 
REMARK       I    between atoms: C_12  and  N_14 
REMARK    2  A    between atoms: N_14  and  C_15 
REMARK    3  A    between atoms: C_18  and  O_23 
REMARK    4  A    between atoms: C_20  and  O_21 
ROOT
HETATM    1  C   UNK N   1      35.033  15.137  11.476  0.00  0.00     0.129 C 
HETATM    2  N   UNK N   1      35.099  16.444  11.167  0.00  0.00    -0.353 N 
ATOM      3  HN  UNK N   1      35.342  17.136  11.875  1.00  0.00     0.166 HD
HETATM    4  C   UNK N   1      34.839  16.811   9.914  0.00  0.00     0.137 C 
HETATM    5  C   UNK N   1      34.547  15.826   8.933  0.00  0.00     0.124 C 
HETATM    6  N   UNK N   1      34.277  14.571   9.308  0.00  0.00    -0.348 N 
ATOM      7  HN  UNK N   1      33.903  13.902   8.637  1.00  0.00     0.167 HD
HETATM    8  C   UNK N   1      34.505  14.206  10.581  0.00  0.00     0.130 C 
HETATM    9  C   UNK N   1      35.824  14.671  12.538  0.00  0.00     0.119 C 
HETATM   10  N   UNK N   1      36.477  14.312  13.413  0.00  0.00    -0.190 NA
ENDROOT
BRANCH   5  11
HETATM   11  N   UNK N   1      35.044  16.016   7.643  0.00  0.00    -0.293 N 
HETATM   12  C   UNK N   1      34.237  16.684   6.857  0.00  0.00     0.326 C 
HETATM   13  O   UNK N   1      34.367  17.911   6.786  0.00  0.00    -0.247 OA
HETATM   14  N   UNK N   1      33.039  16.106   6.635  0.00  0.00    -0.306 N 
HETATM   15  H   UNK N   1      32.848  15.183   6.917  0.00  0.00     0.171 HD
HETATM   16  H   UNK N   1      35.921  15.679   7.350  0.00  0.00     0.172 HD
BRANCH  14  17
HETATM   17  C   UNK N   1      32.114  16.865   6.003  0.00  0.00     0.071 A 
HETATM   18  C   UNK N   1      31.000  17.110   6.756  0.00  0.00     0.059 A 
HETATM   19  C   UNK N   1      29.812  17.383   6.148  0.00  0.00     0.069 A 
HETATM   20 Cl   UNK N   1      28.482  17.619   7.255  0.00  0.00    -0.081 Cl
HETATM   21  C   UNK N   1      29.760  17.375   4.716  0.00  0.00     0.092 A 
HETATM   22  C   UNK N   1      30.898  17.161   3.993  0.00  0.00     0.077 A 
HETATM   23  C   UNK N   1      32.095  16.924   4.591  0.00  0.00     0.097 A 
BRANCH  21  24
HETATM   24  O   UNK N   1      28.684  17.590   3.957  0.00  0.00    -0.354 OA
HETATM   25  C   UNK N   1      27.683  16.702   3.739  0.00  0.00     0.210 C 
ENDBRANCH  21  24
BRANCH  23  26
HETATM   26  O   UNK N   1      33.174  16.670   3.807  0.00  0.00    -0.354 OA
HETATM   27  C   UNK N   1      33.202  15.588   2.937  0.00  0.00     0.210 C 
ENDBRANCH  23  26
ENDBRANCH  14  17
ENDBRANCH   5  11
TORSDOF 4
ENDMDL
MODEL 5
REMARK VINA RESULT:      -6.0      7.006      8.188
REMARK  4 active torsions:
REMARK  status: ('A' for Active; 'I' for Inactive)
REMARK    1  A    between atoms: C_5  and  N_11 
REMARK       I    between atoms: N_11  and  C_12 
REMARK       I    between atoms: C_12  and  N_14 
REMARK    2  A    between atoms: N_14  and  C_15 
REMARK    3  A    between atoms: C_18  and  O_23 
REMARK    4  A    between atoms: C_20  and  O_21 
ROOT
HETATM    1  C   UNK N   1      22.994  19.482   3.444  0.00  0.00     0.129 C 
HETATM    2  N   UNK N   1      24.002  20.296   3.084  0.00  0.00    -0.353 N 
ATOM      3  HN  UNK N   1      23.917  20.901   2.268  1.00  0.00     0.166 HD
HETATM    4  C   UNK N   1      25.110  20.293   3.820  0.00  0.00     0.137 C 
HETATM    5  C   UNK N   1      25.189  19.476   4.979  0.00  0.00     0.124 C 
HETATM    6  N   UNK N   1      24.271  18.527   5.191  0.00  0.00    -0.348 N 
ATOM      7  HN  UNK N   1      24.408  17.829   5.921  1.00  0.00     0.167 HD
HETATM    8  C   UNK N   1      23.165  18.505   4.426  0.00  0.00     0.130 C 
HETATM    9  C   UNK N   1      21.687  19.858   3.096  0.00  0.00     0.119 C 
HETATM   10  N   UNK N   1      20.625  20.184   2.797  0.00  0.00    -0.190 NA
ENDROOT
BRANCH   5  11
HETATM   11  N   UNK N   1      25.852  19.984   6.097  0.00  0.00    -0.293 N 
HETATM   12  C   UNK N   1      27.127  19.687   6.138  0.00  0.00     0.326 C 
HETATM   13  O   UNK N   1      27.933  20.484   5.645  0.00  0.00    -0.247 OA
HETATM   14  N   UNK N   1      27.411  18.369   6.193  0.00  0.00    -0.306 N 
HETATM   15  H   UNK N   1      26.712  17.694   6.348  0.00  0.00     0.171 HD
HETATM   16  H   UNK N   1      25.404  20.518   6.793  0.00  0.00     0.172 HD
BRANCH  14  17
HETATM   17  C   UNK N   1      28.709  18.027   6.026  0.00  0.00     0.071 A 
HETATM   18  C   UNK N   1      29.008  17.622   4.755  0.00  0.00     0.059 A 
HETATM   19  C   UNK N   1      30.061  16.787   4.536  0.00  0.00     0.069 A 
HETATM   20 Cl   UNK N   1      30.270  16.327   2.863  0.00  0.00    -0.081 Cl
HETATM   21  C   UNK N   1      30.815  16.327   5.664  0.00  0.00     0.092 A 
HETATM   22  C   UNK N   1      30.512  16.778   6.916  0.00  0.00     0.077 A 
HETATM   23  C   UNK N   1      29.487  17.640   7.140  0.00  0.00     0.097 A 
BRANCH  21  24
HETATM   24  O   UNK N   1      31.854  15.489   5.641  0.00  0.00    -0.354 OA
HETATM   25  C   UNK N   1      32.697  15.252   6.675  0.00  0.00     0.210 C 
ENDBRANCH  21  24
BRANCH  23  26
HETATM   26  O   UNK N   1      29.213  18.006   8.419  0.00  0.00    -0.354 OA
HETATM   27  C   UNK N   1      30.144  18.682   9.197  0.00  0.00     0.210 C 
ENDBRANCH  23  26
ENDBRANCH  14  17
ENDBRANCH   5  11
TORSDOF 4
ENDMDL
MODEL 6
REMARK VINA RESULT:      -6.0     12.781     14.659
REMARK  4 active torsions:
REMARK  status: ('A' for Active; 'I' for Inactive)
REMARK    1  A    between atoms: C_5  and  N_11 
REMARK       I    between atoms: N_11  and  C_12 
REMARK       I    between atoms: C_12  and  N_14 
REMARK    2  A    between atoms: N_14  and  C_15 
REMARK    3  A    between atoms: C_18  and  O_23 
REMARK    4  A    between atoms: C_20  and  O_21 
ROOT
HETATM    1  C   UNK N   1      36.184  13.667  11.646  0.00  0.00     0.129 C 
HETATM    2  N   UNK N   1      35.752  13.130  10.492  0.00  0.00    -0.353 N 
ATOM      3  HN  UNK N   1      36.205  12.307  10.097  1.00  0.00     0.166 HD
HETATM    4  C   UNK N   1      34.717  13.699   9.878  0.00  0.00     0.137 C 
HETATM    5  C   UNK N   1      34.071  14.818  10.469  0.00  0.00     0.124 C 
HETATM    6  N   UNK N   1      34.647  15.458  11.492  0.00  0.00    -0.348 N 
ATOM      7  HN  UNK N   1      34.282  16.354  11.811  1.00  0.00     0.167 HD
HETATM    8  C   UNK N   1      35.715  14.903  12.092  0.00  0.00     0.130 C 
HETATM    9  C   UNK N   1      36.822  12.822  12.567  0.00  0.00     0.119 C 
HETATM   10  N   UNK N   1      37.345  12.112  13.305  0.00  0.00    -0.190 NA
ENDROOT
BRANCH   5  11
HETATM   11  N   UNK N   1      32.682  14.909  10.358  0.00  0.00    -0.293 N 
HETATM   12  C   UNK N   1      32.273  15.410   9.220  0.00  0.00     0.326 C 
HETATM   13  O   UNK N   1      32.016  14.634   8.293  0.00  0.00    -0.247 OA
HETATM   14  N   UNK N   1      32.678  16.672   8.966  0.00  0.00    -0.306 N 
HETATM   15  H   UNK N   1      33.116  17.224   9.653  0.00  0.00     0.171 HD
HETATM   16  H   UNK N   1      32.066  14.623  11.070  0.00  0.00     0.172 HD
BRANCH  14  17
HETATM   17  C   UNK N   1      32.448  17.137   7.716  0.00  0.00     0.071 A 
HETATM   18  C   UNK N   1      31.129  17.388   7.461  0.00  0.00     0.059 A 
HETATM   19  C   UNK N   1      30.664  17.353   6.181  0.00  0.00     0.069 A 
HETATM   20 Cl   UNK N   1      28.947  17.644   6.038  0.00  0.00    -0.081 Cl
HETATM   21  C   UNK N   1      31.579  17.019   5.130  0.00  0.00     0.092 A 
HETATM   22  C   UNK N   1      32.897  16.808   5.416  0.00  0.00     0.077 A 
HETATM   23  C   UNK N   1      33.378  16.877   6.684  0.00  0.00     0.097 A 
BRANCH  21  24
HETATM   24  O   UNK N   1      31.295  16.910   3.831  0.00  0.00    -0.354 OA
HETATM   25  C   UNK N   1      32.198  16.964   2.821  0.00  0.00     0.210 C 
ENDBRANCH  21  24
BRANCH  23  26
HETATM   26  O   UNK N   1      34.691  16.605   6.898  0.00  0.00    -0.354 OA
HETATM   27  C   UNK N   1      35.235  15.364   6.596  0.00  0.00     0.210 C 
ENDBRANCH  23  26
ENDBRANCH  14  17
ENDBRANCH   5  11
TORSDOF 4
ENDMDL
MODEL 7
REMARK VINA RESULT:      -5.9     14.241     15.294
REMARK  4 active torsions:
REMARK  status: ('A' for Active; 'I' for Inactive)
REMARK    1  A    between atoms: C_5  and  N_11 
REMARK       I    between atoms: N_11  and  C_12 
REMARK       I    between atoms: C_12  and  N_14 
REMARK    2  A    between atoms: N_14  and  C_15 
REMARK    3  A    between atoms: C_18  and  O_23 
REMARK    4  A    between atoms: C_20  and  O_21 
ROOT
HETATM    1  C   UNK N   1      33.078  15.588   7.182  0.00  0.00     0.129 C 
HETATM    2  N   UNK N   1      32.349  16.509   7.835  0.00  0.00    -0.353 N 
ATOM      3  HN  UNK N   1      31.339  16.563   7.706  1.00  0.00     0.166 HD
HETATM    4  C   UNK N   1      32.977  17.348   8.656  0.00  0.00     0.137 C 
HETATM    5  C   UNK N   1      34.378  17.226   8.856  0.00  0.00     0.124 C 
HETATM    6  N   UNK N   1      35.104  16.454   8.040  0.00  0.00    -0.348 N 
ATOM      7  HN  UNK N   1      36.123  16.490   8.066  1.00  0.00     0.167 HD
HETATM    8  C   UNK N   1      34.473  15.631   7.185  0.00  0.00     0.130 C 
HETATM    9  C   UNK N   1      32.446  14.392   6.809  0.00  0.00     0.119 C 
HETATM   10  N   UNK N   1      31.908  13.420   6.510  0.00  0.00    -0.190 NA
ENDROOT
BRANCH   5  11
HETATM   11  N   UNK N   1      34.881  17.451  10.139  0.00  0.00    -0.293 N 
HETATM   12  C   UNK N   1      35.334  16.373  10.727  0.00  0.00     0.326 C 
HETATM   13  O   UNK N   1      36.534  16.099  10.609  0.00  0.00    -0.247 OA
HETATM   14  N   UNK N   1      34.424  15.398  10.928  0.00  0.00    -0.306 N 
HETATM   15  H   UNK N   1      33.462  15.549  10.784  0.00  0.00     0.171 HD
HETATM   16  H   UNK N   1      34.893  18.339  10.563  0.00  0.00     0.172 HD
BRANCH  14  17
HETATM   17  C   UNK N   1      34.905  14.203  11.339  0.00  0.00     0.071 A 
HETATM   18  C   UNK N   1      35.342  14.206  12.635  0.00  0.00     0.059 A 
HETATM   19  C   UNK N   1      36.287  13.311  13.037  0.00  0.00     0.069 A 
HETATM   20 Cl   UNK N   1      36.771  13.487  14.707  0.00  0.00    -0.081 Cl
HETATM   21  C   UNK N   1      36.823  12.401  12.068  0.00  0.00     0.092 A 
HETATM   22  C   UNK N   1      36.339  12.401  10.792  0.00  0.00     0.077 A 
HETATM   23  C   UNK N   1      35.371  13.265  10.391  0.00  0.00     0.097 A 
BRANCH  21  24
HETATM   24  O   UNK N   1      37.768  11.482  12.276  0.00  0.00    -0.354 OA
HETATM   25  C   UNK N   1      37.719  10.194  11.859  0.00  0.00     0.210 C 
ENDBRANCH  21  24
BRANCH  23  26
HETATM   26  O   UNK N   1      34.975  13.240   9.092  0.00  0.00    -0.354 OA
HETATM   27  C   UNK N   1      35.410  12.252   8.218  0.00  0.00     0.210 C 
ENDBRANCH  23  26
ENDBRANCH  14  17
ENDBRANCH   5  11
TORSDOF 4
ENDMDL
MODEL 8
REMARK VINA RESULT:      -5.9     13.626     14.640
REMARK  4 active torsions:
REMARK  status: ('A' for Active; 'I' for Inactive)
REMARK    1  A    between atoms: C_5  and  N_11 
REMARK       I    between atoms: N_11  and  C_12 
REMARK       I    between atoms: C_12  and  N_14 
REMARK    2  A    between atoms: N_14  and  C_15 
REMARK    3  A    between atoms: C_18  and  O_23 
REMARK    4  A    between atoms: C_20  and  O_21 
ROOT
HETATM    1  C   UNK N   1      32.827  15.779   7.067  0.00  0.00     0.129 C 
HETATM    2  N   UNK N   1      32.167  16.668   7.829  0.00  0.00    -0.353 N 
ATOM      3  HN  UNK N   1      31.164  16.809   7.716  1.00  0.00     0.166 HD
HETATM    4  C   UNK N   1      32.855  17.359   8.734  0.00  0.00     0.137 C 
HETATM    5  C   UNK N   1      34.244  17.115   8.906  0.00  0.00     0.124 C 
HETATM    6  N   UNK N   1      34.912  16.392   8.001  0.00  0.00    -0.348 N 
ATOM      7  HN  UNK N   1      35.930  16.353   8.021  1.00  0.00     0.167 HD
HETATM    8  C   UNK N   1      34.221  15.721   7.063  0.00  0.00     0.130 C 
HETATM    9  C   UNK N   1      32.110  14.681   6.566  0.00  0.00     0.119 C 
HETATM   10  N   UNK N   1      31.503  13.792   6.162  0.00  0.00    -0.190 NA
ENDROOT
BRANCH   5  11
HETATM   11  N   UNK N   1      34.763  17.155  10.201  0.00  0.00    -0.293 N 
HETATM   12  C   UNK N   1      35.272  16.018  10.603  0.00  0.00     0.326 C 
HETATM   13  O   UNK N   1      36.480  15.818  10.426  0.00  0.00    -0.247 OA
HETATM   14  N   UNK N   1      34.407  14.985  10.658  0.00  0.00    -0.306 N 
HETATM   15  H   UNK N   1      33.437  15.115  10.553  0.00  0.00     0.171 HD
HETATM   16  H   UNK N   1      34.747  17.964  10.762  0.00  0.00     0.172 HD
BRANCH  14  17
HETATM   17  C   UNK N   1      34.944  13.761  10.866  0.00  0.00     0.071 A 
HETATM   18  C   UNK N   1      34.865  12.937   9.778  0.00  0.00     0.059 A 
HETATM   19  C   UNK N   1      34.866  11.585   9.946  0.00  0.00     0.069 A 
HETATM   20 Cl   UNK N   1      34.705  10.682   8.458  0.00  0.00    -0.081 Cl
HETATM   21  C   UNK N   1      34.920  11.062  11.279  0.00  0.00     0.092 A 
HETATM   22  C   UNK N   1      35.035  11.911  12.341  0.00  0.00     0.077 A 
HETATM   23  C   UNK N   1      35.071  13.260  12.181  0.00  0.00     0.097 A 
BRANCH  21  24
HETATM   24  O   UNK N   1      34.902   9.774  11.630  0.00  0.00    -0.354 OA
HETATM   25  C   UNK N   1      35.915   8.893  11.445  0.00  0.00     0.210 C 
ENDBRANCH  21  24
BRANCH  23  26
HETATM   26  O   UNK N   1      35.135  14.044  13.288  0.00  0.00    -0.354 OA
HETATM   27  C   UNK N   1      36.344  14.325  13.911  0.00  0.00     0.210 C 
ENDBRANCH  23  26
ENDBRANCH  14  17
ENDBRANCH   5  11
TORSDOF 4
ENDMDL
MODEL 9
REMARK VINA RESULT:      -5.9     15.280     16.871
REMARK  4 active torsions:
REMARK  status: ('A' for Active; 'I' for Inactive)
REMARK    1  A    between atoms: C_5  and  N_11 
REMARK       I    between atoms: N_11  and  C_12 
REMARK       I    between atoms: C_12  and  N_14 
REMARK    2  A    between atoms: N_14  and  C_15 
REMARK    3  A    between atoms: C_18  and  O_23 
REMARK    4  A    between atoms: C_20  and  O_21 
ROOT
HETATM    1  C   UNK N   1      31.509  21.879  -3.604  0.00  0.00     0.129 C 
HETATM    2  N   UNK N   1      31.169  20.596  -3.814  0.00  0.00    -0.353 N 
ATOM      3  HN  UNK N   1      30.908  19.992  -3.035  1.00  0.00     0.166 HD
HETATM    4  C   UNK N   1      31.178  20.134  -5.062  0.00  0.00     0.137 C 
HETATM    5  C   UNK N   1      31.500  21.005  -6.137  0.00  0.00     0.124 C 
HETATM    6  N   UNK N   1      32.039  22.203  -5.886  0.00  0.00    -0.348 N 
ATOM      7  HN  UNK N   1      32.428  22.763  -6.644  1.00  0.00     0.167 HD
HETATM    8  C   UNK N   1      32.063  22.658  -4.621  0.00  0.00     0.130 C 
HETATM    9  C   UNK N   1      30.972  22.528  -2.482  0.00  0.00     0.119 C 
HETATM   10  N   UNK N   1      30.524  23.040  -1.555  0.00  0.00    -0.190 NA
ENDROOT
BRANCH   5  11
HETATM   11  N   UNK N   1      30.800  20.857  -7.335  0.00  0.00    -0.293 N 
HETATM   12  C   UNK N   1      29.910  21.794  -7.548  0.00  0.00     0.326 C 
HETATM   13  O   UNK N   1      30.250  22.792  -8.195  0.00  0.00    -0.247 OA
HETATM   14  N   UNK N   1      28.924  21.873  -6.631  0.00  0.00    -0.306 N 
HETATM   15  H   UNK N   1      28.799  21.181  -5.944  0.00  0.00     0.171 HD
HETATM   16  H   UNK N   1      30.959  20.116  -7.963  0.00  0.00     0.172 HD
BRANCH  14  17
HETATM   17  C   UNK N   1      28.116  22.955  -6.710  0.00  0.00     0.071 A 
HETATM   18  C   UNK N   1      28.358  23.889  -5.742  0.00  0.00     0.059 A 
HETATM   19  C   UNK N   1      27.367  24.740  -5.353  0.00  0.00     0.069 A 
HETATM   20 Cl   UNK N   1      27.829  25.833  -4.070  0.00  0.00    -0.081 Cl
HETATM   21  C   UNK N   1      26.075  24.606  -5.958  0.00  0.00     0.092 A 
HETATM   22  C   UNK N   1      25.877  23.687  -6.947  0.00  0.00     0.077 A 
HETATM   23  C   UNK N   1      26.869  22.859  -7.367  0.00  0.00     0.097 A 
BRANCH  21  24
HETATM   24  O   UNK N   1      24.987  25.328  -5.681  0.00  0.00    -0.354 OA
HETATM   25  C   UNK N   1      24.905  26.680  -5.736  0.00  0.00     0.210 C 
ENDBRANCH  21  24
BRANCH  23  26
HETATM   26  O   UNK N   1      26.584  21.934  -8.320  0.00  0.00    -0.354 OA
HETATM   27  C   UNK N   1      25.590  20.982  -8.135  0.00  0.00     0.210 C 
ENDBRANCH  23  26
ENDBRANCH  14  17
ENDBRANCH   5  11
TORSDOF 4
ENDMDL
