MODEL 1
REMARK VINA RESULT:      -7.5      0.000      0.000
REMARK  6 active torsions:
REMARK  status: ('A' for Active; 'I' for Inactive)
REMARK    1  A    between atoms: N_2  and  C_1 
REMARK       I    between atoms: C_3  and  N_2 
REMARK    2  A    between atoms: C_4  and  C_3 
REMARK    3  A    between atoms: C_17  and  C_20 
REMARK    4  A    between atoms: C_20  and  C_21 
REMARK    5  A    between atoms: C_20  and  O_22 
REMARK    6  A    between atoms: O_23  and  C_21 
ROOT
HETATM    1  N   UNK N   1      25.108  18.772   5.383  0.00  0.00    -0.322 N 
HETATM    2  C   UNK N   1      26.217  18.065   5.017  0.00  0.00     0.272 C 
HETATM    3  O   UNK N   1      26.245  17.461   3.955  0.00  0.00    -0.266 OA
HETATM    4  H   UNK N   1      25.073  19.165   6.285  0.00  0.00     0.169 HD
ENDROOT
BRANCH   1   5
HETATM    5  C   UNK N   1      23.999  18.966   4.509  0.00  0.00     0.035 A 
HETATM    6  C   UNK N   1      24.011  20.012   3.577  0.00  0.00     0.030 A 
HETATM    7  C   UNK N   1      22.883  20.255   2.781  0.00  0.00     0.012 A 
HETATM    8  C   UNK N   1      21.742  19.439   2.898  0.00  0.00    -0.028 A 
HETATM    9  C   UNK N   1      21.761  18.363   3.791  0.00  0.00     0.012 A 
HETATM   10  C   UNK N   1      22.872  18.135   4.591  0.00  0.00     0.030 A 
BRANCH   8  11
HETATM   11  C   UNK N   1      20.486  19.702   2.114  0.00  0.00     0.174 C 
BRANCH  11  12
HETATM   12  C   UNK N   1      20.692  20.946   1.251  0.00  0.00     0.200 C 
BRANCH  12  13
HETATM   13  O   UNK N   1      20.627  20.622  -0.104  0.00  0.00    -0.398 OA
HETATM   14  H   UNK N   1      20.073  19.887  -0.406  0.00  0.00     0.209 HD
ENDBRANCH  12  13
ENDBRANCH  11  12
BRANCH  11  15
HETATM   15  O   UNK N   1      20.162  18.618   1.295  0.00  0.00    -0.389 OA
HETATM   16  H   UNK N   1      20.467  18.403   0.399  0.00  0.00     0.210 HD
ENDBRANCH  11  15
ENDBRANCH   8  11
ENDBRANCH   1   5
BRANCH   2  17
HETATM   17  C   UNK N   1      27.387  17.989   5.899  0.00  0.00     0.102 A 
HETATM   18  N   UNK N   1      27.475  18.567   7.122  0.00  0.00    -0.351 N 
HETATM   19  C   UNK N   1      28.717  18.283   7.551  0.00  0.00     0.043 A 
HETATM   20  H   UNK N   1      26.781  19.082   7.592  0.00  0.00     0.166 HD
HETATM   21  C   UNK N   1      29.397  17.542   6.626  0.00  0.00    -0.005 A 
HETATM   22  C   UNK N   1      29.303  18.667   8.754  0.00  0.00     0.032 A 
HETATM   23  C   UNK N   1      28.570  17.338   5.555  0.00  0.00     0.049 A 
HETATM   24  C   UNK N   1      30.708  17.125   6.829  0.00  0.00     0.037 A 
HETATM   25  C   UNK N   1      31.330  17.494   8.033  0.00  0.00     0.035 A 
HETATM   26  C   UNK N   1      30.631  18.263   8.993  0.00  0.00     0.026 A 
HETATM   27 Cl   UNK N   1      32.982  17.001   8.337  0.00  0.00    -0.084 Cl
ENDBRANCH   2  17
TORSDOF 6
ENDMDL
MODEL 2
REMARK VINA RESULT:      -7.5      2.107      2.908
REMARK  6 active torsions:
REMARK  status: ('A' for Active; 'I' for Inactive)
REMARK    1  A    between atoms: N_2  and  C_1 
REMARK       I    between atoms: C_3  and  N_2 
REMARK    2  A    between atoms: C_4  and  C_3 
REMARK    3  A    between atoms: C_17  and  C_20 
REMARK    4  A    between atoms: C_20  and  C_21 
REMARK    5  A    between atoms: C_20  and  O_22 
REMARK    6  A    between atoms: O_23  and  C_21 
ROOT
HETATM    1  N   UNK N   1      27.431  18.905   4.749  0.00  0.00    -0.322 N 
HETATM    2  C   UNK N   1      28.217  17.889   4.290  0.00  0.00     0.272 C 
HETATM    3  O   UNK N   1      27.808  17.131   3.423  0.00  0.00    -0.266 OA
HETATM    4  H   UNK N   1      27.744  19.437   5.516  0.00  0.00     0.169 HD
ENDROOT
BRANCH   1   5
HETATM    5  C   UNK N   1      26.172  19.226   4.163  0.00  0.00     0.035 A 
HETATM    6  C   UNK N   1      26.091  20.203   3.162  0.00  0.00     0.030 A 
HETATM    7  C   UNK N   1      24.841  20.581   2.649  0.00  0.00     0.012 A 
HETATM    8  C   UNK N   1      23.666  19.967   3.123  0.00  0.00    -0.028 A 
HETATM    9  C   UNK N   1      23.763  18.954   4.082  0.00  0.00     0.012 A 
HETATM   10  C   UNK N   1      24.999  18.594   4.600  0.00  0.00     0.030 A 
BRANCH   8  11
HETATM   11  C   UNK N   1      22.301  20.387   2.651  0.00  0.00     0.174 C 
BRANCH  11  12
HETATM   12  C   UNK N   1      21.245  19.632   3.456  0.00  0.00     0.200 C 
BRANCH  12  13
HETATM   13  O   UNK N   1      20.323  20.517   4.014  0.00  0.00    -0.398 OA
HETATM   14  H   UNK N   1      19.374  20.323   3.980  0.00  0.00     0.209 HD
ENDBRANCH  12  13
ENDBRANCH  11  12
BRANCH  11  15
HETATM   15  O   UNK N   1      22.110  21.761   2.809  0.00  0.00    -0.389 OA
HETATM   16  H   UNK N   1      22.093  22.297   3.618  0.00  0.00     0.210 HD
ENDBRANCH  11  15
ENDBRANCH   8  11
ENDBRANCH   1   5
BRANCH   2  17
HETATM   17  C   UNK N   1      29.559  17.666   4.842  0.00  0.00     0.102 A 
HETATM   18  N   UNK N   1      30.714  17.773   4.141  0.00  0.00    -0.351 N 
HETATM   19  C   UNK N   1      31.682  17.446   5.014  0.00  0.00     0.043 A 
HETATM   20  H   UNK N   1      30.819  18.034   3.198  0.00  0.00     0.166 HD
HETATM   21  C   UNK N   1      31.154  17.141   6.238  0.00  0.00    -0.005 A 
HETATM   22  C   UNK N   1      33.052  17.390   4.775  0.00  0.00     0.032 A 
HETATM   23  C   UNK N   1      29.794  17.273   6.158  0.00  0.00     0.049 A 
HETATM   24  C   UNK N   1      31.949  16.763   7.314  0.00  0.00     0.037 A 
HETATM   25  C   UNK N   1      33.336  16.697   7.109  0.00  0.00     0.035 A 
HETATM   26  C   UNK N   1      33.887  17.008   5.843  0.00  0.00     0.026 A 
HETATM   27 Cl   UNK N   1      34.383  16.219   8.427  0.00  0.00    -0.084 Cl
ENDBRANCH   2  17
TORSDOF 6
ENDMDL
MODEL 3
REMARK VINA RESULT:      -7.3      4.121      9.446
REMARK  6 active torsions:
REMARK  status: ('A' for Active; 'I' for Inactive)
REMARK    1  A    between atoms: N_2  and  C_1 
REMARK       I    between atoms: C_3  and  N_2 
REMARK    2  A    between atoms: C_4  and  C_3 
REMARK    3  A    between atoms: C_17  and  C_20 
REMARK    4  A    between atoms: C_20  and  C_21 
REMARK    5  A    between atoms: C_20  and  O_22 
REMARK    6  A    between atoms: O_23  and  C_21 
ROOT
HETATM    1  N   UNK N   1      27.338  17.978   6.469  0.00  0.00    -0.322 N 
HETATM    2  C   UNK N   1      27.108  18.861   5.454  0.00  0.00     0.272 C 
HETATM    3  O   UNK N   1      28.023  19.523   4.987  0.00  0.00    -0.266 OA
HETATM    4  H   UNK N   1      26.569  17.533   6.893  0.00  0.00     0.169 HD
ENDROOT
BRANCH   1   5
HETATM    5  C   UNK N   1      28.649  17.674   6.938  0.00  0.00     0.035 A 
HETATM    6  C   UNK N   1      29.143  18.290   8.095  0.00  0.00     0.030 A 
HETATM    7  C   UNK N   1      30.465  18.058   8.504  0.00  0.00     0.012 A 
HETATM    8  C   UNK N   1      31.293  17.190   7.767  0.00  0.00    -0.028 A 
HETATM    9  C   UNK N   1      30.773  16.538   6.646  0.00  0.00     0.012 A 
HETATM   10  C   UNK N   1      29.471  16.782   6.233  0.00  0.00     0.030 A 
BRANCH   8  11
HETATM   11  C   UNK N   1      32.735  16.963   8.129  0.00  0.00     0.174 C 
BRANCH  11  12
HETATM   12  C   UNK N   1      33.508  18.265   7.927  0.00  0.00     0.200 C 
BRANCH  12  13
HETATM   13  O   UNK N   1      34.589  18.068   7.067  0.00  0.00    -0.398 OA
HETATM   14  H   UNK N   1      34.538  18.356   6.143  0.00  0.00     0.209 HD
ENDBRANCH  12  13
ENDBRANCH  11  12
BRANCH  11  15
HETATM   15  O   UNK N   1      32.865  16.548   9.457  0.00  0.00    -0.389 OA
HETATM   16  H   UNK N   1      33.575  16.722  10.095  0.00  0.00     0.210 HD
ENDBRANCH  11  15
ENDBRANCH   8  11
ENDBRANCH   1   5
BRANCH   2  17
HETATM   17  C   UNK N   1      25.755  19.057   4.918  0.00  0.00     0.102 A 
HETATM   18  N   UNK N   1      24.667  18.332   5.276  0.00  0.00    -0.351 N 
HETATM   19  C   UNK N   1      23.666  18.814   4.520  0.00  0.00     0.043 A 
HETATM   20  H   UNK N   1      24.622  17.610   5.943  0.00  0.00     0.166 HD
HETATM   21  C   UNK N   1      24.107  19.820   3.706  0.00  0.00    -0.005 A 
HETATM   22  C   UNK N   1      22.340  18.389   4.503  0.00  0.00     0.032 A 
HETATM   23  C   UNK N   1      25.443  19.999   3.939  0.00  0.00     0.049 A 
HETATM   24  C   UNK N   1      23.263  20.480   2.820  0.00  0.00     0.037 A 
HETATM   25  C   UNK N   1      21.918  20.078   2.778  0.00  0.00     0.035 A 
HETATM   26  C   UNK N   1      21.457  19.034   3.616  0.00  0.00     0.026 A 
HETATM   27 Cl   UNK N   1      20.814  20.870   1.675  0.00  0.00    -0.084 Cl
ENDBRANCH   2  17
TORSDOF 6
ENDMDL
MODEL 4
REMARK VINA RESULT:      -6.7     12.646     17.334
REMARK  6 active torsions:
REMARK  status: ('A' for Active; 'I' for Inactive)
REMARK    1  A    between atoms: N_2  and  C_1 
REMARK       I    between atoms: C_3  and  N_2 
REMARK    2  A    between atoms: C_4  and  C_3 
REMARK    3  A    between atoms: C_17  and  C_20 
REMARK    4  A    between atoms: C_20  and  C_21 
REMARK    5  A    between atoms: C_20  and  O_22 
REMARK    6  A    between atoms: O_23  and  C_21 
ROOT
HETATM    1  N   UNK N   1      35.081  12.969  15.519  0.00  0.00    -0.322 N 
HETATM    2  C   UNK N   1      36.079  13.436  14.713  0.00  0.00     0.272 C 
HETATM    3  O   UNK N   1      37.243  13.404  15.084  0.00  0.00    -0.266 OA
HETATM    4  H   UNK N   1      34.146  13.099  15.239  0.00  0.00     0.169 HD
ENDROOT
BRANCH   1   5
HETATM    5  C   UNK N   1      35.340  12.300  16.750  0.00  0.00     0.035 A 
HETATM    6  C   UNK N   1      35.706  10.948  16.753  0.00  0.00     0.030 A 
HETATM    7  C   UNK N   1      35.873  10.269  17.969  0.00  0.00     0.012 A 
HETATM    8  C   UNK N   1      35.694  10.946  19.190  0.00  0.00    -0.028 A 
HETATM    9  C   UNK N   1      35.383  12.309  19.176  0.00  0.00     0.012 A 
HETATM   10  C   UNK N   1      35.201  12.975  17.972  0.00  0.00     0.030 A 
BRANCH   8  11
HETATM   11  C   UNK N   1      35.796  10.243  20.516  0.00  0.00     0.174 C 
BRANCH  11  12
HETATM   12  C   UNK N   1      37.231  10.355  21.027  0.00  0.00     0.200 C 
BRANCH  12  13
HETATM   13  O   UNK N   1      37.250  10.762  22.361  0.00  0.00    -0.398 OA
HETATM   14  H   UNK N   1      37.852  11.465  22.651  0.00  0.00     0.209 HD
ENDBRANCH  12  13
ENDBRANCH  11  12
BRANCH  11  15
HETATM   15  O   UNK N   1      34.924  10.801  21.455  0.00  0.00    -0.389 OA
HETATM   16  H   UNK N   1      34.757  10.545  22.376  0.00  0.00     0.210 HD
ENDBRANCH  11  15
ENDBRANCH   8  11
ENDBRANCH   1   5
BRANCH   2  17
HETATM   17  C   UNK N   1      35.777  14.012  13.397  0.00  0.00     0.102 A 
HETATM   18  N   UNK N   1      36.175  15.238  12.978  0.00  0.00    -0.351 N 
HETATM   19  C   UNK N   1      35.649  15.372  11.748  0.00  0.00     0.043 A 
HETATM   20  H   UNK N   1      36.729  15.888  13.468  0.00  0.00     0.166 HD
HETATM   21  C   UNK N   1      34.938  14.258  11.396  0.00  0.00    -0.005 A 
HETATM   22  C   UNK N   1      35.760  16.468  10.897  0.00  0.00     0.032 A 
HETATM   23  C   UNK N   1      35.001  13.369  12.434  0.00  0.00     0.049 A 
HETATM   24  C   UNK N   1      34.289  14.151  10.172  0.00  0.00     0.037 A 
HETATM   25  C   UNK N   1      34.380  15.237   9.287  0.00  0.00     0.035 A 
HETATM   26  C   UNK N   1      35.113  16.393   9.648  0.00  0.00     0.026 A 
HETATM   27 Cl   UNK N   1      33.576  15.158   7.735  0.00  0.00    -0.084 Cl
ENDBRANCH   2  17
TORSDOF 6
ENDMDL
MODEL 5
REMARK VINA RESULT:      -6.5      5.033      7.641
REMARK  6 active torsions:
REMARK  status: ('A' for Active; 'I' for Inactive)
REMARK    1  A    between atoms: N_2  and  C_1 
REMARK       I    between atoms: C_3  and  N_2 
REMARK    2  A    between atoms: C_4  and  C_3 
REMARK    3  A    between atoms: C_17  and  C_20 
REMARK    4  A    between atoms: C_20  and  C_21 
REMARK    5  A    between atoms: C_20  and  O_22 
REMARK    6  A    between atoms: O_23  and  C_21 
ROOT
HETATM    1  N   UNK N   1      31.236  16.363   8.352  0.00  0.00    -0.322 N 
HETATM    2  C   UNK N   1      32.507  16.844   8.482  0.00  0.00     0.272 C 
HETATM    3  O   UNK N   1      32.806  17.937   8.025  0.00  0.00    -0.266 OA
HETATM    4  H   UNK N   1      31.048  15.440   8.638  0.00  0.00     0.169 HD
ENDROOT
BRANCH   1   5
HETATM    5  C   UNK N   1      30.171  17.145   7.818  0.00  0.00     0.035 A 
HETATM    6  C   UNK N   1      29.869  17.082   6.451  0.00  0.00     0.030 A 
HETATM    7  C   UNK N   1      28.879  17.918   5.913  0.00  0.00     0.012 A 
HETATM    8  C   UNK N   1      28.174  18.808   6.744  0.00  0.00    -0.028 A 
HETATM    9  C   UNK N   1      28.445  18.823   8.116  0.00  0.00     0.012 A 
HETATM   10  C   UNK N   1      29.435  18.007   8.644  0.00  0.00     0.030 A 
BRANCH   8  11
HETATM   11  C   UNK N   1      27.153  19.770   6.200  0.00  0.00     0.174 C 
BRANCH  11  12
HETATM   12  C   UNK N   1      27.040  20.962   7.148  0.00  0.00     0.200 C 
BRANCH  12  13
HETATM   13  O   UNK N   1      25.882  20.871   7.920  0.00  0.00    -0.398 OA
HETATM   14  H   UNK N   1      25.938  20.666   8.866  0.00  0.00     0.209 HD
ENDBRANCH  12  13
ENDBRANCH  11  12
BRANCH  11  15
HETATM   15  O   UNK N   1      27.509  20.221   4.927  0.00  0.00    -0.389 OA
HETATM   16  H   UNK N   1      27.009  20.192   4.096  0.00  0.00     0.210 HD
ENDBRANCH  11  15
ENDBRANCH   8  11
ENDBRANCH   1   5
BRANCH   2  17
HETATM   17  C   UNK N   1      33.549  16.052   9.146  0.00  0.00     0.102 A 
HETATM   18  N   UNK N   1      33.489  15.611  10.426  0.00  0.00    -0.351 N 
HETATM   19  C   UNK N   1      34.656  14.975  10.629  0.00  0.00     0.043 A 
HETATM   20  H   UNK N   1      32.752  15.732  11.067  0.00  0.00     0.166 HD
HETATM   21  C   UNK N   1      35.434  15.009   9.504  0.00  0.00    -0.005 A 
HETATM   22  C   UNK N   1      35.088  14.355  11.798  0.00  0.00     0.032 A 
HETATM   23  C   UNK N   1      34.750  15.694   8.537  0.00  0.00     0.049 A 
HETATM   24  C   UNK N   1      36.695  14.427   9.459  0.00  0.00     0.037 A 
HETATM   25  C   UNK N   1      37.163  13.791  10.620  0.00  0.00     0.035 A 
HETATM   26  C   UNK N   1      36.363  13.755  11.787  0.00  0.00     0.026 A 
HETATM   27 Cl   UNK N   1      38.746  13.047  10.619  0.00  0.00    -0.084 Cl
ENDBRANCH   2  17
TORSDOF 6
ENDMDL
MODEL 6
REMARK VINA RESULT:      -6.4     11.853     16.550
REMARK  6 active torsions:
REMARK  status: ('A' for Active; 'I' for Inactive)
REMARK    1  A    between atoms: N_2  and  C_1 
REMARK       I    between atoms: C_3  and  N_2 
REMARK    2  A    between atoms: C_4  and  C_3 
REMARK    3  A    between atoms: C_17  and  C_20 
REMARK    4  A    between atoms: C_20  and  C_21 
REMARK    5  A    between atoms: C_20  and  O_22 
REMARK    6  A    between atoms: O_23  and  C_21 
ROOT
HETATM    1  N   UNK N   1      34.605  12.862  14.748  0.00  0.00    -0.322 N 
HETATM    2  C   UNK N   1      35.540  13.145  13.796  0.00  0.00     0.272 C 
HETATM    3  O   UNK N   1      36.692  12.755  13.921  0.00  0.00    -0.266 OA
HETATM    4  H   UNK N   1      33.713  13.272  14.673  0.00  0.00     0.169 HD
ENDROOT
BRANCH   1   5
HETATM    5  C   UNK N   1      34.868  11.995  15.848  0.00  0.00     0.035 A 
HETATM    6  C   UNK N   1      34.681  10.613  15.716  0.00  0.00     0.030 A 
HETATM    7  C   UNK N   1      34.855   9.772  16.825  0.00  0.00     0.012 A 
HETATM    8  C   UNK N   1      35.237  10.308  18.069  0.00  0.00    -0.028 A 
HETATM    9  C   UNK N   1      35.476  11.681  18.176  0.00  0.00     0.012 A 
HETATM   10  C   UNK N   1      35.287  12.514  17.082  0.00  0.00     0.030 A 
BRANCH   8  11
HETATM   11  C   UNK N   1      35.370   9.454  19.300  0.00  0.00     0.174 C 
BRANCH  11  12
HETATM   12  C   UNK N   1      36.145  10.232  20.362  0.00  0.00     0.200 C 
BRANCH  12  13
HETATM   13  O   UNK N   1      35.372  10.404  21.510  0.00  0.00    -0.398 OA
HETATM   14  H   UNK N   1      35.720  10.147  22.378  0.00  0.00     0.209 HD
ENDBRANCH  12  13
ENDBRANCH  11  12
BRANCH  11  15
HETATM   15  O   UNK N   1      34.119   9.097  19.807  0.00  0.00    -0.389 OA
HETATM   16  H   UNK N   1      33.385   9.659  20.103  0.00  0.00     0.210 HD
ENDBRANCH  11  15
ENDBRANCH   8  11
ENDBRANCH   1   5
BRANCH   2  17
HETATM   17  C   UNK N   1      35.195  13.945  12.615  0.00  0.00     0.102 A 
HETATM   18  N   UNK N   1      34.433  13.513  11.581  0.00  0.00    -0.351 N 
HETATM   19  C   UNK N   1      34.411  14.539  10.713  0.00  0.00     0.043 A 
HETATM   20  H   UNK N   1      33.993  12.637  11.486  0.00  0.00     0.166 HD
HETATM   21  C   UNK N   1      35.137  15.596  11.187  0.00  0.00    -0.005 A 
HETATM   22  C   UNK N   1      33.769  14.588   9.479  0.00  0.00     0.032 A 
HETATM   23  C   UNK N   1      35.653  15.245  12.404  0.00  0.00     0.049 A 
HETATM   24  C   UNK N   1      35.276  16.779  10.471  0.00  0.00     0.037 A 
HETATM   25  C   UNK N   1      34.640  16.864   9.221  0.00  0.00     0.035 A 
HETATM   26  C   UNK N   1      33.890  15.772   8.725  0.00  0.00     0.026 A 
HETATM   27 Cl   UNK N   1      34.788  18.329   8.275  0.00  0.00    -0.084 Cl
ENDBRANCH   2  17
TORSDOF 6
ENDMDL
MODEL 7
REMARK VINA RESULT:      -6.3     13.481     16.987
REMARK  6 active torsions:
REMARK  status: ('A' for Active; 'I' for Inactive)
REMARK    1  A    between atoms: N_2  and  C_1 
REMARK       I    between atoms: C_3  and  N_2 
REMARK    2  A    between atoms: C_4  and  C_3 
REMARK    3  A    between atoms: C_17  and  C_20 
REMARK    4  A    between atoms: C_20  and  C_21 
REMARK    5  A    between atoms: C_20  and  O_22 
REMARK    6  A    between atoms: O_23  and  C_21 
ROOT
HETATM    1  N   UNK N   1      36.605  12.361  14.363  0.00  0.00    -0.322 N 
HETATM    2  C   UNK N   1      35.786  12.714  13.330  0.00  0.00     0.272 C 
HETATM    3  O   UNK N   1      34.579  12.804  13.498  0.00  0.00    -0.266 OA
HETATM    4  H   UNK N   1      37.558  12.198  14.177  0.00  0.00     0.169 HD
ENDROOT
BRANCH   1   5
HETATM    5  C   UNK N   1      36.135  12.220  15.701  0.00  0.00     0.035 A 
HETATM    6  C   UNK N   1      35.668  13.338  16.404  0.00  0.00     0.030 A 
HETATM    7  C   UNK N   1      35.290  13.213  17.749  0.00  0.00     0.012 A 
HETATM    8  C   UNK N   1      35.358  11.962  18.392  0.00  0.00    -0.028 A 
HETATM    9  C   UNK N   1      35.773  10.843  17.665  0.00  0.00     0.012 A 
HETATM   10  C   UNK N   1      36.163  10.971  16.340  0.00  0.00     0.030 A 
BRANCH   8  11
HETATM   11  C   UNK N   1      35.027  11.794  19.850  0.00  0.00     0.174 C 
BRANCH  11  12
HETATM   12  C   UNK N   1      36.069  10.881  20.493  0.00  0.00     0.200 C 
BRANCH  12  13
HETATM   13  O   UNK N   1      35.619  10.410  21.726  0.00  0.00    -0.398 OA
HETATM   14  H   UNK N   1      35.541   9.458  21.888  0.00  0.00     0.209 HD
ENDBRANCH  12  13
ENDBRANCH  11  12
BRANCH  11  15
HETATM   15  O   UNK N   1      35.016  13.024  20.513  0.00  0.00    -0.389 OA
HETATM   16  H   UNK N   1      35.571  13.808  20.376  0.00  0.00     0.210 HD
ENDBRANCH  11  15
ENDBRANCH   8  11
ENDBRANCH   1   5
BRANCH   2  17
HETATM   17  C   UNK N   1      36.329  12.966  11.990  0.00  0.00     0.102 A 
HETATM   18  N   UNK N   1      37.639  13.174  11.711  0.00  0.00    -0.351 N 
HETATM   19  C   UNK N   1      37.679  13.403  10.387  0.00  0.00     0.043 A 
HETATM   20  H   UNK N   1      38.395  13.161  12.341  0.00  0.00     0.166 HD
HETATM   21  C   UNK N   1      36.428  13.338   9.840  0.00  0.00    -0.005 A 
HETATM   22  C   UNK N   1      38.801  13.686   9.613  0.00  0.00     0.032 A 
HETATM   23  C   UNK N   1      35.540  13.060  10.845  0.00  0.00     0.049 A 
HETATM   24  C   UNK N   1      36.200  13.547   8.485  0.00  0.00     0.037 A 
HETATM   25  C   UNK N   1      37.309  13.833   7.673  0.00  0.00     0.035 A 
HETATM   26  C   UNK N   1      38.606  13.904   8.235  0.00  0.00     0.026 A 
HETATM   27 Cl   UNK N   1      37.078  14.110   5.961  0.00  0.00    -0.084 Cl
ENDBRANCH   2  17
TORSDOF 6
ENDMDL
MODEL 8
REMARK VINA RESULT:      -6.2     13.042     16.748
REMARK  6 active torsions:
REMARK  status: ('A' for Active; 'I' for Inactive)
REMARK    1  A    between atoms: N_2  and  C_1 
REMARK       I    between atoms: C_3  and  N_2 
REMARK    2  A    between atoms: C_4  and  C_3 
REMARK    3  A    between atoms: C_17  and  C_20 
REMARK    4  A    between atoms: C_20  and  C_21 
REMARK    5  A    between atoms: C_20  and  O_22 
REMARK    6  A    between atoms: O_23  and  C_21 
ROOT
HETATM    1  N   UNK N   1      35.767  11.924  15.392  0.00  0.00    -0.322 N 
HETATM    2  C   UNK N   1      35.088  12.200  16.543  0.00  0.00     0.272 C 
HETATM    3  O   UNK N   1      34.534  13.279  16.693  0.00  0.00    -0.266 OA
HETATM    4  H   UNK N   1      36.288  11.090  15.337  0.00  0.00     0.169 HD
ENDROOT
BRANCH   1   5
HETATM    5  C   UNK N   1      35.751  12.795  14.264  0.00  0.00     0.035 A 
HETATM    6  C   UNK N   1      35.102  12.408  13.085  0.00  0.00     0.030 A 
HETATM    7  C   UNK N   1      35.164  13.228  11.948  0.00  0.00     0.012 A 
HETATM    8  C   UNK N   1      35.860  14.450  11.993  0.00  0.00    -0.028 A 
HETATM    9  C   UNK N   1      36.458  14.853  13.191  0.00  0.00     0.012 A 
HETATM   10  C   UNK N   1      36.410  14.033  14.309  0.00  0.00     0.030 A 
BRANCH   8  11
HETATM   11  C   UNK N   1      36.010  15.329  10.781  0.00  0.00     0.174 C 
BRANCH  11  12
HETATM   12  C   UNK N   1      35.062  16.519  10.911  0.00  0.00     0.200 C 
BRANCH  12  13
HETATM   13  O   UNK N   1      35.592  17.644  10.279  0.00  0.00    -0.398 OA
HETATM   14  H   UNK N   1      35.352  18.533  10.580  0.00  0.00     0.209 HD
ENDBRANCH  12  13
ENDBRANCH  11  12
BRANCH  11  15
HETATM   15  O   UNK N   1      37.322  15.792  10.649  0.00  0.00    -0.389 OA
HETATM   16  H   UNK N   1      38.153  15.401  10.962  0.00  0.00     0.210 HD
ENDBRANCH  11  15
ENDBRANCH   8  11
ENDBRANCH   1   5
BRANCH   2  17
HETATM   17  C   UNK N   1      35.031  11.223  17.637  0.00  0.00     0.102 A 
HETATM   18  N   UNK N   1      34.614   9.940  17.509  0.00  0.00    -0.351 N 
HETATM   19  C   UNK N   1      34.683   9.428  18.750  0.00  0.00     0.043 A 
HETATM   20  H   UNK N   1      34.325   9.484  16.687  0.00  0.00     0.166 HD
HETATM   21  C   UNK N   1      35.134  10.362  19.641  0.00  0.00    -0.005 A 
HETATM   22  C   UNK N   1      34.346   8.138  19.151  0.00  0.00     0.032 A 
HETATM   23  C   UNK N   1      35.365  11.524  18.956  0.00  0.00     0.049 A 
HETATM   24  C   UNK N   1      35.286  10.082  20.994  0.00  0.00     0.037 A 
HETATM   25  C   UNK N   1      34.957   8.790  21.434  0.00  0.00     0.035 A 
HETATM   26  C   UNK N   1      34.487   7.820  20.516  0.00  0.00     0.026 A 
HETATM   27 Cl   UNK N   1      35.124   8.385  23.128  0.00  0.00    -0.084 Cl
ENDBRANCH   2  17
TORSDOF 6
ENDMDL
MODEL 9
REMARK VINA RESULT:      -6.1     12.213     16.597
REMARK  6 active torsions:
REMARK  status: ('A' for Active; 'I' for Inactive)
REMARK    1  A    between atoms: N_2  and  C_1 
REMARK       I    between atoms: C_3  and  N_2 
REMARK    2  A    between atoms: C_4  and  C_3 
REMARK    3  A    between atoms: C_17  and  C_20 
REMARK    4  A    between atoms: C_20  and  C_21 
REMARK    5  A    between atoms: C_20  and  O_22 
REMARK    6  A    between atoms: O_23  and  C_21 
ROOT
HETATM    1  N   UNK N   1      34.724  12.970  14.448  0.00  0.00    -0.322 N 
HETATM    2  C   UNK N   1      35.666  13.568  13.662  0.00  0.00     0.272 C 
HETATM    3  O   UNK N   1      36.751  13.885  14.126  0.00  0.00    -0.266 OA
HETATM    4  H   UNK N   1      33.825  12.817  14.076  0.00  0.00     0.169 HD
ENDROOT
BRANCH   1   5
HETATM    5  C   UNK N   1      34.991  12.556  15.785  0.00  0.00     0.035 A 
HETATM    6  C   UNK N   1      35.264  11.210  16.064  0.00  0.00     0.030 A 
HETATM    7  C   UNK N   1      35.438  10.790  17.391  0.00  0.00     0.012 A 
HETATM    8  C   UNK N   1      35.360  11.720  18.445  0.00  0.00    -0.028 A 
HETATM    9  C   UNK N   1      35.143  13.069  18.151  0.00  0.00     0.012 A 
HETATM   10  C   UNK N   1      34.954  13.480  16.839  0.00  0.00     0.030 A 
BRANCH   8  11
HETATM   11  C   UNK N   1      35.474  11.305  19.886  0.00  0.00     0.174 C 
BRANCH  11  12
HETATM   12  C   UNK N   1      36.241   9.987  19.964  0.00  0.00     0.200 C 
BRANCH  12  13
HETATM   13  O   UNK N   1      37.560  10.206  20.359  0.00  0.00    -0.398 OA
HETATM   14  H   UNK N   1      37.760  10.497  21.261  0.00  0.00     0.209 HD
ENDBRANCH  12  13
ENDBRANCH  11  12
BRANCH  11  15
HETATM   15  O   UNK N   1      36.137  12.274  20.643  0.00  0.00    -0.389 OA
HETATM   16  H   UNK N   1      36.569  12.197  21.508  0.00  0.00     0.210 HD
ENDBRANCH  11  15
ENDBRANCH   8  11
ENDBRANCH   1   5
BRANCH   2  17
HETATM   17  C   UNK N   1      35.390  13.871  12.252  0.00  0.00     0.102 A 
HETATM   18  N   UNK N   1      35.284  12.947  11.268  0.00  0.00    -0.351 N 
HETATM   19  C   UNK N   1      35.073  13.657  10.146  0.00  0.00     0.043 A 
HETATM   20  H   UNK N   1      35.349  11.969  11.355  0.00  0.00     0.166 HD
HETATM   21  C   UNK N   1      35.042  14.997  10.414  0.00  0.00    -0.005 A 
HETATM   22  C   UNK N   1      34.911  13.166   8.853  0.00  0.00     0.032 A 
HETATM   23  C   UNK N   1      35.243  15.166  11.757  0.00  0.00     0.049 A 
HETATM   24  C   UNK N   1      34.845  15.948   9.419  0.00  0.00     0.037 A 
HETATM   25  C   UNK N   1      34.677  15.488   8.103  0.00  0.00     0.035 A 
HETATM   26  C   UNK N   1      34.711  14.102   7.819  0.00  0.00     0.026 A 
HETATM   27 Cl   UNK N   1      34.432  16.642   6.810  0.00  0.00    -0.084 Cl
ENDBRANCH   2  17
TORSDOF 6
ENDMDL
