MODEL 1
REMARK VINA RESULT:      -7.0      0.000      0.000
REMARK  9 active torsions:
REMARK  status: ('A' for Active; 'I' for Inactive)
REMARK    1  A    between atoms: C_2  and  C_4 
REMARK       I    between atoms: N_3  and  C_2 
REMARK    2  A    between atoms: C_7  and  C_4 
REMARK    3  A    between atoms: C_7  and  N_8 
REMARK    4  A    between atoms: C_13  and  N_14 
REMARK    5  A    between atoms: N_14  and  C_15 
REMARK       I    between atoms: N_14  and  C_18 
REMARK    6  A    between atoms: C_20  and  C_18 
REMARK    7  A    between atoms: C_26  and  C_25 
REMARK    8  A    between atoms: C_26  and  O_28 
REMARK    9  A    between atoms: C_29  and  C_26 
ROOT
HETATM    1  N   UNK N   1      32.018  16.228   5.790  0.00  0.00    -0.338 N 
HETATM    2  C   UNK N   1      30.773  15.689   6.038  0.00  0.00     0.254 C 
HETATM    3  O   UNK N   1      30.701  14.549   6.503  0.00  0.00    -0.267 OA
ENDROOT
BRANCH   1   4
HETATM    4  C   UNK N   1      33.176  15.581   6.359  0.00  0.00     0.091 C 
HETATM    5  C   UNK N   1      33.086  14.052   6.229  0.00  0.00     0.055 C 
HETATM    6  C   UNK N   1      34.105  13.344   7.139  0.00  0.00     0.274 C 
HETATM    7  N   UNK N   1      34.284  13.948   8.484  0.00  0.00     0.089 N 
HETATM    8  C   UNK N   1      33.210  14.888   8.800  0.00  0.00     0.274 C 
HETATM    9  C   UNK N   1      33.267  16.062   7.819  0.00  0.00     0.055 C 
BRANCH   7  10
HETATM   10  C   UNK N   1      35.523  14.732   8.605  0.00  0.00     0.291 C 
BRANCH  10  11
HETATM   11  C   UNK N   1      36.296  14.525   9.883  0.00  0.00     0.067 A 
HETATM   12  C   UNK N   1      37.710  14.099   9.524  0.00  0.00     0.022 A 
HETATM   13  C   UNK N   1      36.793  13.140  10.256  0.00  0.00     0.022 A 
BRANCH  11  14
HETATM   14  C   UNK N   1      36.237  15.599  10.924  0.00  0.00     0.226 C 
HETATM   15  O   UNK N   1      36.181  16.767  10.576  0.00  0.00    -0.273 OA
HETATM   16  N   UNK N   1      36.279  15.295  12.237  0.00  0.00    -0.369 N 
HETATM   17  H   UNK N   1      36.830  15.767  12.903  0.00  0.00     0.159 HD
HETATM   18  H   UNK N   1      35.719  14.549  12.552  0.00  0.00     0.159 HD
ENDBRANCH  11  14
ENDBRANCH  10  11
ENDBRANCH   7  10
ENDBRANCH   1   4
BRANCH   1  19
HETATM   19  C   UNK N   1      32.223  17.514   5.126  0.00  0.00     0.088 A 
HETATM   20  C   UNK N   1      32.273  17.331   3.609  0.00  0.00     0.027 A 
HETATM   21  C   UNK N   1      33.552  17.531   4.374  0.00  0.00     0.027 A 
ENDBRANCH   1  19
BRANCH   2  22
HETATM   22  C   UNK N   1      29.500  16.399   5.842  0.00  0.00     0.032 A 
HETATM   23  C   UNK N   1      28.831  16.221   4.628  0.00  0.00     0.017 A 
HETATM   24  C   UNK N   1      27.703  16.965   4.333  0.00  0.00     0.011 A 
HETATM   25  C   UNK N   1      27.199  17.876   5.268  0.00  0.00    -0.015 A 
HETATM   26  C   UNK N   1      27.796  17.966   6.533  0.00  0.00     0.011 A 
HETATM   27  C   UNK N   1      28.931  17.222   6.821  0.00  0.00     0.017 A 
BRANCH  25  28
HETATM   28  C   UNK N   1      26.303  18.973   4.765  0.00  0.00     0.179 C 
HETATM   29  C   UNK N   1      25.690  18.423   3.480  0.00  0.00     0.061 C 
BRANCH  28  30
HETATM   30  O   UNK N   1      25.276  19.207   5.682  0.00  0.00    -0.376 OA
HETATM   31  H   UNK N   1      24.589  18.556   5.895  0.00  0.00     0.211 HD
ENDBRANCH  28  30
BRANCH  28  32
HETATM   32  C   UNK N   1      27.005  20.304   4.435  0.00  0.00     0.422 C 
HETATM   33  F   UNK N   1      26.822  21.246   5.435  0.00  0.00    -0.167 F 
HETATM   34  F   UNK N   1      26.523  20.810   3.242  0.00  0.00    -0.167 F 
HETATM   35  F   UNK N   1      28.364  20.079   4.306  0.00  0.00    -0.167 F 
ENDBRANCH  28  32
ENDBRANCH  25  28
ENDBRANCH   2  22
TORSDOF 9
ENDMDL
MODEL 2
REMARK VINA RESULT:      -7.0      3.417      5.741
REMARK  9 active torsions:
REMARK  status: ('A' for Active; 'I' for Inactive)
REMARK    1  A    between atoms: C_2  and  C_4 
REMARK       I    between atoms: N_3  and  C_2 
REMARK    2  A    between atoms: C_7  and  C_4 
REMARK    3  A    between atoms: C_7  and  N_8 
REMARK    4  A    between atoms: C_13  and  N_14 
REMARK    5  A    between atoms: N_14  and  C_15 
REMARK       I    between atoms: N_14  and  C_18 
REMARK    6  A    between atoms: C_20  and  C_18 
REMARK    7  A    between atoms: C_26  and  C_25 
REMARK    8  A    between atoms: C_26  and  O_28 
REMARK    9  A    between atoms: C_29  and  C_26 
ROOT
HETATM    1  N   UNK N   1      27.246  18.950   5.337  0.00  0.00    -0.338 N 
HETATM    2  C   UNK N   1      26.632  18.216   4.343  0.00  0.00     0.254 C 
HETATM    3  O   UNK N   1      27.307  17.415   3.693  0.00  0.00    -0.267 OA
ENDROOT
BRANCH   1   4
HETATM    4  C   UNK N   1      28.556  18.545   5.785  0.00  0.00     0.091 C 
HETATM    5  C   UNK N   1      29.432  18.076   4.612  0.00  0.00     0.055 C 
HETATM    6  C   UNK N   1      30.671  17.306   5.100  0.00  0.00     0.274 C 
HETATM    7  N   UNK N   1      30.439  16.388   6.244  0.00  0.00     0.089 N 
HETATM    8  C   UNK N   1      29.013  16.141   6.456  0.00  0.00     0.274 C 
HETATM    9  C   UNK N   1      28.331  17.454   6.848  0.00  0.00     0.055 C 
BRANCH   7  10
HETATM   10  C   UNK N   1      30.926  16.923   7.524  0.00  0.00     0.291 C 
BRANCH  10  11
HETATM   11  C   UNK N   1      32.363  16.601   7.854  0.00  0.00     0.067 A 
HETATM   12  C   UNK N   1      33.048  17.879   8.309  0.00  0.00     0.022 A 
HETATM   13  C   UNK N   1      33.485  17.200   7.027  0.00  0.00     0.022 A 
BRANCH  11  14
HETATM   14  C   UNK N   1      32.635  15.425   8.738  0.00  0.00     0.226 C 
HETATM   15  O   UNK N   1      33.517  14.639   8.435  0.00  0.00    -0.273 OA
HETATM   16  N   UNK N   1      31.897  15.204   9.846  0.00  0.00    -0.369 N 
HETATM   17  H   UNK N   1      31.535  14.328  10.111  0.00  0.00     0.159 HD
HETATM   18  H   UNK N   1      31.707  15.973  10.429  0.00  0.00     0.159 HD
ENDBRANCH  11  14
ENDBRANCH  10  11
ENDBRANCH   7  10
ENDBRANCH   1   4
BRANCH   1  19
HETATM   19  C   UNK N   1      26.578  20.015   6.083  0.00  0.00     0.088 A 
HETATM   20  C   UNK N   1      26.880  21.377   5.458  0.00  0.00     0.027 A 
HETATM   21  C   UNK N   1      27.598  20.961   6.711  0.00  0.00     0.027 A 
ENDBRANCH   1  19
BRANCH   2  22
HETATM   22  C   UNK N   1      25.196  18.272   4.028  0.00  0.00     0.032 A 
HETATM   23  C   UNK N   1      24.677  19.479   3.552  0.00  0.00     0.017 A 
HETATM   24  C   UNK N   1      23.315  19.632   3.367  0.00  0.00     0.011 A 
HETATM   25  C   UNK N   1      22.449  18.562   3.618  0.00  0.00    -0.015 A 
HETATM   26  C   UNK N   1      22.979  17.316   3.976  0.00  0.00     0.011 A 
HETATM   27  C   UNK N   1      24.345  17.170   4.167  0.00  0.00     0.017 A 
BRANCH  25  28
HETATM   28  C   UNK N   1      21.000  18.878   3.867  0.00  0.00     0.179 C 
HETATM   29  C   UNK N   1      20.344  17.529   4.148  0.00  0.00     0.061 C 
BRANCH  28  30
HETATM   30  O   UNK N   1      20.875  19.678   5.005  0.00  0.00    -0.376 OA
HETATM   31  H   UNK N   1      20.212  20.380   5.096  0.00  0.00     0.211 HD
ENDBRANCH  28  30
BRANCH  28  32
HETATM   32  C   UNK N   1      20.255  19.543   2.693  0.00  0.00     0.422 C 
HETATM   33  F   UNK N   1      18.887  19.338   2.766  0.00  0.00    -0.167 F 
HETATM   34  F   UNK N   1      20.725  19.044   1.492  0.00  0.00    -0.167 F 
HETATM   35  F   UNK N   1      20.483  20.908   2.727  0.00  0.00    -0.167 F 
ENDBRANCH  28  32
ENDBRANCH  25  28
ENDBRANCH   2  22
TORSDOF 9
ENDMDL
MODEL 3
REMARK VINA RESULT:      -6.9      4.458     10.562
REMARK  9 active torsions:
REMARK  status: ('A' for Active; 'I' for Inactive)
REMARK    1  A    between atoms: C_2  and  C_4 
REMARK       I    between atoms: N_3  and  C_2 
REMARK    2  A    between atoms: C_7  and  C_4 
REMARK    3  A    between atoms: C_7  and  N_8 
REMARK    4  A    between atoms: C_13  and  N_14 
REMARK    5  A    between atoms: N_14  and  C_15 
REMARK       I    between atoms: N_14  and  C_18 
REMARK    6  A    between atoms: C_20  and  C_18 
REMARK    7  A    between atoms: C_26  and  C_25 
REMARK    8  A    between atoms: C_26  and  O_28 
REMARK    9  A    between atoms: C_29  and  C_26 
ROOT
HETATM    1  N   UNK N   1      27.357  18.462   4.695  0.00  0.00    -0.338 N 
HETATM    2  C   UNK N   1      28.029  17.257   4.674  0.00  0.00     0.254 C 
HETATM    3  O   UNK N   1      27.443  16.258   4.252  0.00  0.00    -0.267 OA
ENDROOT
BRANCH   1   4
HETATM    4  C   UNK N   1      26.125  18.579   3.951  0.00  0.00     0.091 C 
HETATM    5  C   UNK N   1      25.935  20.000   3.398  0.00  0.00     0.055 C 
HETATM    6  C   UNK N   1      24.489  20.239   2.933  0.00  0.00     0.274 C 
HETATM    7  N   UNK N   1      23.436  19.652   3.800  0.00  0.00     0.089 N 
HETATM    8  C   UNK N   1      23.970  19.258   5.103  0.00  0.00     0.274 C 
HETATM    9  C   UNK N   1      25.000  18.143   4.906  0.00  0.00     0.055 C 
BRANCH   7  10
HETATM   10  C   UNK N   1      22.847  18.424   3.244  0.00  0.00     0.291 C 
BRANCH  10  11
HETATM   11  C   UNK N   1      21.347  18.439   3.091  0.00  0.00     0.067 A 
HETATM   12  C   UNK N   1      20.742  17.612   4.213  0.00  0.00     0.022 A 
HETATM   13  C   UNK N   1      20.602  17.154   2.775  0.00  0.00     0.022 A 
BRANCH  11  14
HETATM   14  C   UNK N   1      20.673  19.759   2.886  0.00  0.00     0.226 C 
HETATM   15  O   UNK N   1      20.385  20.441   3.855  0.00  0.00    -0.273 OA
HETATM   16  N   UNK N   1      20.350  20.188   1.648  0.00  0.00    -0.369 N 
HETATM   17  H   UNK N   1      19.486  20.593   1.405  0.00  0.00     0.159 HD
HETATM   18  H   UNK N   1      21.025  20.090   0.940  0.00  0.00     0.159 HD
ENDBRANCH  11  14
ENDBRANCH  10  11
ENDBRANCH   7  10
ENDBRANCH   1   4
BRANCH   1  19
HETATM   19  C   UNK N   1      27.904  19.681   5.288  0.00  0.00     0.088 A 
HETATM   20  C   UNK N   1      28.091  19.506   6.795  0.00  0.00     0.027 A 
HETATM   21  C   UNK N   1      26.918  20.293   6.281  0.00  0.00     0.027 A 
ENDBRANCH   1  19
BRANCH   2  22
HETATM   22  C   UNK N   1      29.434  17.077   5.070  0.00  0.00     0.032 A 
HETATM   23  C   UNK N   1      29.698  16.360   6.240  0.00  0.00     0.017 A 
HETATM   24  C   UNK N   1      30.986  16.273   6.733  0.00  0.00     0.011 A 
HETATM   25  C   UNK N   1      32.045  16.871   6.040  0.00  0.00    -0.015 A 
HETATM   26  C   UNK N   1      31.800  17.483   4.803  0.00  0.00     0.011 A 
HETATM   27  C   UNK N   1      30.504  17.574   4.317  0.00  0.00     0.017 A 
BRANCH  25  28
HETATM   28  C   UNK N   1      33.305  17.167   6.805  0.00  0.00     0.179 C 
HETATM   29  C   UNK N   1      33.896  15.800   7.138  0.00  0.00     0.061 C 
BRANCH  28  30
HETATM   30  O   UNK N   1      34.207  17.854   5.989  0.00  0.00    -0.376 OA
HETATM   31  H   UNK N   1      34.800  18.550   6.314  0.00  0.00     0.211 HD
ENDBRANCH  28  30
BRANCH  28  32
HETATM   32  C   UNK N   1      33.114  17.946   8.121  0.00  0.00     0.422 C 
HETATM   33  F   UNK N   1      31.869  18.551   8.187  0.00  0.00    -0.167 F 
HETATM   34  F   UNK N   1      34.095  18.912   8.245  0.00  0.00    -0.167 F 
HETATM   35  F   UNK N   1      33.217  17.068   9.185  0.00  0.00    -0.167 F 
ENDBRANCH  28  32
ENDBRANCH  25  28
ENDBRANCH   2  22
TORSDOF 9
ENDMDL
MODEL 4
REMARK VINA RESULT:      -6.9      8.275     12.826
REMARK  9 active torsions:
REMARK  status: ('A' for Active; 'I' for Inactive)
REMARK    1  A    between atoms: C_2  and  C_4 
REMARK       I    between atoms: N_3  and  C_2 
REMARK    2  A    between atoms: C_7  and  C_4 
REMARK    3  A    between atoms: C_7  and  N_8 
REMARK    4  A    between atoms: C_13  and  N_14 
REMARK    5  A    between atoms: N_14  and  C_15 
REMARK       I    between atoms: N_14  and  C_18 
REMARK    6  A    between atoms: C_20  and  C_18 
REMARK    7  A    between atoms: C_26  and  C_25 
REMARK    8  A    between atoms: C_26  and  O_28 
REMARK    9  A    between atoms: C_29  and  C_26 
ROOT
HETATM    1  N   UNK N   1      35.340  11.536  13.322  0.00  0.00    -0.338 N 
HETATM    2  C   UNK N   1      36.056  12.022  14.397  0.00  0.00     0.254 C 
HETATM    3  O   UNK N   1      36.957  12.838  14.190  0.00  0.00    -0.267 OA
ENDROOT
BRANCH   1   4
HETATM    4  C   UNK N   1      35.456  12.214  12.053  0.00  0.00     0.091 C 
HETATM    5  C   UNK N   1      36.926  12.458  11.677  0.00  0.00     0.055 C 
HETATM    6  C   UNK N   1      37.059  13.485  10.540  0.00  0.00     0.274 C 
HETATM    7  N   UNK N   1      36.128  14.640  10.613  0.00  0.00     0.089 N 
HETATM    8  C   UNK N   1      35.507  14.748  11.932  0.00  0.00     0.274 C 
HETATM    9  C   UNK N   1      34.637  13.512  12.179  0.00  0.00     0.055 C 
BRANCH   7  10
HETATM   10  C   UNK N   1      35.003  14.537   9.671  0.00  0.00     0.291 C 
BRANCH  10  11
HETATM   11  C   UNK N   1      34.874  15.676   8.691  0.00  0.00     0.067 A 
HETATM   12  C   UNK N   1      33.969  15.231   7.555  0.00  0.00     0.022 A 
HETATM   13  C   UNK N   1      35.429  15.537   7.286  0.00  0.00     0.022 A 
BRANCH  11  14
HETATM   14  C   UNK N   1      34.541  17.033   9.229  0.00  0.00     0.226 C 
HETATM   15  O   UNK N   1      35.439  17.757   9.624  0.00  0.00    -0.273 OA
HETATM   16  N   UNK N   1      33.261  17.450   9.314  0.00  0.00    -0.369 N 
HETATM   17  H   UNK N   1      32.872  17.905  10.095  0.00  0.00     0.159 HD
HETATM   18  H   UNK N   1      32.676  17.289   8.540  0.00  0.00     0.159 HD
ENDBRANCH  11  14
ENDBRANCH  10  11
ENDBRANCH   7  10
ENDBRANCH   1   4
BRANCH   1  19
HETATM   19  C   UNK N   1      34.339  10.476  13.431  0.00  0.00     0.088 A 
HETATM   20  C   UNK N   1      34.935   9.133  13.012  0.00  0.00     0.027 A 
HETATM   21  C   UNK N   1      34.035   9.873  12.062  0.00  0.00     0.027 A 
ENDBRANCH   1  19
BRANCH   2  22
HETATM   22  C   UNK N   1      35.787  11.682  15.802  0.00  0.00     0.032 A 
HETATM   23  C   UNK N   1      35.151  12.639  16.597  0.00  0.00     0.017 A 
HETATM   24  C   UNK N   1      34.993  12.430  17.955  0.00  0.00     0.011 A 
HETATM   25  C   UNK N   1      35.436  11.237  18.537  0.00  0.00    -0.015 A 
HETATM   26  C   UNK N   1      35.961  10.226  17.721  0.00  0.00     0.011 A 
HETATM   27  C   UNK N   1      36.123  10.444  16.361  0.00  0.00     0.017 A 
BRANCH  25  28
HETATM   28  C   UNK N   1      35.684  11.231  20.020  0.00  0.00     0.179 C 
HETATM   29  C   UNK N   1      36.944  10.389  20.206  0.00  0.00     0.061 C 
BRANCH  28  30
HETATM   30  O   UNK N   1      35.948  12.529  20.464  0.00  0.00    -0.376 OA
HETATM   31  H   UNK N   1      36.116  13.275  19.867  0.00  0.00     0.211 HD
ENDBRANCH  28  30
BRANCH  28  32
HETATM   32  C   UNK N   1      34.561  10.618  20.878  0.00  0.00     0.422 C 
HETATM   33  F   UNK N   1      33.706  11.587  21.378  0.00  0.00    -0.167 F 
HETATM   34  F   UNK N   1      35.105   9.906  21.931  0.00  0.00    -0.167 F 
HETATM   35  F   UNK N   1      33.814   9.754  20.096  0.00  0.00    -0.167 F 
ENDBRANCH  28  32
ENDBRANCH  25  28
ENDBRANCH   2  22
TORSDOF 9
ENDMDL
MODEL 5
REMARK VINA RESULT:      -6.8      4.763     10.778
REMARK  9 active torsions:
REMARK  status: ('A' for Active; 'I' for Inactive)
REMARK    1  A    between atoms: C_2  and  C_4 
REMARK       I    between atoms: N_3  and  C_2 
REMARK    2  A    between atoms: C_7  and  C_4 
REMARK    3  A    between atoms: C_7  and  N_8 
REMARK    4  A    between atoms: C_13  and  N_14 
REMARK    5  A    between atoms: N_14  and  C_15 
REMARK       I    between atoms: N_14  and  C_18 
REMARK    6  A    between atoms: C_20  and  C_18 
REMARK    7  A    between atoms: C_26  and  C_25 
REMARK    8  A    between atoms: C_26  and  O_28 
REMARK    9  A    between atoms: C_29  and  C_26 
ROOT
HETATM    1  N   UNK N   1      26.821  17.204   3.918  0.00  0.00    -0.338 N 
HETATM    2  C   UNK N   1      27.614  18.043   4.674  0.00  0.00     0.254 C 
HETATM    3  O   UNK N   1      27.327  19.241   4.730  0.00  0.00    -0.267 OA
ENDROOT
BRANCH   1   4
HETATM    4  C   UNK N   1      25.532  17.683   3.480  0.00  0.00     0.091 C 
HETATM    5  C   UNK N   1      25.550  19.201   3.234  0.00  0.00     0.055 C 
HETATM    6  C   UNK N   1      24.127  19.776   3.130  0.00  0.00     0.274 C 
HETATM    7  N   UNK N   1      23.140  19.207   4.084  0.00  0.00     0.089 N 
HETATM    8  C   UNK N   1      23.796  18.463   5.158  0.00  0.00     0.274 C 
HETATM    9  C   UNK N   1      24.521  17.255   4.560  0.00  0.00     0.055 C 
BRANCH   7  10
HETATM   10  C   UNK N   1      22.222  18.243   3.459  0.00  0.00     0.291 C 
BRANCH  10  11
HETATM   11  C   UNK N   1      21.004  18.843   2.801  0.00  0.00     0.067 A 
HETATM   12  C   UNK N   1      19.828  17.909   3.028  0.00  0.00     0.022 A 
HETATM   13  C   UNK N   1      20.352  18.139   1.625  0.00  0.00     0.022 A 
BRANCH  11  14
HETATM   14  C   UNK N   1      20.692  20.281   3.074  0.00  0.00     0.226 C 
HETATM   15  O   UNK N   1      20.260  20.602   4.169  0.00  0.00    -0.273 OA
HETATM   16  N   UNK N   1      20.851  21.219   2.118  0.00  0.00    -0.369 N 
HETATM   17  H   UNK N   1      20.197  21.926   1.916  0.00  0.00     0.159 HD
HETATM   18  H   UNK N   1      21.677  21.193   1.585  0.00  0.00     0.159 HD
ENDBRANCH  11  14
ENDBRANCH  10  11
ENDBRANCH   7  10
ENDBRANCH   1   4
BRANCH   1  19
HETATM   19  C   UNK N   1      27.135  15.797   3.676  0.00  0.00     0.088 A 
HETATM   20  C   UNK N   1      28.054  15.655   2.463  0.00  0.00     0.027 A 
HETATM   21  C   UNK N   1      26.589  15.343   2.325  0.00  0.00     0.027 A 
ENDBRANCH   1  19
BRANCH   2  22
HETATM   22  C   UNK N   1      28.764  17.605   5.479  0.00  0.00     0.032 A 
HETATM   23  C   UNK N   1      28.550  17.336   6.834  0.00  0.00     0.017 A 
HETATM   24  C   UNK N   1      29.615  17.052   7.669  0.00  0.00     0.011 A 
HETATM   25  C   UNK N   1      30.914  16.991   7.153  0.00  0.00    -0.015 A 
HETATM   26  C   UNK N   1      31.115  17.138   5.774  0.00  0.00     0.011 A 
HETATM   27  C   UNK N   1      30.045  17.430   4.942  0.00  0.00     0.017 A 
BRANCH  25  28
HETATM   28  C   UNK N   1      32.058  17.153   8.115  0.00  0.00     0.179 C 
HETATM   29  C   UNK N   1      33.172  17.804   7.299  0.00  0.00     0.061 C 
BRANCH  28  30
HETATM   30  O   UNK N   1      31.694  18.024   9.145  0.00  0.00    -0.376 OA
HETATM   31  H   UNK N   1      31.668  17.766  10.080  0.00  0.00     0.211 HD
ENDBRANCH  28  30
BRANCH  28  32
HETATM   32  C   UNK N   1      32.604  15.846   8.723  0.00  0.00     0.422 C 
HETATM   33  F   UNK N   1      32.919  14.915   7.747  0.00  0.00    -0.167 F 
HETATM   34  F   UNK N   1      31.671  15.301   9.586  0.00  0.00    -0.167 F 
HETATM   35  F   UNK N   1      33.758  16.125   9.434  0.00  0.00    -0.167 F 
ENDBRANCH  28  32
ENDBRANCH  25  28
ENDBRANCH   2  22
TORSDOF 9
ENDMDL
MODEL 6
REMARK VINA RESULT:      -6.8      4.255      9.478
REMARK  9 active torsions:
REMARK  status: ('A' for Active; 'I' for Inactive)
REMARK    1  A    between atoms: C_2  and  C_4 
REMARK       I    between atoms: N_3  and  C_2 
REMARK    2  A    between atoms: C_7  and  C_4 
REMARK    3  A    between atoms: C_7  and  N_8 
REMARK    4  A    between atoms: C_13  and  N_14 
REMARK    5  A    between atoms: N_14  and  C_15 
REMARK       I    between atoms: N_14  and  C_18 
REMARK    6  A    between atoms: C_20  and  C_18 
REMARK    7  A    between atoms: C_26  and  C_25 
REMARK    8  A    between atoms: C_26  and  O_28 
REMARK    9  A    between atoms: C_29  and  C_26 
ROOT
HETATM    1  N   UNK N   1      31.138  16.510   6.488  0.00  0.00    -0.338 N 
HETATM    2  C   UNK N   1      31.522  16.572   7.812  0.00  0.00     0.254 C 
HETATM    3  O   UNK N   1      30.677  16.858   8.663  0.00  0.00    -0.267 OA
ENDROOT
BRANCH   1   4
HETATM    4  C   UNK N   1      29.728  16.477   6.180  0.00  0.00     0.091 C 
HETATM    5  C   UNK N   1      29.401  15.371   5.164  0.00  0.00     0.055 C 
HETATM    6  C   UNK N   1      28.001  15.558   4.554  0.00  0.00     0.274 C 
HETATM    7  N   UNK N   1      27.623  16.960   4.246  0.00  0.00     0.089 N 
HETATM    8  C   UNK N   1      28.785  17.848   4.265  0.00  0.00     0.274 C 
HETATM    9  C   UNK N   1      29.361  17.888   5.683  0.00  0.00     0.055 C 
BRANCH   7  10
HETATM   10  C   UNK N   1      26.689  17.536   5.225  0.00  0.00     0.291 C 
BRANCH  10  11
HETATM   11  C   UNK N   1      25.990  18.799   4.787  0.00  0.00     0.067 A 
HETATM   12  C   UNK N   1      24.493  18.542   4.786  0.00  0.00     0.022 A 
HETATM   13  C   UNK N   1      25.214  18.825   3.484  0.00  0.00     0.022 A 
BRANCH  11  14
HETATM   14  C   UNK N   1      26.380  20.084   5.448  0.00  0.00     0.226 C 
HETATM   15  O   UNK N   1      26.780  21.012   4.764  0.00  0.00    -0.273 OA
HETATM   16  N   UNK N   1      26.327  20.219   6.789  0.00  0.00    -0.369 N 
HETATM   17  H   UNK N   1      27.033  20.630   7.337  0.00  0.00     0.159 HD
HETATM   18  H   UNK N   1      25.526  19.881   7.251  0.00  0.00     0.159 HD
ENDBRANCH  11  14
ENDBRANCH  10  11
ENDBRANCH   7  10
ENDBRANCH   1   4
BRANCH   1  19
HETATM   19  C   UNK N   1      32.075  16.306   5.385  0.00  0.00     0.088 A 
HETATM   20  C   UNK N   1      33.185  17.356   5.423  0.00  0.00     0.027 A 
HETATM   21  C   UNK N   1      32.062  17.500   4.433  0.00  0.00     0.027 A 
ENDBRANCH   1  19
BRANCH   2  22
HETATM   22  C   UNK N   1      32.872  16.261   8.306  0.00  0.00     0.032 A 
HETATM   23  C   UNK N   1      33.326  14.944   8.187  0.00  0.00     0.017 A 
HETATM   24  C   UNK N   1      34.529  14.564   8.753  0.00  0.00     0.011 A 
HETATM   25  C   UNK N   1      35.322  15.507   9.416  0.00  0.00    -0.015 A 
HETATM   26  C   UNK N   1      34.928  16.852   9.428  0.00  0.00     0.011 A 
HETATM   27  C   UNK N   1      33.717  17.227   8.865  0.00  0.00     0.017 A 
BRANCH  25  28
HETATM   28  C   UNK N   1      36.342  14.999  10.397  0.00  0.00     0.179 C 
HETATM   29  C   UNK N   1      37.249  14.080   9.582  0.00  0.00     0.061 C 
BRANCH  28  30
HETATM   30  O   UNK N   1      37.107  16.062  10.882  0.00  0.00    -0.376 OA
HETATM   31  H   UNK N   1      36.726  16.843  11.313  0.00  0.00     0.211 HD
ENDBRANCH  28  30
BRANCH  28  32
HETATM   32  C   UNK N   1      35.778  14.194  11.584  0.00  0.00     0.422 C 
HETATM   33  F   UNK N   1      36.617  14.242  12.685  0.00  0.00    -0.167 F 
HETATM   34  F   UNK N   1      35.589  12.875  11.214  0.00  0.00    -0.167 F 
HETATM   35  F   UNK N   1      34.558  14.731  11.955  0.00  0.00    -0.167 F 
ENDBRANCH  28  32
ENDBRANCH  25  28
ENDBRANCH   2  22
TORSDOF 9
ENDMDL
MODEL 7
REMARK VINA RESULT:      -6.7      7.270     11.928
REMARK  9 active torsions:
REMARK  status: ('A' for Active; 'I' for Inactive)
REMARK    1  A    between atoms: C_2  and  C_4 
REMARK       I    between atoms: N_3  and  C_2 
REMARK    2  A    between atoms: C_7  and  C_4 
REMARK    3  A    between atoms: C_7  and  N_8 
REMARK    4  A    between atoms: C_13  and  N_14 
REMARK    5  A    between atoms: N_14  and  C_15 
REMARK       I    between atoms: N_14  and  C_18 
REMARK    6  A    between atoms: C_20  and  C_18 
REMARK    7  A    between atoms: C_26  and  C_25 
REMARK    8  A    between atoms: C_26  and  O_28 
REMARK    9  A    between atoms: C_29  and  C_26 
ROOT
HETATM    1  N   UNK N   1      35.285  12.516  12.141  0.00  0.00    -0.338 N 
HETATM    2  C   UNK N   1      36.042  13.040  13.169  0.00  0.00     0.254 C 
HETATM    3  O   UNK N   1      36.763  14.013  12.939  0.00  0.00    -0.267 OA
ENDROOT
BRANCH   1   4
HETATM    4  C   UNK N   1      35.125  13.295  10.936  0.00  0.00     0.091 C 
HETATM    5  C   UNK N   1      36.484  13.675  10.327  0.00  0.00     0.055 C 
HETATM    6  C   UNK N   1      36.344  14.793   9.279  0.00  0.00     0.274 C 
HETATM    7  N   UNK N   1      35.376  15.866   9.619  0.00  0.00     0.089 N 
HETATM    8  C   UNK N   1      35.004  15.828  11.033  0.00  0.00     0.274 C 
HETATM    9  C   UNK N   1      34.269  14.516  11.321  0.00  0.00     0.055 C 
BRANCH   7  10
HETATM   10  C   UNK N   1      34.105  15.752   8.888  0.00  0.00     0.291 C 
BRANCH  10  11
HETATM   11  C   UNK N   1      33.542  17.050   8.364  0.00  0.00     0.067 A 
HETATM   12  C   UNK N   1      34.160  17.325   7.004  0.00  0.00     0.022 A 
HETATM   13  C   UNK N   1      34.452  18.249   8.168  0.00  0.00     0.022 A 
BRANCH  11  14
HETATM   14  C   UNK N   1      32.058  17.240   8.401  0.00  0.00     0.226 C 
HETATM   15  O   UNK N   1      31.600  18.305   8.779  0.00  0.00    -0.273 OA
HETATM   16  N   UNK N   1      31.222  16.239   8.055  0.00  0.00    -0.369 N 
HETATM   17  H   UNK N   1      30.416  15.985   8.559  0.00  0.00     0.159 HD
HETATM   18  H   UNK N   1      31.434  15.728   7.241  0.00  0.00     0.159 HD
ENDBRANCH  11  14
ENDBRANCH  10  11
ENDBRANCH   7  10
ENDBRANCH   1   4
BRANCH   1  19
HETATM   19  C   UNK N   1      34.495  11.292  12.263  0.00  0.00     0.088 A 
HETATM   20  C   UNK N   1      35.304  10.084  11.793  0.00  0.00     0.027 A 
HETATM   21  C   UNK N   1      34.250  10.665  10.892  0.00  0.00     0.027 A 
ENDBRANCH   1  19
BRANCH   2  22
HETATM   22  C   UNK N   1      36.015  12.555  14.557  0.00  0.00     0.032 A 
HETATM   23  C   UNK N   1      36.839  11.477  14.891  0.00  0.00     0.017 A 
HETATM   24  C   UNK N   1      36.757  10.893  16.141  0.00  0.00     0.011 A 
HETATM   25  C   UNK N   1      35.874  11.405  17.099  0.00  0.00    -0.015 A 
HETATM   26  C   UNK N   1      35.138  12.562  16.808  0.00  0.00     0.011 A 
HETATM   27  C   UNK N   1      35.219  13.139  15.549  0.00  0.00     0.017 A 
BRANCH  25  28
HETATM   28  C   UNK N   1      35.467  10.502  18.230  0.00  0.00     0.179 C 
HETATM   29  C   UNK N   1      36.770   9.885  18.731  0.00  0.00     0.061 C 
BRANCH  28  30
HETATM   30  O   UNK N   1      34.907  11.257  19.264  0.00  0.00    -0.376 OA
HETATM   31  H   UNK N   1      34.443  12.097  19.122  0.00  0.00     0.211 HD
ENDBRANCH  28  30
BRANCH  28  32
HETATM   32  C   UNK N   1      34.503   9.361  17.854  0.00  0.00     0.422 C 
HETATM   33  F   UNK N   1      33.479   9.224  18.777  0.00  0.00    -0.167 F 
HETATM   34  F   UNK N   1      35.195   8.167  17.766  0.00  0.00    -0.167 F 
HETATM   35  F   UNK N   1      33.933   9.637  16.624  0.00  0.00    -0.167 F 
ENDBRANCH  28  32
ENDBRANCH  25  28
ENDBRANCH   2  22
TORSDOF 9
ENDMDL
MODEL 8
REMARK VINA RESULT:      -6.7      5.804     10.565
REMARK  9 active torsions:
REMARK  status: ('A' for Active; 'I' for Inactive)
REMARK    1  A    between atoms: C_2  and  C_4 
REMARK       I    between atoms: N_3  and  C_2 
REMARK    2  A    between atoms: C_7  and  C_4 
REMARK    3  A    between atoms: C_7  and  N_8 
REMARK    4  A    between atoms: C_13  and  N_14 
REMARK    5  A    between atoms: N_14  and  C_15 
REMARK       I    between atoms: N_14  and  C_18 
REMARK    6  A    between atoms: C_20  and  C_18 
REMARK    7  A    between atoms: C_26  and  C_25 
REMARK    8  A    between atoms: C_26  and  O_28 
REMARK    9  A    between atoms: C_29  and  C_26 
ROOT
HETATM    1  N   UNK N   1      35.708  14.586   9.784  0.00  0.00    -0.338 N 
HETATM    2  C   UNK N   1      35.264  14.852  11.063  0.00  0.00     0.254 C 
HETATM    3  O   UNK N   1      34.552  15.841  11.251  0.00  0.00    -0.267 OA
ENDROOT
BRANCH   1   4
HETATM    4  C   UNK N   1      35.086  15.278   8.680  0.00  0.00     0.091 C 
HETATM    5  C   UNK N   1      34.869  16.766   9.000  0.00  0.00     0.055 C 
HETATM    6  C   UNK N   1      33.892  17.422   8.008  0.00  0.00     0.274 C 
HETATM    7  N   UNK N   1      32.730  16.587   7.613  0.00  0.00     0.089 N 
HETATM    8  C   UNK N   1      32.560  15.442   8.506  0.00  0.00     0.274 C 
HETATM    9  C   UNK N   1      33.778  14.523   8.379  0.00  0.00     0.055 C 
BRANCH   7  10
HETATM   10  C   UNK N   1      32.865  16.005   6.270  0.00  0.00     0.291 C 
BRANCH  10  11
HETATM   11  C   UNK N   1      32.082  16.698   5.183  0.00  0.00     0.067 A 
HETATM   12  C   UNK N   1      32.605  16.221   3.838  0.00  0.00     0.022 A 
HETATM   13  C   UNK N   1      32.778  17.669   4.247  0.00  0.00     0.022 A 
BRANCH  11  14
HETATM   14  C   UNK N   1      30.589  16.699   5.282  0.00  0.00     0.226 C 
HETATM   15  O   UNK N   1      30.016  15.710   5.709  0.00  0.00    -0.273 OA
HETATM   16  N   UNK N   1      29.868  17.764   4.874  0.00  0.00    -0.369 N 
HETATM   17  H   UNK N   1      29.051  17.709   4.329  0.00  0.00     0.159 HD
HETATM   18  H   UNK N   1      30.182  18.657   5.142  0.00  0.00     0.159 HD
ENDBRANCH  11  14
ENDBRANCH  10  11
ENDBRANCH   7  10
ENDBRANCH   1   4
BRANCH   1  19
HETATM   19  C   UNK N   1      36.656  13.520   9.464  0.00  0.00     0.088 A 
HETATM   20  C   UNK N   1      38.091  14.043   9.528  0.00  0.00     0.027 A 
HETATM   21  C   UNK N   1      37.433  13.848   8.191  0.00  0.00     0.027 A 
ENDBRANCH   1  19
BRANCH   2  22
HETATM   22  C   UNK N   1      35.531  14.002  12.233  0.00  0.00     0.032 A 
HETATM   23  C   UNK N   1      34.873  12.771  12.312  0.00  0.00     0.017 A 
HETATM   24  C   UNK N   1      34.979  11.992  13.449  0.00  0.00     0.011 A 
HETATM   25  C   UNK N   1      35.780  12.413  14.517  0.00  0.00    -0.015 A 
HETATM   26  C   UNK N   1      36.537  13.585  14.389  0.00  0.00     0.011 A 
HETATM   27  C   UNK N   1      36.421  14.367  13.250  0.00  0.00     0.017 A 
BRANCH  25  28
HETATM   28  C   UNK N   1      35.511  11.818  15.871  0.00  0.00     0.179 C 
HETATM   29  C   UNK N   1      34.405  10.792  15.639  0.00  0.00     0.061 C 
BRANCH  28  30
HETATM   30  O   UNK N   1      36.648  11.149  16.331  0.00  0.00    -0.376 OA
HETATM   31  H   UNK N   1      36.986  10.332  15.933  0.00  0.00     0.211 HD
ENDBRANCH  28  30
BRANCH  28  32
HETATM   32  C   UNK N   1      35.033  12.810  16.948  0.00  0.00     0.422 C 
HETATM   33  F   UNK N   1      35.981  13.788  17.207  0.00  0.00    -0.167 F 
HETATM   34  F   UNK N   1      34.748  12.134  18.121  0.00  0.00    -0.167 F 
HETATM   35  F   UNK N   1      33.883  13.439  16.506  0.00  0.00    -0.167 F 
ENDBRANCH  28  32
ENDBRANCH  25  28
ENDBRANCH   2  22
TORSDOF 9
ENDMDL
MODEL 9
REMARK VINA RESULT:      -6.5      2.603      3.519
REMARK  9 active torsions:
REMARK  status: ('A' for Active; 'I' for Inactive)
REMARK    1  A    between atoms: C_2  and  C_4 
REMARK       I    between atoms: N_3  and  C_2 
REMARK    2  A    between atoms: C_7  and  C_4 
REMARK    3  A    between atoms: C_7  and  N_8 
REMARK    4  A    between atoms: C_13  and  N_14 
REMARK    5  A    between atoms: N_14  and  C_15 
REMARK       I    between atoms: N_14  and  C_18 
REMARK    6  A    between atoms: C_20  and  C_18 
REMARK    7  A    between atoms: C_26  and  C_25 
REMARK    8  A    between atoms: C_26  and  O_28 
REMARK    9  A    between atoms: C_29  and  C_26 
ROOT
HETATM    1  N   UNK N   1      30.789  17.220   7.912  0.00  0.00    -0.338 N 
HETATM    2  C   UNK N   1      30.914  17.117   6.541  0.00  0.00     0.254 C 
HETATM    3  O   UNK N   1      32.044  17.120   6.046  0.00  0.00    -0.267 OA
ENDROOT
BRANCH   1   4
HETATM    4  C   UNK N   1      31.962  17.019   8.729  0.00  0.00     0.091 C 
HETATM    5  C   UNK N   1      33.147  17.860   8.227  0.00  0.00     0.055 C 
HETATM    6  C   UNK N   1      34.477  17.389   8.841  0.00  0.00     0.274 C 
HETATM    7  N   UNK N   1      34.633  15.917   8.968  0.00  0.00     0.089 N 
HETATM    8  C   UNK N   1      33.639  15.199   8.171  0.00  0.00     0.274 C 
HETATM    9  C   UNK N   1      32.242  15.505   8.719  0.00  0.00     0.055 C 
BRANCH   7  10
HETATM   10  C   UNK N   1      34.441  15.432  10.342  0.00  0.00     0.291 C 
BRANCH  10  11
HETATM   11  C   UNK N   1      35.655  14.807  10.983  0.00  0.00     0.067 A 
HETATM   12  C   UNK N   1      35.188  13.878  12.090  0.00  0.00     0.022 A 
HETATM   13  C   UNK N   1      35.994  15.115  12.430  0.00  0.00     0.022 A 
BRANCH  11  14
HETATM   14  C   UNK N   1      36.692  14.204  10.088  0.00  0.00     0.226 C 
HETATM   15  O   UNK N   1      36.392  13.259   9.377  0.00  0.00    -0.273 OA
HETATM   16  N   UNK N   1      37.958  14.669  10.082  0.00  0.00    -0.369 N 
HETATM   17  H   UNK N   1      38.762  14.100  10.093  0.00  0.00     0.159 HD
HETATM   18  H   UNK N   1      38.087  15.644  10.067  0.00  0.00     0.159 HD
ENDBRANCH  11  14
ENDBRANCH  10  11
ENDBRANCH   7  10
ENDBRANCH   1   4
BRANCH   1  19
HETATM   19  C   UNK N   1      29.504  17.353   8.596  0.00  0.00     0.088 A 
HETATM   20  C   UNK N   1      29.008  18.797   8.529  0.00  0.00     0.027 A 
HETATM   21  C   UNK N   1      29.624  18.284   9.800  0.00  0.00     0.027 A 
ENDBRANCH   1  19
BRANCH   2  22
HETATM   22  C   UNK N   1      29.790  16.942   5.610  0.00  0.00     0.032 A 
HETATM   23  C   UNK N   1      29.287  18.078   4.970  0.00  0.00     0.017 A 
HETATM   24  C   UNK N   1      28.148  17.997   4.190  0.00  0.00     0.011 A 
HETATM   25  C   UNK N   1      27.512  16.764   4.003  0.00  0.00    -0.015 A 
HETATM   26  C   UNK N   1      28.085  15.605   4.541  0.00  0.00     0.011 A 
HETATM   27  C   UNK N   1      29.223  15.693   5.329  0.00  0.00     0.017 A 
BRANCH  25  28
HETATM   28  C   UNK N   1      26.072  16.778   3.571  0.00  0.00     0.179 C 
HETATM   29  C   UNK N   1      25.718  18.255   3.423  0.00  0.00     0.061 C 
BRANCH  28  30
HETATM   30  O   UNK N   1      25.942  16.163   2.324  0.00  0.00    -0.376 OA
HETATM   31  H   UNK N   1      25.570  16.605   1.545  0.00  0.00     0.211 HD
ENDBRANCH  28  30
BRANCH  28  32
HETATM   32  C   UNK N   1      25.077  16.139   4.559  0.00  0.00     0.422 C 
HETATM   33  F   UNK N   1      25.413  16.407   5.877  0.00  0.00    -0.167 F 
HETATM   34  F   UNK N   1      25.039  14.769   4.372  0.00  0.00    -0.167 F 
HETATM   35  F   UNK N   1      23.814  16.655   4.328  0.00  0.00    -0.167 F 
ENDBRANCH  28  32
ENDBRANCH  25  28
ENDBRANCH   2  22
TORSDOF 9
ENDMDL
