MODEL 1
REMARK VINA RESULT:      -5.9      0.000      0.000
REMARK  2 active torsions:
REMARK  status: ('A' for Active; 'I' for Inactive)
REMARK    1  A    between atoms: C_7  and  N_8 
REMARK    2  A    between atoms: N_8  and  C_9 
ROOT
HETATM    1  N   UNK N   1      20.621  14.292   8.536  0.00  0.00    -0.365 N 
HETATM    2  H   UNK N   1      20.304  13.875   7.702  0.00  0.00     0.165 HD
ENDROOT
BRANCH   1   3
HETATM    3  C   UNK N   1      20.289  15.641   8.822  0.00  0.00     0.101 C 
HETATM    4  C   UNK N   1      20.626  16.652   8.022  0.00  0.00     0.034 A 
HETATM    5  C   UNK N   1      21.375  16.585   6.742  0.00  0.00     0.073 A 
HETATM    6  C   UNK N   1      20.308  18.017   8.282  0.00  0.00     0.290 A 
HETATM    7  C   UNK N   1      21.427  18.089   6.329  0.00  0.00     0.184 A 
HETATM    8  O   UNK N   1      20.769  18.810   7.316  0.00  0.00    -0.317 OA
HETATM    9  O   UNK N   1      19.696  18.426   9.254  0.00  0.00    -0.260 OA
ENDBRANCH   1   3
BRANCH   1  10
HETATM   10  C   UNK N   1      21.407  13.544   9.449  0.00  0.00     0.031 A 
HETATM   11  C   UNK N   1      20.793  12.880  10.517  0.00  0.00     0.029 A 
HETATM   12  C   UNK N   1      21.567  12.141  11.420  0.00  0.00     0.002 A 
HETATM   13  C   UNK N   1      22.955  12.062  11.258  0.00  0.00     0.000 A 
HETATM   14  C   UNK N   1      23.571  12.723  10.193  0.00  0.00     0.002 A 
HETATM   15  C   UNK N   1      22.802  13.460   9.294  0.00  0.00     0.029 A 
ENDBRANCH   1  10
TORSDOF 2
ENDMDL
MODEL 2
REMARK VINA RESULT:      -5.6     16.633     18.166
REMARK  2 active torsions:
REMARK  status: ('A' for Active; 'I' for Inactive)
REMARK    1  A    between atoms: C_7  and  N_8 
REMARK    2  A    between atoms: N_8  and  C_9 
ROOT
HETATM    1  N   UNK N   1      27.859  24.071  -4.754  0.00  0.00    -0.365 N 
HETATM    2  H   UNK N   1      27.917  23.466  -5.529  0.00  0.00     0.165 HD
ENDROOT
BRANCH   1   3
HETATM    3  C   UNK N   1      28.646  23.822  -3.601  0.00  0.00     0.101 C 
HETATM    4  C   UNK N   1      29.606  22.898  -3.570  0.00  0.00     0.034 A 
HETATM    5  C   UNK N   1      30.027  21.989  -4.665  0.00  0.00     0.073 A 
HETATM    6  C   UNK N   1      30.414  22.624  -2.427  0.00  0.00     0.290 A 
HETATM    7  C   UNK N   1      31.172  21.180  -3.980  0.00  0.00     0.184 A 
HETATM    8  O   UNK N   1      31.289  21.652  -2.680  0.00  0.00    -0.317 OA
HETATM    9  O   UNK N   1      30.331  23.193  -1.352  0.00  0.00    -0.260 OA
ENDBRANCH   1   3
BRANCH   1  10
HETATM   10  C   UNK N   1      26.989  25.190  -4.793  0.00  0.00     0.031 A 
HETATM   11  C   UNK N   1      26.905  26.048  -3.690  0.00  0.00     0.029 A 
HETATM   12  C   UNK N   1      26.047  27.154  -3.726  0.00  0.00     0.002 A 
HETATM   13  C   UNK N   1      25.271  27.406  -4.862  0.00  0.00     0.000 A 
HETATM   14  C   UNK N   1      25.351  26.553  -5.965  0.00  0.00     0.002 A 
HETATM   15  C   UNK N   1      26.205  25.451  -5.931  0.00  0.00     0.029 A 
ENDBRANCH   1  10
TORSDOF 2
ENDMDL
MODEL 3
REMARK VINA RESULT:      -5.5      9.907     11.493
REMARK  2 active torsions:
REMARK  status: ('A' for Active; 'I' for Inactive)
REMARK    1  A    between atoms: C_7  and  N_8 
REMARK    2  A    between atoms: N_8  and  C_9 
ROOT
HETATM    1  N   UNK N   1      30.024  16.850   6.799  0.00  0.00    -0.365 N 
HETATM    2  H   UNK N   1      29.735  16.181   7.461  0.00  0.00     0.165 HD
ENDROOT
BRANCH   1   3
HETATM    3  C   UNK N   1      31.304  16.743   6.198  0.00  0.00     0.101 C 
HETATM    4  C   UNK N   1      32.403  17.257   6.749  0.00  0.00     0.034 A 
HETATM    5  C   UNK N   1      32.514  18.003   8.027  0.00  0.00     0.073 A 
HETATM    6  C   UNK N   1      33.703  17.167   6.171  0.00  0.00     0.290 A 
HETATM    7  C   UNK N   1      34.043  18.313   8.079  0.00  0.00     0.184 A 
HETATM    8  O   UNK N   1      34.612  17.769   6.936  0.00  0.00    -0.317 OA
HETATM    9  O   UNK N   1      33.969  16.617   5.115  0.00  0.00    -0.260 OA
ENDBRANCH   1   3
BRANCH   1  10
HETATM   10  C   UNK N   1      29.159  17.918   6.446  0.00  0.00     0.031 A 
HETATM   11  C   UNK N   1      28.542  18.676   7.447  0.00  0.00     0.029 A 
HETATM   12  C   UNK N   1      27.688  19.731   7.101  0.00  0.00     0.002 A 
HETATM   13  C   UNK N   1      27.450  20.031   5.755  0.00  0.00     0.000 A 
HETATM   14  C   UNK N   1      28.065  19.277   4.753  0.00  0.00     0.002 A 
HETATM   15  C   UNK N   1      28.914  18.226   5.096  0.00  0.00     0.029 A 
ENDBRANCH   1  10
TORSDOF 2
ENDMDL
MODEL 4
REMARK VINA RESULT:      -5.4     12.857     13.761
REMARK  2 active torsions:
REMARK  status: ('A' for Active; 'I' for Inactive)
REMARK    1  A    between atoms: C_7  and  N_8 
REMARK    2  A    between atoms: N_8  and  C_9 
ROOT
HETATM    1  N   UNK N   1      33.967  15.502  10.534  0.00  0.00    -0.365 N 
HETATM    2  H   UNK N   1      33.005  15.295  10.546  0.00  0.00     0.165 HD
ENDROOT
BRANCH   1   3
HETATM    3  C   UNK N   1      34.425  16.705   9.940  0.00  0.00     0.101 C 
HETATM    4  C   UNK N   1      34.236  16.990   8.652  0.00  0.00     0.034 A 
HETATM    5  C   UNK N   1      33.550  16.160   7.630  0.00  0.00     0.073 A 
HETATM    6  C   UNK N   1      34.684  18.190   8.025  0.00  0.00     0.290 A 
HETATM    7  C   UNK N   1      33.676  17.057   6.360  0.00  0.00     0.184 A 
HETATM    8  O   UNK N   1      34.359  18.207   6.734  0.00  0.00    -0.317 OA
HETATM    9  O   UNK N   1      35.286  19.093   8.580  0.00  0.00    -0.260 OA
ENDBRANCH   1   3
BRANCH   1  10
HETATM   10  C   UNK N   1      34.894  14.597  11.113  0.00  0.00     0.031 A 
HETATM   11  C   UNK N   1      35.165  13.377  10.484  0.00  0.00     0.029 A 
HETATM   12  C   UNK N   1      36.079  12.483  11.053  0.00  0.00     0.002 A 
HETATM   13  C   UNK N   1      36.726  12.805  12.251  0.00  0.00     0.000 A 
HETATM   14  C   UNK N   1      36.460  14.022  12.882  0.00  0.00     0.002 A 
HETATM   15  C   UNK N   1      35.548  14.913  12.317  0.00  0.00     0.029 A 
ENDBRANCH   1  10
TORSDOF 2
ENDMDL
MODEL 5
REMARK VINA RESULT:      -5.4     10.659     12.096
REMARK  2 active torsions:
REMARK  status: ('A' for Active; 'I' for Inactive)
REMARK    1  A    between atoms: C_7  and  N_8 
REMARK    2  A    between atoms: N_8  and  C_9 
ROOT
HETATM    1  N   UNK N   1      32.121  17.302   7.480  0.00  0.00    -0.365 N 
HETATM    2  H   UNK N   1      32.249  16.989   6.555  0.00  0.00     0.165 HD
ENDROOT
BRANCH   1   3
HETATM    3  C   UNK N   1      33.245  17.488   8.325  0.00  0.00     0.101 C 
HETATM    4  C   UNK N   1      33.730  16.521   9.103  0.00  0.00     0.034 A 
HETATM    5  C   UNK N   1      33.227  15.131   9.242  0.00  0.00     0.073 A 
HETATM    6  C   UNK N   1      34.856  16.676   9.963  0.00  0.00     0.290 A 
HETATM    7  C   UNK N   1      34.223  14.540  10.289  0.00  0.00     0.184 A 
HETATM    8  O   UNK N   1      35.117  15.549  10.622  0.00  0.00    -0.317 OA
HETATM    9  O   UNK N   1      35.509  17.698  10.093  0.00  0.00    -0.260 OA
ENDBRANCH   1   3
BRANCH   1  10
HETATM   10  C   UNK N   1      30.815  17.566   7.965  0.00  0.00     0.031 A 
HETATM   11  C   UNK N   1      30.641  18.362   9.103  0.00  0.00     0.029 A 
HETATM   12  C   UNK N   1      29.353  18.625   9.584  0.00  0.00     0.002 A 
HETATM   13  C   UNK N   1      28.235  18.095   8.930  0.00  0.00     0.000 A 
HETATM   14  C   UNK N   1      28.404  17.301   7.793  0.00  0.00     0.002 A 
HETATM   15  C   UNK N   1      29.687  17.038   7.313  0.00  0.00     0.029 A 
ENDBRANCH   1  10
TORSDOF 2
ENDMDL
MODEL 6
REMARK VINA RESULT:      -5.3     10.767     12.059
REMARK  2 active torsions:
REMARK  status: ('A' for Active; 'I' for Inactive)
REMARK    1  A    between atoms: C_7  and  N_8 
REMARK    2  A    between atoms: N_8  and  C_9 
ROOT
HETATM    1  N   UNK N   1      32.143  16.844   6.482  0.00  0.00    -0.365 N 
HETATM    2  H   UNK N   1      32.415  16.145   5.844  0.00  0.00     0.165 HD
ENDROOT
BRANCH   1   3
HETATM    3  C   UNK N   1      33.122  17.685   7.070  0.00  0.00     0.101 C 
HETATM    4  C   UNK N   1      33.826  17.329   8.144  0.00  0.00     0.034 A 
HETATM    5  C   UNK N   1      33.740  16.058   8.905  0.00  0.00     0.073 A 
HETATM    6  C   UNK N   1      34.816  18.151   8.759  0.00  0.00     0.290 A 
HETATM    7  C   UNK N   1      34.810  16.284  10.018  0.00  0.00     0.184 A 
HETATM    8  O   UNK N   1      35.357  17.543   9.812  0.00  0.00    -0.317 OA
HETATM    9  O   UNK N   1      35.139  19.266   8.384  0.00  0.00    -0.260 OA
ENDBRANCH   1   3
BRANCH   1  10
HETATM   10  C   UNK N   1      30.773  17.011   6.810  0.00  0.00     0.031 A 
HETATM   11  C   UNK N   1      29.784  16.511   5.955  0.00  0.00     0.029 A 
HETATM   12  C   UNK N   1      28.432  16.674   6.276  0.00  0.00     0.002 A 
HETATM   13  C   UNK N   1      28.063  17.336   7.452  0.00  0.00     0.000 A 
HETATM   14  C   UNK N   1      29.046  17.836   8.309  0.00  0.00     0.002 A 
HETATM   15  C   UNK N   1      30.393  17.675   7.990  0.00  0.00     0.029 A 
ENDBRANCH   1  10
TORSDOF 2
ENDMDL
MODEL 7
REMARK VINA RESULT:      -5.3     14.817     16.068
REMARK  2 active torsions:
REMARK  status: ('A' for Active; 'I' for Inactive)
REMARK    1  A    between atoms: C_7  and  N_8 
REMARK    2  A    between atoms: N_8  and  C_9 
ROOT
HETATM    1  N   UNK N   1      35.537  11.690  15.221  0.00  0.00    -0.365 N 
HETATM    2  H   UNK N   1      35.885  10.804  14.974  0.00  0.00     0.165 HD
ENDROOT
BRANCH   1   3
HETATM    3  C   UNK N   1      35.133  12.600  14.211  0.00  0.00     0.101 C 
HETATM    4  C   UNK N   1      35.861  12.834  13.120  0.00  0.00     0.034 A 
HETATM    5  C   UNK N   1      37.167  12.232  12.754  0.00  0.00     0.073 A 
HETATM    6  C   UNK N   1      35.483  13.742  12.087  0.00  0.00     0.290 A 
HETATM    7  C   UNK N   1      37.461  12.924  11.386  0.00  0.00     0.184 A 
HETATM    8  O   UNK N   1      36.399  13.778  11.121  0.00  0.00    -0.317 OA
HETATM    9  O   UNK N   1      34.461  14.407  12.072  0.00  0.00    -0.260 OA
ENDBRANCH   1   3
BRANCH   1  10
HETATM   10  C   UNK N   1      35.437  12.056  16.588  0.00  0.00     0.031 A 
HETATM   11  C   UNK N   1      35.273  13.400  16.941  0.00  0.00     0.029 A 
HETATM   12  C   UNK N   1      35.174  13.764  18.290  0.00  0.00     0.002 A 
HETATM   13  C   UNK N   1      35.238  12.786  19.289  0.00  0.00     0.000 A 
HETATM   14  C   UNK N   1      35.401  11.443  18.941  0.00  0.00     0.002 A 
HETATM   15  C   UNK N   1      35.500  11.080  17.598  0.00  0.00     0.029 A 
ENDBRANCH   1  10
TORSDOF 2
ENDMDL
MODEL 8
REMARK VINA RESULT:      -5.2     11.673     13.306
REMARK  2 active torsions:
REMARK  status: ('A' for Active; 'I' for Inactive)
REMARK    1  A    between atoms: C_7  and  N_8 
REMARK    2  A    between atoms: N_8  and  C_9 
ROOT
HETATM    1  N   UNK N   1      32.059  17.073   7.983  0.00  0.00    -0.365 N 
HETATM    2  H   UNK N   1      31.234  16.819   8.455  0.00  0.00     0.165 HD
ENDROOT
BRANCH   1   3
HETATM    3  C   UNK N   1      33.251  17.308   8.716  0.00  0.00     0.101 C 
HETATM    4  C   UNK N   1      33.869  16.353   9.411  0.00  0.00     0.034 A 
HETATM    5  C   UNK N   1      33.466  14.932   9.557  0.00  0.00     0.073 A 
HETATM    6  C   UNK N   1      35.066  16.557  10.157  0.00  0.00     0.290 A 
HETATM    7  C   UNK N   1      34.597  14.378  10.479  0.00  0.00     0.184 A 
HETATM    8  O   UNK N   1      35.459  15.432  10.752  0.00  0.00    -0.317 OA
HETATM    9  O   UNK N   1      35.668  17.614  10.252  0.00  0.00    -0.260 OA
ENDBRANCH   1   3
BRANCH   1  10
HETATM   10  C   UNK N   1      32.057  17.203   6.571  0.00  0.00     0.031 A 
HETATM   11  C   UNK N   1      33.257  17.430   5.888  0.00  0.00     0.029 A 
HETATM   12  C   UNK N   1      33.257  17.559   4.494  0.00  0.00     0.002 A 
HETATM   13  C   UNK N   1      32.059  17.461   3.778  0.00  0.00     0.000 A 
HETATM   14  C   UNK N   1      30.858  17.234   4.455  0.00  0.00     0.002 A 
HETATM   15  C   UNK N   1      30.857  17.106   5.844  0.00  0.00     0.029 A 
ENDBRANCH   1  10
TORSDOF 2
ENDMDL
MODEL 9
REMARK VINA RESULT:      -5.2     11.933     13.233
REMARK  2 active torsions:
REMARK  status: ('A' for Active; 'I' for Inactive)
REMARK    1  A    between atoms: C_7  and  N_8 
REMARK    2  A    between atoms: N_8  and  C_9 
ROOT
HETATM    1  N   UNK N   1      32.071  17.058   6.773  0.00  0.00    -0.365 N 
HETATM    2  H   UNK N   1      31.235  16.941   7.279  0.00  0.00     0.165 HD
ENDROOT
BRANCH   1   3
HETATM    3  C   UNK N   1      33.122  17.844   7.312  0.00  0.00     0.101 C 
HETATM    4  C   UNK N   1      33.868  17.441   8.340  0.00  0.00     0.034 A 
HETATM    5  C   UNK N   1      33.764  16.165   9.092  0.00  0.00     0.073 A 
HETATM    6  C   UNK N   1      34.930  18.206   8.905  0.00  0.00     0.290 A 
HETATM    7  C   UNK N   1      34.906  16.326  10.144  0.00  0.00     0.184 A 
HETATM    8  O   UNK N   1      35.500  17.560   9.920  0.00  0.00    -0.317 OA
HETATM    9  O   UNK N   1      35.285  19.309   8.524  0.00  0.00    -0.260 OA
ENDBRANCH   1   3
BRANCH   1  10
HETATM   10  C   UNK N   1      32.225  16.440   5.505  0.00  0.00     0.031 A 
HETATM   11  C   UNK N   1      31.699  15.163   5.282  0.00  0.00     0.029 A 
HETATM   12  C   UNK N   1      31.850  14.551   4.032  0.00  0.00     0.002 A 
HETATM   13  C   UNK N   1      32.524  15.214   3.001  0.00  0.00     0.000 A 
HETATM   14  C   UNK N   1      33.050  16.489   3.218  0.00  0.00     0.002 A 
HETATM   15  C   UNK N   1      32.901  17.099   4.463  0.00  0.00     0.029 A 
ENDBRANCH   1  10
TORSDOF 2
ENDMDL
