MODEL 1
REMARK VINA RESULT:      -7.5      0.000      0.000
REMARK  5 active torsions:
REMARK  status: ('A' for Active; 'I' for Inactive)
REMARK    1  A    between atoms: C_9  and  C_14 
REMARK    2  A    between atoms: C_12  and  N_13 
REMARK    3  A    between atoms: C_14  and  C_15 
REMARK    4  A    between atoms: C_15  and  N_16 
REMARK       I    between atoms: N_16  and  C_17 
REMARK    5  A    between atoms: C_17  and  C_18 
ROOT
HETATM    1  C   UNK N   1      34.413  10.585  14.630  0.00  0.00     0.048 A 
HETATM    2  C   UNK N   1      35.219  11.201  15.589  0.00  0.00     0.046 A 
HETATM    3  C   UNK N   1      35.840  12.422  15.310  0.00  0.00     0.132 A 
HETATM    4  C   UNK N   1      35.659  13.030  14.047  0.00  0.00     0.075 A 
HETATM    5  C   UNK N   1      34.871  12.393  13.087  0.00  0.00     0.086 A 
HETATM    6  C   UNK N   1      34.238  11.178  13.379  0.00  0.00     0.143 A 
HETATM    7  F   UNK N   1      33.461  10.571  12.450  0.00  0.00    -0.204 F 
HETATM    8  N   UNK N   1      34.729  12.972  11.806  0.00  0.00    -0.365 N 
HETATM    9  C   UNK N   1      35.385  14.208  11.415  0.00  0.00     0.184 A 
HETATM   10  N   UNK N   1      36.126  14.831  12.506  0.00  0.00    -0.355 N 
ATOM     11  HN  UNK N   1      36.562  15.734  12.320  1.00  0.00     0.163 HD
HETATM   12  C   UNK N   1      36.274  14.332  13.691  0.00  0.00     0.112 A 
HETATM   13  F   UNK N   1      36.618  12.992  16.262  0.00  0.00    -0.205 F 
HETATM   14  H   UNK N   1      34.158  12.516  11.147  0.00  0.00     0.162 HD
ENDROOT
BRANCH   9  15
HETATM   15  C   UNK N   1      34.346  15.189  10.871  0.00  0.00     0.066 C 
BRANCH  15  16
HETATM   16  C   UNK N   1      34.606  15.589   9.412  0.00  0.00     0.126 C 
BRANCH  16  17
HETATM   17  N   UNK N   1      35.011  16.972   9.321  0.00  0.00    -0.357 N 
HETATM   18  C   UNK N   1      34.556  17.864   8.402  0.00  0.00     0.253 C 
HETATM   19  O   UNK N   1      34.968  19.012   8.458  0.00  0.00    -0.268 OA
HETATM   20  H   UNK N   1      35.672  17.293   9.976  0.00  0.00     0.162 HD
BRANCH  18  21
HETATM   21  C   UNK N   1      33.590  17.510   7.331  0.00  0.00     0.056 A 
HETATM   22  C   UNK N   1      32.218  17.507   7.481  0.00  0.00     0.043 A 
HETATM   23  C   UNK N   1      31.713  17.137   6.250  0.00  0.00     0.142 A 
HETATM   24  O   UNK N   1      32.711  16.932   5.420  0.00  0.00    -0.334 OA
HETATM   25  C   UNK N   1      33.855  17.145   6.028  0.00  0.00     0.158 A 
ENDBRANCH  18  21
ENDBRANCH  16  17
ENDBRANCH  15  16
ENDBRANCH   9  15
BRANCH  12  26
HETATM   26  N   UNK N   1      37.030  15.051  14.642  0.00  0.00    -0.385 N 
HETATM   27  H   UNK N   1      38.014  15.010  14.624  0.00  0.00     0.157 HD
HETATM   28  H   UNK N   1      36.574  15.595  15.324  0.00  0.00     0.157 HD
ENDBRANCH  12  26
TORSDOF 5
ENDMDL
MODEL 2
REMARK VINA RESULT:      -7.4      1.414      1.966
REMARK  5 active torsions:
REMARK  status: ('A' for Active; 'I' for Inactive)
REMARK    1  A    between atoms: C_9  and  C_14 
REMARK    2  A    between atoms: C_12  and  N_13 
REMARK    3  A    between atoms: C_14  and  C_15 
REMARK    4  A    between atoms: C_15  and  N_16 
REMARK       I    between atoms: N_16  and  C_17 
REMARK    5  A    between atoms: C_17  and  C_18 
ROOT
HETATM    1  C   UNK N   1      33.793  10.825  14.733  0.00  0.00     0.048 A 
HETATM    2  C   UNK N   1      34.345  11.643  15.720  0.00  0.00     0.046 A 
HETATM    3  C   UNK N   1      35.219  12.676  15.371  0.00  0.00     0.132 A 
HETATM    4  C   UNK N   1      35.553  12.888  14.014  0.00  0.00     0.075 A 
HETATM    5  C   UNK N   1      35.013  12.049  13.038  0.00  0.00     0.086 A 
HETATM    6  C   UNK N   1      34.125  11.025  13.392  0.00  0.00     0.143 A 
HETATM    7  F   UNK N   1      33.590  10.222  12.440  0.00  0.00    -0.204 F 
HETATM    8  N   UNK N   1      35.383  12.225  11.686  0.00  0.00    -0.365 N 
HETATM    9  C   UNK N   1      36.327  13.237  11.245  0.00  0.00     0.184 A 
HETATM   10  N   UNK N   1      36.779  14.105  12.327  0.00  0.00    -0.355 N 
ATOM     11  HN  UNK N   1      37.398  14.878  12.079  1.00  0.00     0.163 HD
HETATM   12  C   UNK N   1      36.458  13.976  13.574  0.00  0.00     0.112 A 
HETATM   13  F   UNK N   1      35.741  13.451  16.354  0.00  0.00    -0.205 F 
HETATM   14  H   UNK N   1      34.982  11.632  11.010  0.00  0.00     0.162 HD
ENDROOT
BRANCH   9  15
HETATM   15  C   UNK N   1      35.695  14.079  10.136  0.00  0.00     0.066 C 
BRANCH  15  16
HETATM   16  C   UNK N   1      34.327  14.655  10.528  0.00  0.00     0.126 C 
BRANCH  16  17
HETATM   17  N   UNK N   1      33.298  14.198   9.624  0.00  0.00    -0.357 N 
HETATM   18  C   UNK N   1      32.901  14.844   8.496  0.00  0.00     0.253 C 
HETATM   19  O   UNK N   1      32.033  14.329   7.809  0.00  0.00    -0.268 OA
HETATM   20  H   UNK N   1      32.847  13.350   9.843  0.00  0.00     0.162 HD
BRANCH  18  21
HETATM   21  C   UNK N   1      33.464  16.149   8.063  0.00  0.00     0.056 A 
HETATM   22  C   UNK N   1      33.136  17.368   8.621  0.00  0.00     0.043 A 
HETATM   23  C   UNK N   1      33.892  18.301   7.937  0.00  0.00     0.142 A 
HETATM   24  O   UNK N   1      34.620  17.685   7.033  0.00  0.00    -0.334 OA
HETATM   25  C   UNK N   1      34.394  16.393   7.076  0.00  0.00     0.158 A 
ENDBRANCH  18  21
ENDBRANCH  16  17
ENDBRANCH  15  16
ENDBRANCH   9  15
BRANCH  12  26
HETATM   26  N   UNK N   1      36.985  14.894  14.510  0.00  0.00    -0.385 N 
HETATM   27  H   UNK N   1      36.588  14.964  15.408  0.00  0.00     0.157 HD
HETATM   28  H   UNK N   1      37.748  15.463  14.264  0.00  0.00     0.157 HD
ENDBRANCH  12  26
TORSDOF 5
ENDMDL
MODEL 3
REMARK VINA RESULT:      -7.1      6.929      9.943
REMARK  5 active torsions:
REMARK  status: ('A' for Active; 'I' for Inactive)
REMARK    1  A    between atoms: C_9  and  C_14 
REMARK    2  A    between atoms: C_12  and  N_13 
REMARK    3  A    between atoms: C_14  and  C_15 
REMARK    4  A    between atoms: C_15  and  N_16 
REMARK       I    between atoms: N_16  and  C_17 
REMARK    5  A    between atoms: C_17  and  C_18 
ROOT
HETATM    1  C   UNK N   1      26.993  20.904   5.398  0.00  0.00     0.048 A 
HETATM    2  C   UNK N   1      27.133  20.636   6.760  0.00  0.00     0.046 A 
HETATM    3  C   UNK N   1      27.825  19.499   7.188  0.00  0.00     0.132 A 
HETATM    4  C   UNK N   1      28.378  18.613   6.236  0.00  0.00     0.075 A 
HETATM    5  C   UNK N   1      28.212  18.879   4.876  0.00  0.00     0.086 A 
HETATM    6  C   UNK N   1      27.531  20.028   4.454  0.00  0.00     0.143 A 
HETATM    7  F   UNK N   1      27.385  20.291   3.133  0.00  0.00    -0.204 F 
HETATM    8  N   UNK N   1      28.720  17.970   3.921  0.00  0.00    -0.365 N 
HETATM    9  C   UNK N   1      29.402  16.738   4.280  0.00  0.00     0.184 A 
HETATM   10  N   UNK N   1      29.587  16.587   5.718  0.00  0.00    -0.355 N 
ATOM     11  HN  UNK N   1      30.113  15.773   6.039  1.00  0.00     0.163 HD
HETATM   12  C   UNK N   1      29.140  17.400   6.620  0.00  0.00     0.112 A 
HETATM   13  F   UNK N   1      27.940  19.265   8.518  0.00  0.00    -0.205 F 
HETATM   14  H   UNK N   1      28.605  18.181   2.967  0.00  0.00     0.162 HD
ENDROOT
BRANCH   9  15
HETATM   15  C   UNK N   1      30.758  16.681   3.575  0.00  0.00     0.066 C 
BRANCH  15  16
HETATM   16  C   UNK N   1      31.825  17.548   4.258  0.00  0.00     0.126 C 
BRANCH  16  17
HETATM   17  N   UNK N   1      33.103  16.875   4.275  0.00  0.00    -0.357 N 
HETATM   18  C   UNK N   1      33.772  16.490   5.393  0.00  0.00     0.253 C 
HETATM   19  O   UNK N   1      34.836  15.906   5.258  0.00  0.00    -0.268 OA
HETATM   20  H   UNK N   1      33.523  16.682   3.406  0.00  0.00     0.162 HD
BRANCH  18  21
HETATM   21  C   UNK N   1      33.278  16.751   6.770  0.00  0.00     0.056 A 
HETATM   22  C   UNK N   1      33.408  17.953   7.435  0.00  0.00     0.043 A 
HETATM   23  C   UNK N   1      32.805  17.763   8.663  0.00  0.00     0.142 A 
HETATM   24  O   UNK N   1      32.345  16.533   8.729  0.00  0.00    -0.334 OA
HETATM   25  C   UNK N   1      32.608  15.892   7.614  0.00  0.00     0.158 A 
ENDBRANCH  18  21
ENDBRANCH  16  17
ENDBRANCH  15  16
ENDBRANCH   9  15
BRANCH  12  26
HETATM   26  N   UNK N   1      29.393  17.113   7.980  0.00  0.00    -0.385 N 
HETATM   27  H   UNK N   1      30.308  16.907   8.278  0.00  0.00     0.157 HD
HETATM   28  H   UNK N   1      28.654  17.119   8.630  0.00  0.00     0.157 HD
ENDBRANCH  12  26
TORSDOF 5
ENDMDL
MODEL 4
REMARK VINA RESULT:      -7.1      6.266      9.792
REMARK  5 active torsions:
REMARK  status: ('A' for Active; 'I' for Inactive)
REMARK    1  A    between atoms: C_9  and  C_14 
REMARK    2  A    between atoms: C_12  and  N_13 
REMARK    3  A    between atoms: C_14  and  C_15 
REMARK    4  A    between atoms: C_15  and  N_16 
REMARK       I    between atoms: N_16  and  C_17 
REMARK    5  A    between atoms: C_17  and  C_18 
ROOT
HETATM    1  C   UNK N   1      27.750  16.689   4.063  0.00  0.00     0.048 A 
HETATM    2  C   UNK N   1      27.448  17.983   3.637  0.00  0.00     0.046 A 
HETATM    3  C   UNK N   1      27.372  19.030   4.561  0.00  0.00     0.132 A 
HETATM    4  C   UNK N   1      27.594  18.775   5.933  0.00  0.00     0.075 A 
HETATM    5  C   UNK N   1      27.872  17.472   6.350  0.00  0.00     0.086 A 
HETATM    6  C   UNK N   1      27.962  16.431   5.419  0.00  0.00     0.143 A 
HETATM    7  F   UNK N   1      28.248  15.170   5.826  0.00  0.00    -0.204 F 
HETATM    8  N   UNK N   1      28.044  17.204   7.727  0.00  0.00    -0.365 N 
HETATM    9  C   UNK N   1      27.927  18.222   8.756  0.00  0.00     0.184 A 
HETATM   10  N   UNK N   1      27.705  19.558   8.215  0.00  0.00    -0.355 N 
ATOM     11  HN  UNK N   1      27.673  20.332   8.879  1.00  0.00     0.163 HD
HETATM   12  C   UNK N   1      27.547  19.841   6.962  0.00  0.00     0.112 A 
HETATM   13  F   UNK N   1      27.074  20.275   4.114  0.00  0.00    -0.205 F 
HETATM   14  H   UNK N   1      28.253  16.282   8.001  0.00  0.00     0.162 HD
ENDROOT
BRANCH   9  15
HETATM   15  C   UNK N   1      29.185  18.218   9.625  0.00  0.00     0.066 C 
BRANCH  15  16
HETATM   16  C   UNK N   1      30.471  18.006   8.816  0.00  0.00     0.126 C 
BRANCH  16  17
HETATM   17  N   UNK N   1      31.151  16.802   9.235  0.00  0.00    -0.357 N 
HETATM   18  C   UNK N   1      32.262  16.284   8.649  0.00  0.00     0.253 C 
HETATM   19  O   UNK N   1      32.748  15.270   9.125  0.00  0.00    -0.268 OA
HETATM   20  H   UNK N   1      30.778  16.318  10.007  0.00  0.00     0.162 HD
BRANCH  18  21
HETATM   21  C   UNK N   1      32.910  16.885   7.455  0.00  0.00     0.056 A 
HETATM   22  C   UNK N   1      32.439  16.765   6.163  0.00  0.00     0.043 A 
HETATM   23  C   UNK N   1      33.323  17.480   5.380  0.00  0.00     0.142 A 
HETATM   24  O   UNK N   1      34.259  17.994   6.147  0.00  0.00    -0.334 OA
HETATM   25  C   UNK N   1      34.048  17.662   7.400  0.00  0.00     0.158 A 
ENDBRANCH  18  21
ENDBRANCH  16  17
ENDBRANCH  15  16
ENDBRANCH   9  15
BRANCH  12  26
HETATM   26  N   UNK N   1      27.332  21.187   6.591  0.00  0.00    -0.385 N 
HETATM   27  H   UNK N   1      26.451  21.470   6.253  0.00  0.00     0.157 HD
HETATM   28  H   UNK N   1      28.061  21.842   6.671  0.00  0.00     0.157 HD
ENDBRANCH  12  26
TORSDOF 5
ENDMDL
MODEL 5
REMARK VINA RESULT:      -7.0      4.206      8.322
REMARK  5 active torsions:
REMARK  status: ('A' for Active; 'I' for Inactive)
REMARK    1  A    between atoms: C_9  and  C_14 
REMARK    2  A    between atoms: C_12  and  N_13 
REMARK    3  A    between atoms: C_14  and  C_15 
REMARK    4  A    between atoms: C_15  and  N_16 
REMARK       I    between atoms: N_16  and  C_17 
REMARK    5  A    between atoms: C_17  and  C_18 
ROOT
HETATM    1  C   UNK N   1      33.179  17.910   7.035  0.00  0.00     0.048 A 
HETATM    2  C   UNK N   1      32.295  16.869   6.748  0.00  0.00     0.046 A 
HETATM    3  C   UNK N   1      32.356  15.673   7.469  0.00  0.00     0.132 A 
HETATM    4  C   UNK N   1      33.324  15.514   8.487  0.00  0.00     0.075 A 
HETATM    5  C   UNK N   1      34.218  16.553   8.750  0.00  0.00     0.086 A 
HETATM    6  C   UNK N   1      34.141  17.755   8.035  0.00  0.00     0.143 A 
HETATM    7  F   UNK N   1      35.001  18.768   8.303  0.00  0.00    -0.204 F 
HETATM    8  N   UNK N   1      35.219  16.380   9.731  0.00  0.00    -0.365 N 
HETATM    9  C   UNK N   1      35.388  15.150  10.486  0.00  0.00     0.184 A 
HETATM   10  N   UNK N   1      34.365  14.154  10.190  0.00  0.00    -0.355 N 
ATOM     11  HN  UNK N   1      34.386  13.287  10.728  1.00  0.00     0.163 HD
HETATM   12  C   UNK N   1      33.432  14.280   9.302  0.00  0.00     0.112 A 
HETATM   13  F   UNK N   1      31.485  14.680   7.163  0.00  0.00    -0.205 F 
HETATM   14  H   UNK N   1      35.832  17.128   9.912  0.00  0.00     0.162 HD
ENDROOT
BRANCH   9  15
HETATM   15  C   UNK N   1      35.387  15.464  11.983  0.00  0.00     0.066 C 
BRANCH  15  16
HETATM   16  C   UNK N   1      36.064  14.373  12.824  0.00  0.00     0.126 C 
BRANCH  16  17
HETATM   17  N   UNK N   1      36.811  14.953  13.915  0.00  0.00    -0.357 N 
HETATM   18  C   UNK N   1      36.920  14.422  15.161  0.00  0.00     0.253 C 
HETATM   19  O   UNK N   1      37.607  15.009  15.982  0.00  0.00    -0.268 OA
HETATM   20  H   UNK N   1      37.278  15.802  13.742  0.00  0.00     0.162 HD
BRANCH  18  21
HETATM   21  C   UNK N   1      36.238  13.169  15.576  0.00  0.00     0.056 A 
HETATM   22  C   UNK N   1      36.765  11.902  15.423  0.00  0.00     0.043 A 
HETATM   23  C   UNK N   1      35.820  11.044  15.949  0.00  0.00     0.142 A 
HETATM   24  O   UNK N   1      34.798  11.745  16.386  0.00  0.00    -0.334 OA
HETATM   25  C   UNK N   1      35.008  13.025  16.182  0.00  0.00     0.158 A 
ENDBRANCH  18  21
ENDBRANCH  16  17
ENDBRANCH  15  16
ENDBRANCH   9  15
BRANCH  12  26
HETATM   26  N   UNK N   1      32.516  13.220   9.123  0.00  0.00    -0.385 N 
HETATM   27  H   UNK N   1      32.189  12.715   9.902  0.00  0.00     0.157 HD
HETATM   28  H   UNK N   1      32.203  12.987   8.220  0.00  0.00     0.157 HD
ENDBRANCH  12  26
TORSDOF 5
ENDMDL
MODEL 6
REMARK VINA RESULT:      -6.9      4.017      8.028
REMARK  5 active torsions:
REMARK  status: ('A' for Active; 'I' for Inactive)
REMARK    1  A    between atoms: C_9  and  C_14 
REMARK    2  A    between atoms: C_12  and  N_13 
REMARK    3  A    between atoms: C_14  and  C_15 
REMARK    4  A    between atoms: C_15  and  N_16 
REMARK       I    between atoms: N_16  and  C_17 
REMARK    5  A    between atoms: C_17  and  C_18 
ROOT
HETATM    1  C   UNK N   1      34.073  14.177   6.017  0.00  0.00     0.048 A 
HETATM    2  C   UNK N   1      33.989  15.507   5.604  0.00  0.00     0.046 A 
HETATM    3  C   UNK N   1      34.169  16.544   6.525  0.00  0.00     0.132 A 
HETATM    4  C   UNK N   1      34.428  16.243   7.881  0.00  0.00     0.075 A 
HETATM    5  C   UNK N   1      34.485  14.909   8.287  0.00  0.00     0.086 A 
HETATM    6  C   UNK N   1      34.320  13.875   7.358  0.00  0.00     0.143 A 
HETATM    7  F   UNK N   1      34.392  12.580   7.753  0.00  0.00    -0.204 F 
HETATM    8  N   UNK N   1      34.693  14.605   9.651  0.00  0.00    -0.365 N 
HETATM    9  C   UNK N   1      34.834  15.620  10.680  0.00  0.00     0.184 A 
HETATM   10  N   UNK N   1      34.830  16.978  10.147  0.00  0.00    -0.355 N 
ATOM     11  HN  UNK N   1      34.985  17.740  10.806  1.00  0.00     0.163 HD
HETATM   12  C   UNK N   1      34.647  17.293   8.905  0.00  0.00     0.112 A 
HETATM   13  F   UNK N   1      34.079  17.825   6.091  0.00  0.00    -0.205 F 
HETATM   14  H   UNK N   1      34.744  13.658   9.917  0.00  0.00     0.162 HD
ENDROOT
BRANCH   9  15
HETATM   15  C   UNK N   1      36.123  15.378  11.466  0.00  0.00     0.066 C 
BRANCH  15  16
HETATM   16  C   UNK N   1      35.897  14.570  12.752  0.00  0.00     0.126 C 
BRANCH  16  17
HETATM   17  N   UNK N   1      36.673  15.112  13.843  0.00  0.00    -0.357 N 
HETATM   18  C   UNK N   1      36.906  14.487  15.027  0.00  0.00     0.253 C 
HETATM   19  O   UNK N   1      37.602  15.054  15.854  0.00  0.00    -0.268 OA
HETATM   20  H   UNK N   1      37.063  16.008  13.720  0.00  0.00     0.162 HD
BRANCH  18  21
HETATM   21  C   UNK N   1      36.349  13.152  15.367  0.00  0.00     0.056 A 
HETATM   22  C   UNK N   1      35.177  12.946  16.066  0.00  0.00     0.043 A 
HETATM   23  C   UNK N   1      35.030  11.575  16.144  0.00  0.00     0.142 A 
HETATM   24  O   UNK N   1      36.042  10.999  15.535  0.00  0.00    -0.334 OA
HETATM   25  C   UNK N   1      36.857  11.909  15.054  0.00  0.00     0.158 A 
ENDBRANCH  18  21
ENDBRANCH  16  17
ENDBRANCH  15  16
ENDBRANCH   9  15
BRANCH  12  26
HETATM   26  N   UNK N   1      34.661  18.657   8.541  0.00  0.00    -0.385 N 
HETATM   27  H   UNK N   1      34.029  19.286   8.959  0.00  0.00     0.157 HD
HETATM   28  H   UNK N   1      35.303  18.981   7.869  0.00  0.00     0.157 HD
ENDBRANCH  12  26
TORSDOF 5
ENDMDL
MODEL 7
REMARK VINA RESULT:      -6.7      4.376      8.714
REMARK  5 active torsions:
REMARK  status: ('A' for Active; 'I' for Inactive)
REMARK    1  A    between atoms: C_9  and  C_14 
REMARK    2  A    between atoms: C_12  and  N_13 
REMARK    3  A    between atoms: C_14  and  C_15 
REMARK    4  A    between atoms: C_15  and  N_16 
REMARK       I    between atoms: N_16  and  C_17 
REMARK    5  A    between atoms: C_17  and  C_18 
ROOT
HETATM    1  C   UNK N   1      28.145  19.132   7.913  0.00  0.00     0.048 A 
HETATM    2  C   UNK N   1      28.090  18.872   6.543  0.00  0.00     0.046 A 
HETATM    3  C   UNK N   1      29.002  17.990   5.956  0.00  0.00     0.132 A 
HETATM    4  C   UNK N   1      29.990  17.366   6.751  0.00  0.00     0.075 A 
HETATM    5  C   UNK N   1      30.050  17.652   8.116  0.00  0.00     0.086 A 
HETATM    6  C   UNK N   1      29.124  18.525   8.701  0.00  0.00     0.143 A 
HETATM    7  F   UNK N   1      29.176  18.788  10.030  0.00  0.00    -0.204 F 
HETATM    8  N   UNK N   1      31.067  17.070   8.905  0.00  0.00    -0.365 N 
HETATM    9  C   UNK N   1      32.087  16.188   8.365  0.00  0.00     0.184 A 
HETATM   10  N   UNK N   1      31.896  15.896   6.949  0.00  0.00    -0.355 N 
ATOM     11  HN  UNK N   1      32.541  15.234   6.516  1.00  0.00     0.163 HD
HETATM   12  C   UNK N   1      30.975  16.407   6.197  0.00  0.00     0.112 A 
HETATM   13  F   UNK N   1      28.923  17.760   4.622  0.00  0.00    -0.205 F 
HETATM   14  H   UNK N   1      31.086  17.273   9.868  0.00  0.00     0.162 HD
ENDROOT
BRANCH   9  15
HETATM   15  C   UNK N   1      32.111  14.884   9.163  0.00  0.00     0.066 C 
BRANCH  15  16
HETATM   16  C   UNK N   1      33.383  14.722  10.007  0.00  0.00     0.126 C 
BRANCH  16  17
HETATM   17  N   UNK N   1      34.121  15.962  10.070  0.00  0.00    -0.357 N 
HETATM   18  C   UNK N   1      35.338  16.122  10.652  0.00  0.00     0.253 C 
HETATM   19  O   UNK N   1      35.859  17.225  10.609  0.00  0.00    -0.268 OA
HETATM   20  H   UNK N   1      33.707  16.755   9.659  0.00  0.00     0.162 HD
BRANCH  18  21
HETATM   21  C   UNK N   1      36.062  15.024  11.344  0.00  0.00     0.056 A 
HETATM   22  C   UNK N   1      35.937  14.726  12.685  0.00  0.00     0.043 A 
HETATM   23  C   UNK N   1      36.762  13.639  12.900  0.00  0.00     0.142 A 
HETATM   24  O   UNK N   1      37.343  13.310  11.767  0.00  0.00    -0.334 OA
HETATM   25  C   UNK N   1      36.949  14.116  10.808  0.00  0.00     0.158 A 
ENDBRANCH  18  21
ENDBRANCH  16  17
ENDBRANCH  15  16
ENDBRANCH   9  15
BRANCH  12  26
HETATM   26  N   UNK N   1      30.923  16.032   4.836  0.00  0.00    -0.385 N 
HETATM   27  H   UNK N   1      31.391  16.570   4.158  0.00  0.00     0.157 HD
HETATM   28  H   UNK N   1      30.418  15.232   4.565  0.00  0.00     0.157 HD
ENDBRANCH  12  26
TORSDOF 5
ENDMDL
MODEL 8
REMARK VINA RESULT:      -6.6      6.024      9.905
REMARK  5 active torsions:
REMARK  status: ('A' for Active; 'I' for Inactive)
REMARK    1  A    between atoms: C_9  and  C_14 
REMARK    2  A    between atoms: C_12  and  N_13 
REMARK    3  A    between atoms: C_14  and  C_15 
REMARK    4  A    between atoms: C_15  and  N_16 
REMARK       I    between atoms: N_16  and  C_17 
REMARK    5  A    between atoms: C_17  and  C_18 
ROOT
HETATM    1  C   UNK N   1      26.749  20.592   4.650  0.00  0.00     0.048 A 
HETATM    2  C   UNK N   1      26.373  20.936   5.948  0.00  0.00     0.046 A 
HETATM    3  C   UNK N   1      26.949  20.287   7.045  0.00  0.00     0.132 A 
HETATM    4  C   UNK N   1      27.910  19.272   6.836  0.00  0.00     0.075 A 
HETATM    5  C   UNK N   1      28.261  18.920   5.532  0.00  0.00     0.086 A 
HETATM    6  C   UNK N   1      27.692  19.584   4.438  0.00  0.00     0.143 A 
HETATM    7  F   UNK N   1      28.047  19.250   3.174  0.00  0.00    -0.204 F 
HETATM    8  N   UNK N   1      29.184  17.872   5.318  0.00  0.00    -0.365 N 
HETATM    9  C   UNK N   1      29.786  17.110   6.398  0.00  0.00     0.184 A 
HETATM   10  N   UNK N   1      29.411  17.599   7.720  0.00  0.00    -0.355 N 
ATOM     11  HN  UNK N   1      29.845  17.149   8.526  1.00  0.00     0.163 HD
HETATM   12  C   UNK N   1      28.574  18.558   7.953  0.00  0.00     0.112 A 
HETATM   13  F   UNK N   1      26.559  20.643   8.294  0.00  0.00    -0.205 F 
HETATM   14  H   UNK N   1      29.430  17.646   4.392  0.00  0.00     0.162 HD
ENDROOT
BRANCH   9  15
HETATM   15  C   UNK N   1      31.309  17.130   6.253  0.00  0.00     0.066 C 
BRANCH  15  16
HETATM   16  C   UNK N   1      32.040  17.074   7.601  0.00  0.00     0.126 C 
BRANCH  16  17
HETATM   17  N   UNK N   1      33.005  18.143   7.709  0.00  0.00    -0.357 N 
HETATM   18  C   UNK N   1      34.226  18.042   8.295  0.00  0.00     0.253 C 
HETATM   19  O   UNK N   1      34.953  19.023   8.293  0.00  0.00    -0.268 OA
HETATM   20  H   UNK N   1      32.756  19.017   7.328  0.00  0.00     0.162 HD
BRANCH  18  21
HETATM   21  C   UNK N   1      34.718  16.799   8.944  0.00  0.00     0.056 A 
HETATM   22  C   UNK N   1      34.980  15.618   8.281  0.00  0.00     0.043 A 
HETATM   23  C   UNK N   1      35.426  14.741   9.250  0.00  0.00     0.142 A 
HETATM   24  O   UNK N   1      35.431  15.353  10.413  0.00  0.00    -0.334 OA
HETATM   25  C   UNK N   1      35.014  16.590  10.275  0.00  0.00     0.158 A 
ENDBRANCH  18  21
ENDBRANCH  16  17
ENDBRANCH  15  16
ENDBRANCH   9  15
BRANCH  12  26
HETATM   26  N   UNK N   1      28.304  18.914   9.293  0.00  0.00    -0.385 N 
HETATM   27  H   UNK N   1      27.390  19.160   9.563  0.00  0.00     0.157 HD
HETATM   28  H   UNK N   1      29.030  18.916   9.957  0.00  0.00     0.157 HD
ENDBRANCH  12  26
TORSDOF 5
ENDMDL
MODEL 9
REMARK VINA RESULT:      -6.6      1.861      3.190
REMARK  5 active torsions:
REMARK  status: ('A' for Active; 'I' for Inactive)
REMARK    1  A    between atoms: C_9  and  C_14 
REMARK    2  A    between atoms: C_12  and  N_13 
REMARK    3  A    between atoms: C_14  and  C_15 
REMARK    4  A    between atoms: C_15  and  N_16 
REMARK       I    between atoms: N_16  and  C_17 
REMARK    5  A    between atoms: C_17  and  C_18 
ROOT
HETATM    1  C   UNK N   1      36.335  13.619  16.148  0.00  0.00     0.048 A 
HETATM    2  C   UNK N   1      35.625  12.436  16.363  0.00  0.00     0.046 A 
HETATM    3  C   UNK N   1      34.993  11.790  15.296  0.00  0.00     0.132 A 
HETATM    4  C   UNK N   1      35.065  12.341  13.997  0.00  0.00     0.075 A 
HETATM    5  C   UNK N   1      35.758  13.537  13.799  0.00  0.00     0.086 A 
HETATM    6  C   UNK N   1      36.402  14.171  14.868  0.00  0.00     0.143 A 
HETATM    7  F   UNK N   1      37.087  15.324  14.668  0.00  0.00    -0.204 F 
HETATM    8  N   UNK N   1      35.789  14.118  12.511  0.00  0.00    -0.365 N 
HETATM    9  C   UNK N   1      35.113  13.542  11.362  0.00  0.00     0.184 A 
HETATM   10  N   UNK N   1      34.479  12.261  11.655  0.00  0.00    -0.355 N 
ATOM     11  HN  UNK N   1      34.037  11.769  10.879  1.00  0.00     0.163 HD
HETATM   12  C   UNK N   1      34.434  11.698  12.820  0.00  0.00     0.112 A 
HETATM   13  F   UNK N   1      34.309  10.645  15.539  0.00  0.00    -0.205 F 
HETATM   14  H   UNK N   1      36.294  14.954  12.387  0.00  0.00     0.162 HD
ENDROOT
BRANCH   9  15
HETATM   15  C   UNK N   1      36.108  13.374  10.213  0.00  0.00     0.066 C 
BRANCH  15  16
HETATM   16  C   UNK N   1      35.658  14.076   8.924  0.00  0.00     0.126 C 
BRANCH  16  17
HETATM   17  N   UNK N   1      34.266  13.808   8.651  0.00  0.00    -0.357 N 
HETATM   18  C   UNK N   1      33.383  14.699   8.128  0.00  0.00     0.253 C 
HETATM   19  O   UNK N   1      32.237  14.328   7.926  0.00  0.00    -0.268 OA
HETATM   20  H   UNK N   1      33.929  12.907   8.861  0.00  0.00     0.162 HD
BRANCH  18  21
HETATM   21  C   UNK N   1      33.740  16.103   7.799  0.00  0.00     0.056 A 
HETATM   22  C   UNK N   1      33.701  17.153   8.694  0.00  0.00     0.043 A 
HETATM   23  C   UNK N   1      34.120  18.260   7.983  0.00  0.00     0.142 A 
HETATM   24  O   UNK N   1      34.392  17.900   6.748  0.00  0.00    -0.334 OA
HETATM   25  C   UNK N   1      34.178  16.614   6.596  0.00  0.00     0.158 A 
ENDBRANCH  18  21
ENDBRANCH  16  17
ENDBRANCH  15  16
ENDBRANCH   9  15
BRANCH  12  26
HETATM   26  N   UNK N   1      33.774  10.456  12.949  0.00  0.00    -0.385 N 
HETATM   27  H   UNK N   1      34.207   9.715  13.432  0.00  0.00     0.157 HD
HETATM   28  H   UNK N   1      32.880  10.331  12.557  0.00  0.00     0.157 HD
ENDBRANCH  12  26
TORSDOF 5
ENDMDL
