REMARK  1 active torsions:
REMARK  status: ('A' for Active; 'I' for Inactive)
REMARK    1  A    between atoms: C_9  and  C_12 
REMARK       I    between atoms: C_15  and  N_22 
REMARK       I    between atoms: C_18  and  N_21 
ROOT
HETATM    1  C   UNK N   1       1.084   0.122   0.017  0.00  0.00     0.148 A 
HETATM    2  N   UNK N   1       2.286  -0.505   0.032  0.00  0.00    -0.175 N 
ATOM      3  HN  UNK N   1       2.325  -1.523   0.083  1.00  0.00     0.186 HD
HETATM    4  C   UNK N   1       3.436   0.209  -0.020  0.00  0.00     0.692 A 
HETATM    5  N   UNK N   1       3.391   1.562  -0.090  0.00  0.00    -0.023 N 
ATOM      6  HN  UNK N   1       4.256   2.101  -0.133  1.00  0.00     0.203 HD
HETATM    7  C   UNK N   1       2.194   2.199  -0.103  0.00  0.00     0.692 A 
HETATM    8  N   UNK N   1       1.045   1.481  -0.050  0.00  0.00    -0.175 N 
ATOM      9  HN  UNK N   1       0.146   1.963  -0.059  1.00  0.00     0.186 HD
HETATM   10  N   UNK N   1       2.143   3.603  -0.185  0.00  0.00    -0.234 N 
HETATM   11  N   UNK N   1       4.677  -0.457  -0.015  0.00  0.00    -0.234 N 
HETATM   12  H   UNK N   1       2.975   4.126  -0.243  0.00  0.00     0.174 HD
HETATM   13  H   UNK N   1       1.273   4.064  -0.185  0.00  0.00     0.174 HD
HETATM   14  H   UNK N   1       4.707  -1.441  -0.012  0.00  0.00     0.174 HD
HETATM   15  H   UNK N   1       5.513   0.062  -0.015  0.00  0.00     0.174 HD
ENDROOT
BRANCH   1  16
HETATM   16  C   UNK N   1      -0.188  -0.645   0.050  0.00  0.00     0.027 A 
HETATM   17  C   UNK N   1      -0.261  -2.069   0.093  0.00  0.00     0.025 A 
HETATM   18  C   UNK N   1      -1.511  -2.697   0.119  0.00  0.00     0.032 A 
HETATM   19 Br   UNK N   1       1.265  -3.234   0.114  0.00  0.00    -0.050 Br
HETATM   20  C   UNK N   1      -2.685  -1.948   0.102  0.00  0.00    -0.025 A 
HETATM   21  C   UNK N   1      -3.928  -2.585   0.135  0.00  0.00     0.012 A 
HETATM   22  C   UNK N   1      -2.619  -0.542   0.054  0.00  0.00    -0.025 A 
HETATM   23  C   UNK N   1      -5.102  -1.825   0.120  0.00  0.00     0.001 A 
HETATM   24  C   UNK N   1      -5.035  -0.428   0.069  0.00  0.00     0.001 A 
HETATM   25  C   UNK N   1      -3.794   0.213   0.036  0.00  0.00     0.012 A 
HETATM   26  C   UNK N   1      -1.382   0.092   0.029  0.00  0.00     0.029 A 
ENDBRANCH   1  16
TORSDOF 1
