MODEL 1
REMARK VINA RESULT:      -7.7      0.000      0.000
REMARK  1 active torsions:
REMARK  status: ('A' for Active; 'I' for Inactive)
REMARK    1  A    between atoms: C_9  and  C_12 
REMARK       I    between atoms: C_15  and  N_22 
REMARK       I    between atoms: C_18  and  N_21 
ROOT
HETATM    1  C   UNK N   1      35.824  13.410  12.889  0.00  0.00     0.148 A 
HETATM    2  N   UNK N   1      36.972  13.632  12.201  0.00  0.00    -0.175 N 
ATOM      3  HN  UNK N   1      37.861  13.310  12.584  1.00  0.00     0.186 HD
HETATM    4  C   UNK N   1      36.948  14.277  11.011  0.00  0.00     0.692 A 
HETATM    5  N   UNK N   1      35.770  14.705  10.495  0.00  0.00    -0.023 N 
ATOM      6  HN  UNK N   1      35.750  15.188   9.597  1.00  0.00     0.203 HD
HETATM    7  C   UNK N   1      34.617  14.491  11.176  0.00  0.00     0.692 A 
HETATM    8  N   UNK N   1      34.644  13.846  12.368  0.00  0.00    -0.175 N 
ATOM      9  HN  UNK N   1      33.775  13.687  12.878  1.00  0.00     0.186 HD
HETATM   10  N   UNK N   1      33.390  14.926  10.640  0.00  0.00    -0.234 N 
HETATM   11  N   UNK N   1      38.147  14.489  10.303  0.00  0.00    -0.234 N 
HETATM   12  H   UNK N   1      33.364  15.377   9.765  0.00  0.00     0.174 HD
HETATM   13  H   UNK N   1      32.555  14.777  11.140  0.00  0.00     0.174 HD
HETATM   14  H   UNK N   1      38.996  14.136  10.656  0.00  0.00     0.174 HD
HETATM   15  H   UNK N   1      38.136  14.990   9.456  0.00  0.00     0.174 HD
ENDROOT
BRANCH   1  16
HETATM   16  C   UNK N   1      35.828  12.684  14.185  0.00  0.00     0.027 A 
HETATM   17  C   UNK N   1      36.121  11.295  14.321  0.00  0.00     0.025 A 
HETATM   18  C   UNK N   1      36.095  10.704  15.589  0.00  0.00     0.032 A 
HETATM   19 Br   UNK N   1      36.558  10.129  12.860  0.00  0.00    -0.050 Br
HETATM   20  C   UNK N   1      35.785  11.456  16.720  0.00  0.00    -0.025 A 
HETATM   21  C   UNK N   1      35.768  10.857  17.982  0.00  0.00     0.012 A 
HETATM   22  C   UNK N   1      35.489  12.827  16.590  0.00  0.00    -0.025 A 
HETATM   23  C   UNK N   1      35.458  11.621  19.112  0.00  0.00     0.001 A 
HETATM   24  C   UNK N   1      35.161  12.982  18.982  0.00  0.00     0.001 A 
HETATM   25  C   UNK N   1      35.177  13.585  17.721  0.00  0.00     0.012 A 
HETATM   26  C   UNK N   1      35.513  13.424  15.335  0.00  0.00     0.029 A 
ENDBRANCH   1  16
TORSDOF 1
ENDMDL
MODEL 2
REMARK VINA RESULT:      -7.6      0.839      2.063
REMARK  1 active torsions:
REMARK  status: ('A' for Active; 'I' for Inactive)
REMARK    1  A    between atoms: C_9  and  C_12 
REMARK       I    between atoms: C_15  and  N_22 
REMARK       I    between atoms: C_18  and  N_21 
ROOT
HETATM    1  C   UNK N   1      35.902  12.696  13.205  0.00  0.00     0.148 A 
HETATM    2  N   UNK N   1      34.809  13.058  12.490  0.00  0.00    -0.175 N 
ATOM      3  HN  UNK N   1      33.881  12.968  12.903  1.00  0.00     0.186 HD
HETATM    4  C   UNK N   1      34.938  13.538  11.230  0.00  0.00     0.692 A 
HETATM    5  N   UNK N   1      36.169  13.663  10.675  0.00  0.00    -0.023 N 
ATOM      6  HN  UNK N   1      36.269  14.028   9.728  1.00  0.00     0.203 HD
HETATM    7  C   UNK N   1      37.269  13.302  11.382  0.00  0.00     0.692 A 
HETATM    8  N   UNK N   1      37.135  12.821  12.642  0.00  0.00    -0.175 N 
ATOM      9  HN  UNK N   1      37.964  12.549  13.171  1.00  0.00     0.186 HD
HETATM   10  N   UNK N   1      38.549  13.438  10.813  0.00  0.00    -0.234 N 
HETATM   11  N   UNK N   1      33.794  13.921  10.503  0.00  0.00    -0.234 N 
HETATM   12  H   UNK N   1      38.650  13.805   9.905  0.00  0.00     0.174 HD
HETATM   13  H   UNK N   1      39.345  13.167  11.324  0.00  0.00     0.174 HD
HETATM   14  H   UNK N   1      32.906  13.874  10.924  0.00  0.00     0.174 HD
HETATM   15  H   UNK N   1      33.884  14.234   9.574  0.00  0.00     0.174 HD
ENDROOT
BRANCH   1  16
HETATM   16  C   UNK N   1      35.781  12.189  14.597  0.00  0.00     0.027 A 
HETATM   17  C   UNK N   1      35.856  10.810  14.953  0.00  0.00     0.025 A 
HETATM   18  C   UNK N   1      35.728  10.435  16.295  0.00  0.00     0.032 A 
HETATM   19 Br   UNK N   1      36.123   9.378  13.702  0.00  0.00    -0.050 Br
HETATM   20  C   UNK N   1      35.526  11.392  17.286  0.00  0.00    -0.025 A 
HETATM   21  C   UNK N   1      35.406  11.007  18.624  0.00  0.00     0.012 A 
HETATM   22  C   UNK N   1      35.446  12.755  16.939  0.00  0.00    -0.025 A 
HETATM   23  C   UNK N   1      35.206  11.975  19.613  0.00  0.00     0.001 A 
HETATM   24  C   UNK N   1      35.123  13.328  19.267  0.00  0.00     0.001 A 
HETATM   25  C   UNK N   1      35.243  13.718  17.930  0.00  0.00     0.012 A 
HETATM   26  C   UNK N   1      35.573  13.138  15.609  0.00  0.00     0.029 A 
ENDBRANCH   1  16
TORSDOF 1
ENDMDL
MODEL 3
REMARK VINA RESULT:      -6.7     14.395     16.068
REMARK  1 active torsions:
REMARK  status: ('A' for Active; 'I' for Inactive)
REMARK    1  A    between atoms: C_9  and  C_12 
REMARK       I    between atoms: C_15  and  N_22 
REMARK       I    between atoms: C_18  and  N_21 
ROOT
HETATM    1  C   UNK N   1      21.623  16.429   6.190  0.00  0.00     0.148 A 
HETATM    2  N   UNK N   1      22.695  17.222   5.942  0.00  0.00    -0.175 N 
ATOM      3  HN  UNK N   1      23.499  17.196   6.568  1.00  0.00     0.186 HD
HETATM    4  C   UNK N   1      22.707  18.048   4.868  0.00  0.00     0.692 A 
HETATM    5  N   UNK N   1      21.642  18.085   4.030  0.00  0.00    -0.023 N 
ATOM      6  HN  UNK N   1      21.651  18.704   3.219  1.00  0.00     0.203 HD
HETATM    7  C   UNK N   1      20.564  17.299   4.270  0.00  0.00     0.692 A 
HETATM    8  N   UNK N   1      20.555  16.474   5.346  0.00  0.00    -0.175 N 
ATOM      9  HN  UNK N   1      19.742  15.884   5.525  1.00  0.00     0.186 HD
HETATM   10  N   UNK N   1      19.461  17.328   3.397  0.00  0.00    -0.234 N 
HETATM   11  N   UNK N   1      23.832  18.856   4.617  0.00  0.00    -0.234 N 
HETATM   12  H   UNK N   1      19.472  17.912   2.605  0.00  0.00     0.174 HD
HETATM   13  H   UNK N   1      18.675  16.763   3.579  0.00  0.00     0.174 HD
HETATM   14  H   UNK N   1      24.623  18.793   5.199  0.00  0.00     0.174 HD
HETATM   15  H   UNK N   1      23.827  19.484   3.859  0.00  0.00     0.174 HD
ENDROOT
BRANCH   1  16
HETATM   16  C   UNK N   1      21.600  15.500   7.349  0.00  0.00     0.027 A 
HETATM   17  C   UNK N   1      20.723  15.637   8.465  0.00  0.00     0.025 A 
HETATM   18  C   UNK N   1      20.783  14.708   9.510  0.00  0.00     0.032 A 
HETATM   19 Br   UNK N   1      19.427  17.040   8.661  0.00  0.00    -0.050 Br
HETATM   20  C   UNK N   1      21.690  13.652   9.473  0.00  0.00    -0.025 A 
HETATM   21  C   UNK N   1      21.737  12.727  10.519  0.00  0.00     0.012 A 
HETATM   22  C   UNK N   1      22.563  13.516   8.376  0.00  0.00    -0.025 A 
HETATM   23  C   UNK N   1      22.650  11.668  10.473  0.00  0.00     0.001 A 
HETATM   24  C   UNK N   1      23.518  11.535   9.383  0.00  0.00     0.001 A 
HETATM   25  C   UNK N   1      23.475  12.459   8.336  0.00  0.00     0.012 A 
HETATM   26  C   UNK N   1      22.511  14.432   7.332  0.00  0.00     0.029 A 
ENDBRANCH   1  16
TORSDOF 1
ENDMDL
MODEL 4
REMARK VINA RESULT:      -6.7      7.253     11.326
REMARK  1 active torsions:
REMARK  status: ('A' for Active; 'I' for Inactive)
REMARK    1  A    between atoms: C_9  and  C_12 
REMARK       I    between atoms: C_15  and  N_22 
REMARK       I    between atoms: C_18  and  N_21 
ROOT
HETATM    1  C   UNK N   1      31.797  16.969   8.023  0.00  0.00     0.148 A 
HETATM    2  N   UNK N   1      32.784  17.887   7.874  0.00  0.00    -0.175 N 
ATOM      3  HN  UNK N   1      32.676  18.642   7.197  1.00  0.00     0.186 HD
HETATM    4  C   UNK N   1      33.914  17.809   8.618  0.00  0.00     0.692 A 
HETATM    5  N   UNK N   1      34.064  16.810   9.521  0.00  0.00    -0.023 N 
ATOM      6  HN  UNK N   1      34.912  16.752  10.084  1.00  0.00     0.203 HD
HETATM    7  C   UNK N   1      33.084  15.886   9.676  0.00  0.00     0.692 A 
HETATM    8  N   UNK N   1      31.954  15.966   8.929  0.00  0.00    -0.175 N 
ATOM      9  HN  UNK N   1      31.219  15.269   9.047  1.00  0.00     0.186 HD
HETATM   10  N   UNK N   1      33.231  14.852  10.619  0.00  0.00    -0.234 N 
HETATM   11  N   UNK N   1      34.926  18.776   8.460  0.00  0.00    -0.234 N 
HETATM   12  H   UNK N   1      34.041  14.802  11.176  0.00  0.00     0.174 HD
HETATM   13  H   UNK N   1      32.522  14.177  10.723  0.00  0.00     0.174 HD
HETATM   14  H   UNK N   1      34.796  19.528   7.838  0.00  0.00     0.174 HD
HETATM   15  H   UNK N   1      35.763  18.700   8.972  0.00  0.00     0.174 HD
ENDROOT
BRANCH   1  16
HETATM   16  C   UNK N   1      30.541  17.051   7.233  0.00  0.00     0.027 A 
HETATM   17  C   UNK N   1      29.321  17.600   7.728  0.00  0.00     0.025 A 
HETATM   18  C   UNK N   1      28.191  17.629   6.904  0.00  0.00     0.032 A 
HETATM   19 Br   UNK N   1      29.093  18.324   9.492  0.00  0.00    -0.050 Br
HETATM   20  C   UNK N   1      28.243  17.125   5.606  0.00  0.00    -0.025 A 
HETATM   21  C   UNK N   1      27.110  17.164   4.789  0.00  0.00     0.012 A 
HETATM   22  C   UNK N   1      29.443  16.576   5.115  0.00  0.00    -0.025 A 
HETATM   23  C   UNK N   1      27.172  16.658   3.487  0.00  0.00     0.001 A 
HETATM   24  C   UNK N   1      28.364  16.110   3.001  0.00  0.00     0.001 A 
HETATM   25  C   UNK N   1      29.499  16.070   3.814  0.00  0.00     0.012 A 
HETATM   26  C   UNK N   1      30.572  16.545   5.925  0.00  0.00     0.029 A 
ENDBRANCH   1  16
TORSDOF 1
ENDMDL
MODEL 5
REMARK VINA RESULT:      -6.6      3.164      7.559
REMARK  1 active torsions:
REMARK  status: ('A' for Active; 'I' for Inactive)
REMARK    1  A    between atoms: C_9  and  C_12 
REMARK       I    between atoms: C_15  and  N_22 
REMARK       I    between atoms: C_18  and  N_21 
ROOT
HETATM    1  C   UNK N   1      35.372  14.166  11.796  0.00  0.00     0.148 A 
HETATM    2  N   UNK N   1      34.742  13.060  12.262  0.00  0.00    -0.175 N 
ATOM      3  HN  UNK N   1      34.128  12.530  11.644  1.00  0.00     0.186 HD
HETATM    4  C   UNK N   1      34.921  12.653  13.542  0.00  0.00     0.692 A 
HETATM    5  N   UNK N   1      35.738  13.352  14.367  0.00  0.00    -0.023 N 
ATOM      6  HN  UNK N   1      35.876  13.045  15.330  1.00  0.00     0.203 HD
HETATM    7  C   UNK N   1      36.371  14.461  13.912  0.00  0.00     0.692 A 
HETATM    8  N   UNK N   1      36.188  14.866  12.631  0.00  0.00    -0.175 N 
ATOM      9  HN  UNK N   1      36.665  15.702  12.291  1.00  0.00     0.186 HD
HETATM   10  N   UNK N   1      37.227  15.185  14.763  0.00  0.00    -0.234 N 
HETATM   11  N   UNK N   1      34.268  11.495  14.008  0.00  0.00    -0.234 N 
HETATM   12  H   UNK N   1      37.376  14.882  15.688  0.00  0.00     0.174 HD
HETATM   13  H   UNK N   1      37.678  15.995  14.434  0.00  0.00     0.174 HD
HETATM   14  H   UNK N   1      33.714  10.962  13.394  0.00  0.00     0.174 HD
HETATM   15  H   UNK N   1      34.368  11.220  14.948  0.00  0.00     0.174 HD
ENDROOT
BRANCH   1  16
HETATM   16  C   UNK N   1      35.206  14.615  10.390  0.00  0.00     0.027 A 
HETATM   17  C   UNK N   1      35.737  13.921   9.262  0.00  0.00     0.025 A 
HETATM   18  C   UNK N   1      35.527  14.429   7.976  0.00  0.00     0.032 A 
HETATM   19 Br   UNK N   1      36.753  12.296   9.368  0.00  0.00    -0.050 Br
HETATM   20  C   UNK N   1      34.807  15.606   7.783  0.00  0.00    -0.025 A 
HETATM   21  C   UNK N   1      34.598  16.101   6.494  0.00  0.00     0.012 A 
HETATM   22  C   UNK N   1      34.286  16.298   8.893  0.00  0.00    -0.025 A 
HETATM   23  C   UNK N   1      33.872  17.282   6.309  0.00  0.00     0.001 A 
HETATM   24  C   UNK N   1      33.357  17.971   7.413  0.00  0.00     0.001 A 
HETATM   25  C   UNK N   1      33.564  17.479   8.705  0.00  0.00     0.012 A 
HETATM   26  C   UNK N   1      34.488  15.801  10.176  0.00  0.00     0.029 A 
ENDBRANCH   1  16
TORSDOF 1
ENDMDL
MODEL 6
REMARK VINA RESULT:      -6.5     16.074     18.257
REMARK  1 active torsions:
REMARK  status: ('A' for Active; 'I' for Inactive)
REMARK    1  A    between atoms: C_9  and  C_12 
REMARK       I    between atoms: C_15  and  N_22 
REMARK       I    between atoms: C_18  and  N_21 
ROOT
HETATM    1  C   UNK N   1      21.487  17.395   3.687  0.00  0.00     0.148 A 
HETATM    2  N   UNK N   1      20.982  16.807   2.575  0.00  0.00    -0.175 N 
ATOM      3  HN  UNK N   1      21.421  16.975   1.669  1.00  0.00     0.186 HD
HETATM    4  C   UNK N   1      19.899  15.997   2.656  0.00  0.00     0.692 A 
HETATM    5  N   UNK N   1      19.312  15.768   3.856  0.00  0.00    -0.023 N 
ATOM      6  HN  UNK N   1      18.499  15.156   3.919  1.00  0.00     0.203 HD
HETATM    7  C   UNK N   1      19.808  16.354   4.974  0.00  0.00     0.692 A 
HETATM    8  N   UNK N   1      20.892  17.164   4.889  0.00  0.00    -0.175 N 
ATOM      9  HN  UNK N   1      21.262  17.604   5.731  1.00  0.00     0.186 HD
HETATM   10  N   UNK N   1      19.208  16.111   6.223  0.00  0.00    -0.234 N 
HETATM   11  N   UNK N   1      19.392  15.384   1.494  0.00  0.00    -0.234 N 
HETATM   12  H   UNK N   1      18.432  15.508   6.291  0.00  0.00     0.174 HD
HETATM   13  H   UNK N   1      19.564  16.545   7.032  0.00  0.00     0.174 HD
HETATM   14  H   UNK N   1      19.847  15.513   0.631  0.00  0.00     0.174 HD
HETATM   15  H   UNK N   1      18.583  14.826   1.546  0.00  0.00     0.174 HD
ENDROOT
BRANCH   1  16
HETATM   16  C   UNK N   1      22.688  18.268   3.621  0.00  0.00     0.027 A 
HETATM   17  C   UNK N   1      22.662  19.632   3.207  0.00  0.00     0.025 A 
HETATM   18  C   UNK N   1      23.851  20.369   3.177  0.00  0.00     0.032 A 
HETATM   19 Br   UNK N   1      21.078  20.572   2.663  0.00  0.00    -0.050 Br
HETATM   20  C   UNK N   1      25.060  19.785   3.546  0.00  0.00    -0.025 A 
HETATM   21  C   UNK N   1      26.241  20.531   3.520  0.00  0.00     0.012 A 
HETATM   22  C   UNK N   1      25.093  18.436   3.951  0.00  0.00    -0.025 A 
HETATM   23  C   UNK N   1      27.450  19.937   3.895  0.00  0.00     0.001 A 
HETATM   24  C   UNK N   1      27.482  18.596   4.293  0.00  0.00     0.001 A 
HETATM   25  C   UNK N   1      26.303  17.846   4.322  0.00  0.00     0.012 A 
HETATM   26  C   UNK N   1      23.917  17.696   3.985  0.00  0.00     0.029 A 
ENDBRANCH   1  16
TORSDOF 1
ENDMDL
MODEL 7
REMARK VINA RESULT:      -6.4      7.331     11.215
REMARK  1 active torsions:
REMARK  status: ('A' for Active; 'I' for Inactive)
REMARK    1  A    between atoms: C_9  and  C_12 
REMARK       I    between atoms: C_15  and  N_22 
REMARK       I    between atoms: C_18  and  N_21 
ROOT
HETATM    1  C   UNK N   1      31.784  16.282   7.770  0.00  0.00     0.148 A 
HETATM    2  N   UNK N   1      31.740  14.947   8.004  0.00  0.00    -0.175 N 
ATOM      3  HN  UNK N   1      31.026  14.377   7.550  1.00  0.00     0.186 HD
HETATM    4  C   UNK N   1      32.637  14.364   8.835  0.00  0.00     0.692 A 
HETATM    5  N   UNK N   1      33.590  15.115   9.439  0.00  0.00    -0.023 N 
ATOM      6  HN  UNK N   1      34.268  14.677  10.062  1.00  0.00     0.203 HD
HETATM    7  C   UNK N   1      33.640  16.451   9.214  0.00  0.00     0.692 A 
HETATM    8  N   UNK N   1      32.741  17.032   8.382  0.00  0.00    -0.175 N 
ATOM      9  HN  UNK N   1      32.781  18.038   8.216  1.00  0.00     0.186 HD
HETATM   10  N   UNK N   1      34.634  17.234   9.832  0.00  0.00    -0.234 N 
HETATM   11  N   UNK N   1      32.586  12.974   9.059  0.00  0.00    -0.234 N 
HETATM   12  H   UNK N   1      35.300  16.812  10.421  0.00  0.00     0.174 HD
HETATM   13  H   UNK N   1      34.663  18.205   9.674  0.00  0.00     0.174 HD
HETATM   14  H   UNK N   1      31.924  12.423   8.583  0.00  0.00     0.174 HD
HETATM   15  H   UNK N   1      33.214  12.555   9.691  0.00  0.00     0.174 HD
ENDROOT
BRANCH   1  16
HETATM   16  C   UNK N   1      30.823  16.936   6.844  0.00  0.00     0.027 A 
HETATM   17  C   UNK N   1      30.830  16.756   5.429  0.00  0.00     0.025 A 
HETATM   18  C   UNK N   1      29.882  17.421   4.643  0.00  0.00     0.032 A 
HETATM   19 Br   UNK N   1      32.076  15.645   4.482  0.00  0.00    -0.050 Br
HETATM   20  C   UNK N   1      28.933  18.257   5.226  0.00  0.00    -0.025 A 
HETATM   21  C   UNK N   1      27.987  18.910   4.433  0.00  0.00     0.012 A 
HETATM   22  C   UNK N   1      28.925  18.442   6.623  0.00  0.00    -0.025 A 
HETATM   23  C   UNK N   1      27.036  19.746   5.027  0.00  0.00     0.001 A 
HETATM   24  C   UNK N   1      27.031  19.932   6.414  0.00  0.00     0.001 A 
HETATM   25  C   UNK N   1      27.976  19.280   7.211  0.00  0.00     0.012 A 
HETATM   26  C   UNK N   1      29.862  17.785   7.413  0.00  0.00     0.029 A 
ENDBRANCH   1  16
TORSDOF 1
ENDMDL
MODEL 8
REMARK VINA RESULT:      -6.4      1.625      2.222
REMARK  1 active torsions:
REMARK  status: ('A' for Active; 'I' for Inactive)
REMARK    1  A    between atoms: C_9  and  C_12 
REMARK       I    between atoms: C_15  and  N_22 
REMARK       I    between atoms: C_18  and  N_21 
ROOT
HETATM    1  C   UNK N   1      34.957  13.704  11.676  0.00  0.00     0.148 A 
HETATM    2  N   UNK N   1      35.270  15.023  11.646  0.00  0.00    -0.175 N 
ATOM      3  HN  UNK N   1      35.875  15.416  12.367  1.00  0.00     0.186 HD
HETATM    4  C   UNK N   1      34.786  15.823  10.666  0.00  0.00     0.692 A 
HETATM    5  N   UNK N   1      33.983  15.307   9.704  0.00  0.00    -0.023 N 
ATOM      6  HN  UNK N   1      33.621  15.908   8.963  1.00  0.00     0.203 HD
HETATM    7  C   UNK N   1      33.662  13.990   9.726  0.00  0.00     0.692 A 
HETATM    8  N   UNK N   1      34.148  13.191  10.709  0.00  0.00    -0.175 N 
ATOM      9  HN  UNK N   1      33.904  12.201  10.724  1.00  0.00     0.186 HD
HETATM   10  N   UNK N   1      32.837  13.448   8.723  0.00  0.00    -0.234 N 
HETATM   11  N   UNK N   1      35.129  17.189  10.642  0.00  0.00    -0.234 N 
HETATM   12  H   UNK N   1      32.498  14.021   7.998  0.00  0.00     0.174 HD
HETATM   13  H   UNK N   1      32.597  12.493   8.747  0.00  0.00     0.174 HD
HETATM   14  H   UNK N   1      35.750  17.552  11.314  0.00  0.00     0.174 HD
HETATM   15  H   UNK N   1      34.748  17.779   9.952  0.00  0.00     0.174 HD
ENDROOT
BRANCH   1  16
HETATM   16  C   UNK N   1      35.497  12.806  12.729  0.00  0.00     0.027 A 
HETATM   17  C   UNK N   1      36.475  11.794  12.492  0.00  0.00     0.025 A 
HETATM   18  C   UNK N   1      36.917  10.997  13.554  0.00  0.00     0.032 A 
HETATM   19 Br   UNK N   1      37.257  11.421  10.779  0.00  0.00    -0.050 Br
HETATM   20  C   UNK N   1      36.412  11.179  14.839  0.00  0.00    -0.025 A 
HETATM   21  C   UNK N   1      36.865  10.382  15.893  0.00  0.00     0.012 A 
HETATM   22  C   UNK N   1      35.442  12.172  15.078  0.00  0.00    -0.025 A 
HETATM   23  C   UNK N   1      36.354  10.572  17.181  0.00  0.00     0.001 A 
HETATM   24  C   UNK N   1      35.388  11.557  17.417  0.00  0.00     0.001 A 
HETATM   25  C   UNK N   1      34.932  12.356  16.365  0.00  0.00     0.012 A 
HETATM   26  C   UNK N   1      34.997  12.970  14.030  0.00  0.00     0.029 A 
ENDBRANCH   1  16
TORSDOF 1
ENDMDL
MODEL 9
REMARK VINA RESULT:      -6.4     21.574     23.974
REMARK  1 active torsions:
REMARK  status: ('A' for Active; 'I' for Inactive)
REMARK    1  A    between atoms: C_9  and  C_12 
REMARK       I    between atoms: C_15  and  N_22 
REMARK       I    between atoms: C_18  and  N_21 
ROOT
HETATM    1  C   UNK N   1      26.969  23.537  -6.548  0.00  0.00     0.148 A 
HETATM    2  N   UNK N   1      26.973  24.629  -7.351  0.00  0.00    -0.175 N 
ATOM      3  HN  UNK N   1      27.690  25.344  -7.228  1.00  0.00     0.186 HD
HETATM    4  C   UNK N   1      26.034  24.779  -8.316  0.00  0.00     0.692 A 
HETATM    5  N   UNK N   1      25.080  23.831  -8.486  0.00  0.00    -0.023 N 
ATOM      6  HN  UNK N   1      24.374  23.941  -9.214  1.00  0.00     0.203 HD
HETATM    7  C   UNK N   1      25.065  22.736  -7.687  0.00  0.00     0.692 A 
HETATM    8  N   UNK N   1      26.006  22.589  -6.722  0.00  0.00    -0.175 N 
ATOM      9  HN  UNK N   1      25.992  21.765  -6.122  1.00  0.00     0.186 HD
HETATM   10  N   UNK N   1      24.082  21.745  -7.867  0.00  0.00    -0.234 N 
HETATM   11  N   UNK N   1      26.059  25.914  -9.149  0.00  0.00    -0.234 N 
HETATM   12  H   UNK N   1      23.409  21.839  -8.579  0.00  0.00     0.174 HD
HETATM   13  H   UNK N   1      24.067  20.955  -7.279  0.00  0.00     0.174 HD
HETATM   14  H   UNK N   1      26.780  26.578  -9.055  0.00  0.00     0.174 HD
HETATM   15  H   UNK N   1      25.355  26.043  -9.825  0.00  0.00     0.174 HD
ENDROOT
BRANCH   1  16
HETATM   16  C   UNK N   1      28.004  23.343  -5.501  0.00  0.00     0.027 A 
HETATM   17  C   UNK N   1      28.034  24.058  -4.266  0.00  0.00     0.025 A 
HETATM   18  C   UNK N   1      29.056  23.803  -3.345  0.00  0.00     0.032 A 
HETATM   19 Br   UNK N   1      26.748  25.387  -3.750  0.00  0.00    -0.050 Br
HETATM   20  C   UNK N   1      30.045  22.862  -3.619  0.00  0.00    -0.025 A 
HETATM   21  C   UNK N   1      31.056  22.611  -2.689  0.00  0.00     0.012 A 
HETATM   22  C   UNK N   1      30.023  22.158  -4.838  0.00  0.00    -0.025 A 
HETATM   23  C   UNK N   1      32.044  21.662  -2.972  0.00  0.00     0.001 A 
HETATM   24  C   UNK N   1      32.023  20.965  -4.185  0.00  0.00     0.001 A 
HETATM   25  C   UNK N   1      31.013  21.213  -5.118  0.00  0.00     0.012 A 
HETATM   26  C   UNK N   1      29.012  22.402  -5.761  0.00  0.00     0.029 A 
ENDBRANCH   1  16
TORSDOF 1
ENDMDL
