REMARK  6 active torsions:
REMARK  status: ('A' for Active; 'I' for Inactive)
REMARK    1  A    between atoms: C_5  and  S_7 
REMARK    2  A    between atoms: S_7  and  N_10 
REMARK    3  A    between atoms: N_10  and  C_11 
REMARK    4  A    between atoms: C_16  and  O_23 
REMARK    5  A    between atoms: C_18  and  C_30 
REMARK    6  A    between atoms: C_26  and  O_32 
ROOT
HETATM    1  C   UNK N   1      -1.575   0.487  -0.134  0.00  0.00     0.239 A 
HETATM    2  N   UNK N   1      -1.001   1.722  -0.094  0.00  0.00    -0.319 N 
ATOM      3  HN  UNK N   1      -1.452   2.637  -0.095  1.00  0.00     0.169 HD
HETATM    4  C   UNK N   1       0.325   1.427  -0.051  0.00  0.00     0.073 A 
HETATM    5  C   UNK N   1       1.427   2.281  -0.029  0.00  0.00     0.069 A 
HETATM    6  C   UNK N   1       2.720   1.694  -0.010  0.00  0.00     0.071 A 
HETATM    7  C   UNK N   1       2.859   0.270   0.003  0.00  0.00     0.052 A 
HETATM    8  C   UNK N   1       1.719  -0.562  -0.015  0.00  0.00     0.014 A 
HETATM    9  C   UNK N   1       0.483   0.079  -0.055  0.00  0.00     0.117 A 
HETATM   10  O   UNK N   1      -0.688  -0.473  -0.114  0.00  0.00    -0.276 OA
ENDROOT
BRANCH   1  11
HETATM   11  N   UNK N   1      -2.948   0.180  -0.266  0.00  0.00    -0.245 N 
HETATM   12  H   UNK N   1      -3.136  -0.712  -0.636  0.00  0.00     0.182 HD
BRANCH  11  13
HETATM   13  S   UNK N   1      -4.366   1.126   0.121  0.00  0.00     0.267 S 
HETATM   14  O   UNK N   1      -5.427   0.429  -0.744  0.00  0.00    -0.200 OA
HETATM   15  O   UNK N   1      -4.788   0.610   1.504  0.00  0.00    -0.200 OA
BRANCH  13  16
HETATM   16  C   UNK N   1      -4.590   2.903   0.004  0.00  0.00     0.103 A 
HETATM   17  C   UNK N   1      -3.475   3.744  -0.054  0.00  0.00     0.050 A 
HETATM   18  C   UNK N   1      -3.644   5.131  -0.102  0.00  0.00     0.035 A 
HETATM   19  C   UNK N   1      -4.926   5.683  -0.090  0.00  0.00     0.025 A 
HETATM   20 Cl   UNK N   1      -2.249   6.183  -0.158  0.00  0.00    -0.084 Cl
HETATM   21  C   UNK N   1      -6.044   4.852  -0.029  0.00  0.00     0.027 A 
HETATM   22  C   UNK N   1      -5.888   3.466   0.021  0.00  0.00     0.057 A 
HETATM   23 Cl   UNK N   1      -7.340   2.478   0.130  0.00  0.00    -0.083 Cl
ENDBRANCH  13  16
ENDBRANCH  11  13
ENDBRANCH   1  11
BRANCH   8  24
HETATM   24  C   UNK N   1       1.787  -2.056   0.004  0.00  0.00    -0.007 A 
HETATM   25  C   UNK N   1       0.597  -2.801   0.031  0.00  0.00     0.102 A 
HETATM   26  N   UNK N   1       0.611  -4.154   0.047  0.00  0.00    -0.346 N 
HETATM   27  C   UNK N   1       1.771  -4.853   0.038  0.00  0.00     0.141 A 
ATOM     28  HN  UNK N   1      -0.274  -4.660   0.067  1.00  0.00     0.167 HD
HETATM   29  C   UNK N   1       2.997  -4.157   0.017  0.00  0.00     0.057 A 
HETATM   30  C   UNK N   1       3.001  -2.754   0.003  0.00  0.00     0.018 A 
BRANCH  27  31
HETATM   31  O   UNK N   1       1.711  -6.205   0.045  0.00  0.00    -0.341 OA
HETATM   32  C   UNK N   1       2.821  -7.015   0.015  0.00  0.00     0.211 C 
ENDBRANCH  27  31
ENDBRANCH   8  24
BRANCH   6  33
HETATM   33  O   UNK N   1       3.806   2.506  -0.012  0.00  0.00    -0.356 OA
HETATM   34  C   UNK N   1       5.100   2.036  -0.026  0.00  0.00     0.210 C 
ENDBRANCH   6  33
TORSDOF 6
