MODEL 1
REMARK VINA RESULT:      -8.1      0.000      0.000
REMARK  6 active torsions:
REMARK  status: ('A' for Active; 'I' for Inactive)
REMARK    1  A    between atoms: C_5  and  S_7 
REMARK    2  A    between atoms: S_7  and  N_10 
REMARK    3  A    between atoms: N_10  and  C_11 
REMARK    4  A    between atoms: C_16  and  O_23 
REMARK    5  A    between atoms: C_18  and  C_30 
REMARK    6  A    between atoms: C_26  and  O_32 
ROOT
HETATM    1  C   UNK N   1      20.811  16.324   6.902  0.00  0.00     0.239 A 
HETATM    2  N   UNK N   1      19.738  16.264   6.064  0.00  0.00    -0.319 N 
ATOM      3  HN  UNK N   1      18.803  15.900   6.248  1.00  0.00     0.169 HD
HETATM    4  C   UNK N   1      20.228  16.814   4.922  0.00  0.00     0.073 A 
HETATM    5  C   UNK N   1      19.608  17.003   3.688  0.00  0.00     0.069 A 
HETATM    6  C   UNK N   1      20.373  17.588   2.644  0.00  0.00     0.071 A 
HETATM    7  C   UNK N   1      21.729  17.978   2.884  0.00  0.00     0.052 A 
HETATM    8  C   UNK N   1      22.321  17.775   4.149  0.00  0.00     0.014 A 
HETATM    9  C   UNK N   1      21.521  17.177   5.120  0.00  0.00     0.117 A 
HETATM   10  O   UNK N   1      21.857  16.861   6.331  0.00  0.00    -0.276 OA
ENDROOT
BRANCH   1  11
HETATM   11  N   UNK N   1      20.905  15.817   8.218  0.00  0.00    -0.245 N 
HETATM   12  H   UNK N   1      20.945  16.503   8.921  0.00  0.00     0.182 HD
BRANCH  11  13
HETATM   13  S   UNK N   1      20.960  14.169   8.799  0.00  0.00     0.267 S 
HETATM   14  O   UNK N   1      19.715  14.135   9.698  0.00  0.00    -0.200 OA
HETATM   15  O   UNK N   1      20.441  13.342   7.615  0.00  0.00    -0.200 OA
BRANCH  13  16
HETATM   16  C   UNK N   1      22.307  13.322   9.631  0.00  0.00     0.103 A 
HETATM   17  C   UNK N   1      22.120  12.813  10.919  0.00  0.00     0.050 A 
HETATM   18  C   UNK N   1      23.178  12.190  11.588  0.00  0.00     0.035 A 
HETATM   19  C   UNK N   1      24.426  12.077  10.974  0.00  0.00     0.025 A 
HETATM   20 Cl   UNK N   1      22.948  11.568  13.205  0.00  0.00    -0.084 Cl
HETATM   21  C   UNK N   1      24.623  12.585   9.691  0.00  0.00     0.027 A 
HETATM   22  C   UNK N   1      23.575  13.210   9.014  0.00  0.00     0.057 A 
HETATM   23 Cl   UNK N   1      23.901  13.857   7.411  0.00  0.00    -0.083 Cl
ENDBRANCH  13  16
ENDBRANCH  11  13
ENDBRANCH   1  11
BRANCH   8  24
HETATM   24  C   UNK N   1      23.728  18.163   4.474  0.00  0.00    -0.007 A 
HETATM   25  C   UNK N   1      24.576  17.230   5.094  0.00  0.00     0.102 A 
HETATM   26  N   UNK N   1      25.856  17.537   5.404  0.00  0.00    -0.346 N 
HETATM   27  C   UNK N   1      26.381  18.756   5.133  0.00  0.00     0.141 A 
ATOM     28  HN  UNK N   1      26.441  16.834   5.855  1.00  0.00     0.167 HD
HETATM   29  C   UNK N   1      25.574  19.734   4.516  0.00  0.00     0.057 A 
HETATM   30  C   UNK N   1      24.243  19.434   4.190  0.00  0.00     0.018 A 
BRANCH  27  31
HETATM   31  O   UNK N   1      27.673  18.991   5.461  0.00  0.00    -0.341 OA
HETATM   32  C   UNK N   1      28.711  18.165   5.103  0.00  0.00     0.211 C 
ENDBRANCH  27  31
ENDBRANCH   8  24
BRANCH   6  33
HETATM   33  O   UNK N   1      19.797  17.759   1.429  0.00  0.00    -0.356 OA
HETATM   34  C   UNK N   1      19.921  16.853   0.400  0.00  0.00     0.210 C 
ENDBRANCH   6  33
TORSDOF 6
ENDMDL
MODEL 2
REMARK VINA RESULT:      -8.0      4.864      6.807
REMARK  6 active torsions:
REMARK  status: ('A' for Active; 'I' for Inactive)
REMARK    1  A    between atoms: C_5  and  S_7 
REMARK    2  A    between atoms: S_7  and  N_10 
REMARK    3  A    between atoms: N_10  and  C_11 
REMARK    4  A    between atoms: C_16  and  O_23 
REMARK    5  A    between atoms: C_18  and  C_30 
REMARK    6  A    between atoms: C_26  and  O_32 
ROOT
HETATM    1  C   UNK N   1      20.139  17.727   1.331  0.00  0.00     0.239 A 
HETATM    2  N   UNK N   1      19.106  17.085   0.716  0.00  0.00    -0.319 N 
ATOM      3  HN  UNK N   1      18.241  17.477   0.343  1.00  0.00     0.169 HD
HETATM    4  C   UNK N   1      19.521  15.791   0.724  0.00  0.00     0.073 A 
HETATM    5  C   UNK N   1      18.874  14.646   0.259  0.00  0.00     0.069 A 
HETATM    6  C   UNK N   1      19.537  13.400   0.419  0.00  0.00     0.071 A 
HETATM    7  C   UNK N   1      20.832  13.351   1.025  0.00  0.00     0.052 A 
HETATM    8  C   UNK N   1      21.457  14.533   1.478  0.00  0.00     0.014 A 
HETATM    9  C   UNK N   1      20.742  15.717   1.310  0.00  0.00     0.117 A 
HETATM   10  O   UNK N   1      21.095  16.908   1.679  0.00  0.00    -0.276 OA
ENDROOT
BRANCH   1  11
HETATM   11  N   UNK N   1      20.220  19.097   1.671  0.00  0.00    -0.245 N 
HETATM   12  H   UNK N   1      19.588  19.678   1.191  0.00  0.00     0.182 HD
BRANCH  11  13
HETATM   13  S   UNK N   1      21.261  19.926   2.804  0.00  0.00     0.267 S 
HETATM   14  O   UNK N   1      21.549  21.226   2.039  0.00  0.00    -0.200 OA
HETATM   15  O   UNK N   1      20.294  20.466   3.867  0.00  0.00    -0.200 OA
BRANCH  13  16
HETATM   16  C   UNK N   1      22.781  19.342   3.559  0.00  0.00     0.103 A 
HETATM   17  C   UNK N   1      23.997  19.954   3.242  0.00  0.00     0.050 A 
HETATM   18  C   UNK N   1      25.189  19.475   3.794  0.00  0.00     0.035 A 
HETATM   19  C   UNK N   1      25.171  18.382   4.663  0.00  0.00     0.025 A 
HETATM   20 Cl   UNK N   1      26.711  20.230   3.385  0.00  0.00    -0.084 Cl
HETATM   21  C   UNK N   1      23.963  17.763   4.982  0.00  0.00     0.027 A 
HETATM   22  C   UNK N   1      22.767  18.231   4.436  0.00  0.00     0.057 A 
HETATM   23 Cl   UNK N   1      21.284  17.383   4.856  0.00  0.00    -0.083 Cl
ENDBRANCH  13  16
ENDBRANCH  11  13
ENDBRANCH   1  11
BRANCH   8  24
HETATM   24  C   UNK N   1      22.810  14.559   2.114  0.00  0.00    -0.007 A 
HETATM   25  C   UNK N   1      22.921  14.427   3.507  0.00  0.00     0.102 A 
HETATM   26  N   UNK N   1      24.126  14.443   4.125  0.00  0.00    -0.346 N 
HETATM   27  C   UNK N   1      25.279  14.588   3.429  0.00  0.00     0.141 A 
ATOM     28  HN  UNK N   1      24.166  14.344   5.139  1.00  0.00     0.167 HD
HETATM   29  C   UNK N   1      25.227  14.731   2.028  0.00  0.00     0.057 A 
HETATM   30  C   UNK N   1      23.987  14.719   1.372  0.00  0.00     0.018 A 
BRANCH  27  31
HETATM   31  O   UNK N   1      26.449  14.585   4.110  0.00  0.00    -0.341 OA
HETATM   32  C   UNK N   1      26.536  14.754   5.471  0.00  0.00     0.211 C 
ENDBRANCH  27  31
ENDBRANCH   8  24
BRANCH   6  33
HETATM   33  O   UNK N   1      18.916  12.271  -0.005  0.00  0.00    -0.356 OA
HETATM   34  C   UNK N   1      19.344  11.005   0.326  0.00  0.00     0.210 C 
ENDBRANCH   6  33
TORSDOF 6
ENDMDL
MODEL 3
REMARK VINA RESULT:      -7.9      1.965      2.457
REMARK  6 active torsions:
REMARK  status: ('A' for Active; 'I' for Inactive)
REMARK    1  A    between atoms: C_5  and  S_7 
REMARK    2  A    between atoms: S_7  and  N_10 
REMARK    3  A    between atoms: N_10  and  C_11 
REMARK    4  A    between atoms: C_16  and  O_23 
REMARK    5  A    between atoms: C_18  and  C_30 
REMARK    6  A    between atoms: C_26  and  O_32 
ROOT
HETATM    1  C   UNK N   1      22.449  16.270   5.677  0.00  0.00     0.239 A 
HETATM    2  N   UNK N   1      21.425  17.041   5.216  0.00  0.00    -0.319 N 
ATOM      3  HN  UNK N   1      20.420  16.902   5.325  1.00  0.00     0.169 HD
HETATM    4  C   UNK N   1      22.080  18.045   4.576  0.00  0.00     0.073 A 
HETATM    5  C   UNK N   1      21.569  19.134   3.870  0.00  0.00     0.069 A 
HETATM    6  C   UNK N   1      22.495  20.028   3.271  0.00  0.00     0.071 A 
HETATM    7  C   UNK N   1      23.901  19.806   3.416  0.00  0.00     0.052 A 
HETATM    8  C   UNK N   1      24.380  18.695   4.143  0.00  0.00     0.014 A 
HETATM    9  C   UNK N   1      23.418  17.847   4.686  0.00  0.00     0.117 A 
HETATM   10  O   UNK N   1      23.619  16.755   5.354  0.00  0.00    -0.276 OA
ENDROOT
BRANCH   1  11
HETATM   11  N   UNK N   1      22.357  15.035   6.358  0.00  0.00    -0.245 N 
HETATM   12  H   UNK N   1      22.920  14.319   5.988  0.00  0.00     0.182 HD
BRANCH  11  13
HETATM   13  S   UNK N   1      21.407  14.574   7.751  0.00  0.00     0.267 S 
HETATM   14  O   UNK N   1      20.988  15.951   8.288  0.00  0.00    -0.200 OA
HETATM   15  O   UNK N   1      20.069  14.119   7.151  0.00  0.00    -0.200 OA
BRANCH  13  16
HETATM   16  C   UNK N   1      21.880  13.527   9.130  0.00  0.00     0.103 A 
HETATM   17  C   UNK N   1      20.910  13.085  10.035  0.00  0.00     0.050 A 
HETATM   18  C   UNK N   1      21.281  12.305  11.134  0.00  0.00     0.035 A 
HETATM   19  C   UNK N   1      22.619  11.965  11.335  0.00  0.00     0.025 A 
HETATM   20 Cl   UNK N   1      20.070  11.766  12.275  0.00  0.00    -0.084 Cl
HETATM   21  C   UNK N   1      23.594  12.404  10.440  0.00  0.00     0.027 A 
HETATM   22  C   UNK N   1      23.237  13.185   9.340  0.00  0.00     0.057 A 
HETATM   23 Cl   UNK N   1      24.521  13.733   8.268  0.00  0.00    -0.083 Cl
ENDBRANCH  13  16
ENDBRANCH  11  13
ENDBRANCH   1  11
BRANCH   8  24
HETATM   24  C   UNK N   1      25.833  18.403   4.342  0.00  0.00    -0.007 A 
HETATM   25  C   UNK N   1      26.564  19.147   5.282  0.00  0.00     0.102 A 
HETATM   26  N   UNK N   1      27.880  18.917   5.497  0.00  0.00    -0.346 N 
HETATM   27  C   UNK N   1      28.554  17.959   4.817  0.00  0.00     0.141 A 
ATOM     28  HN  UNK N   1      28.377  19.478   6.188  1.00  0.00     0.167 HD
HETATM   29  C   UNK N   1      27.872  17.184   3.856  0.00  0.00     0.057 A 
HETATM   30  C   UNK N   1      26.508  17.412   3.619  0.00  0.00     0.018 A 
BRANCH  27  31
HETATM   31  O   UNK N   1      29.867  17.775   5.089  0.00  0.00    -0.341 OA
HETATM   32  C   UNK N   1      30.749  17.184   4.216  0.00  0.00     0.211 C 
ENDBRANCH  27  31
ENDBRANCH   8  24
BRANCH   6  33
HETATM   33  O   UNK N   1      22.020  21.081   2.560  0.00  0.00    -0.356 OA
HETATM   34  C   UNK N   1      20.932  20.995   1.721  0.00  0.00     0.210 C 
ENDBRANCH   6  33
TORSDOF 6
ENDMDL
MODEL 4
REMARK VINA RESULT:      -7.8      3.508      7.215
REMARK  6 active torsions:
REMARK  status: ('A' for Active; 'I' for Inactive)
REMARK    1  A    between atoms: C_5  and  S_7 
REMARK    2  A    between atoms: S_7  and  N_10 
REMARK    3  A    between atoms: N_10  and  C_11 
REMARK    4  A    between atoms: C_16  and  O_23 
REMARK    5  A    between atoms: C_18  and  C_30 
REMARK    6  A    between atoms: C_26  and  O_32 
ROOT
HETATM    1  C   UNK N   1      25.650  19.016   5.072  0.00  0.00     0.239 A 
HETATM    2  N   UNK N   1      25.591  19.945   4.077  0.00  0.00    -0.319 N 
ATOM      3  HN  UNK N   1      26.338  20.531   3.704  1.00  0.00     0.169 HD
HETATM    4  C   UNK N   1      24.284  19.893   3.705  0.00  0.00     0.073 A 
HETATM    5  C   UNK N   1      23.601  20.639   2.745  0.00  0.00     0.069 A 
HETATM    6  C   UNK N   1      22.213  20.392   2.579  0.00  0.00     0.071 A 
HETATM    7  C   UNK N   1      21.564  19.392   3.371  0.00  0.00     0.052 A 
HETATM    8  C   UNK N   1      22.291  18.654   4.330  0.00  0.00     0.014 A 
HETATM    9  C   UNK N   1      23.643  18.962   4.456  0.00  0.00     0.117 A 
HETATM   10  O   UNK N   1      24.493  18.446   5.287  0.00  0.00    -0.276 OA
ENDROOT
BRANCH   1  11
HETATM   11  N   UNK N   1      26.760  18.696   5.885  0.00  0.00    -0.245 N 
HETATM   12  H   UNK N   1      26.805  19.193   6.733  0.00  0.00     0.182 HD
BRANCH  11  13
HETATM   13  S   UNK N   1      28.065  17.561   5.632  0.00  0.00     0.267 S 
HETATM   14  O   UNK N   1      27.324  16.225   5.787  0.00  0.00    -0.200 OA
HETATM   15  O   UNK N   1      28.266  17.564   4.110  0.00  0.00    -0.200 OA
BRANCH  13  16
HETATM   16  C   UNK N   1      29.640  17.461   6.486  0.00  0.00     0.103 A 
HETATM   17  C   UNK N   1      30.809  17.200   5.765  0.00  0.00     0.050 A 
HETATM   18  C   UNK N   1      32.032  17.078   6.431  0.00  0.00     0.035 A 
HETATM   19  C   UNK N   1      32.092  17.214   7.819  0.00  0.00     0.025 A 
HETATM   20 Cl   UNK N   1      33.491  16.736   5.531  0.00  0.00    -0.084 Cl
HETATM   21  C   UNK N   1      30.931  17.471   8.547  0.00  0.00     0.027 A 
HETATM   22  C   UNK N   1      29.704  17.593   7.893  0.00  0.00     0.057 A 
HETATM   23 Cl   UNK N   1      28.273  17.885   8.876  0.00  0.00    -0.083 Cl
ENDBRANCH  13  16
ENDBRANCH  11  13
ENDBRANCH   1  11
BRANCH   8  24
HETATM   24  C   UNK N   1      21.682  17.591   5.188  0.00  0.00    -0.007 A 
HETATM   25  C   UNK N   1      21.195  17.926   6.461  0.00  0.00     0.102 A 
HETATM   26  N   UNK N   1      20.635  16.998   7.270  0.00  0.00    -0.346 N 
HETATM   27  C   UNK N   1      20.517  15.703   6.891  0.00  0.00     0.141 A 
ATOM     28  HN  UNK N   1      20.293  17.280   8.189  1.00  0.00     0.167 HD
HETATM   29  C   UNK N   1      20.995  15.307   5.625  0.00  0.00     0.057 A 
HETATM   30  C   UNK N   1      21.581  16.257   4.774  0.00  0.00     0.018 A 
BRANCH  27  31
HETATM   31  O   UNK N   1      19.938  14.829   7.747  0.00  0.00    -0.341 OA
HETATM   32  C   UNK N   1      20.314  14.689   9.061  0.00  0.00     0.211 C 
ENDBRANCH  27  31
ENDBRANCH   8  24
BRANCH   6  33
HETATM   33  O   UNK N   1      21.524  21.122   1.667  0.00  0.00    -0.356 OA
HETATM   34  C   UNK N   1      20.688  20.562   0.728  0.00  0.00     0.210 C 
ENDBRANCH   6  33
TORSDOF 6
ENDMDL
MODEL 5
REMARK VINA RESULT:      -7.7      8.019     11.157
REMARK  6 active torsions:
REMARK  status: ('A' for Active; 'I' for Inactive)
REMARK    1  A    between atoms: C_5  and  S_7 
REMARK    2  A    between atoms: S_7  and  N_10 
REMARK    3  A    between atoms: N_10  and  C_11 
REMARK    4  A    between atoms: C_16  and  O_23 
REMARK    5  A    between atoms: C_18  and  C_30 
REMARK    6  A    between atoms: C_26  and  O_32 
ROOT
HETATM    1  C   UNK N   1      31.904  16.812   8.777  0.00  0.00     0.239 A 
HETATM    2  N   UNK N   1      30.792  17.519   9.128  0.00  0.00    -0.319 N 
ATOM      3  HN  UNK N   1      30.513  17.856  10.049  1.00  0.00     0.169 HD
HETATM    4  C   UNK N   1      30.150  17.661   7.939  0.00  0.00     0.073 A 
HETATM    5  C   UNK N   1      28.929  18.273   7.654  0.00  0.00     0.069 A 
HETATM    6  C   UNK N   1      28.477  18.255   6.308  0.00  0.00     0.071 A 
HETATM    7  C   UNK N   1      29.275  17.637   5.294  0.00  0.00     0.052 A 
HETATM    8  C   UNK N   1      30.508  17.032   5.620  0.00  0.00     0.014 A 
HETATM    9  C   UNK N   1      30.881  17.067   6.962  0.00  0.00     0.117 A 
HETATM   10  O   UNK N   1      31.941  16.550   7.497  0.00  0.00    -0.276 OA
ENDROOT
BRANCH   1  11
HETATM   11  N   UNK N   1      32.908  16.307   9.634  0.00  0.00    -0.245 N 
HETATM   12  H   UNK N   1      32.571  15.848  10.436  0.00  0.00     0.182 HD
BRANCH  11  13
HETATM   13  S   UNK N   1      34.650  16.365   9.500  0.00  0.00     0.267 S 
HETATM   14  O   UNK N   1      34.832  17.588   8.589  0.00  0.00    -0.200 OA
HETATM   15  O   UNK N   1      35.102  16.974  10.835  0.00  0.00    -0.200 OA
BRANCH  13  16
HETATM   16  C   UNK N   1      35.773  15.069   8.973  0.00  0.00     0.103 A 
HETATM   17  C   UNK N   1      36.760  14.603   9.846  0.00  0.00     0.050 A 
HETATM   18  C   UNK N   1      37.665  13.624   9.425  0.00  0.00     0.035 A 
HETATM   19  C   UNK N   1      37.590  13.108   8.131  0.00  0.00     0.025 A 
HETATM   20 Cl   UNK N   1      38.909  13.054  10.513  0.00  0.00    -0.084 Cl
HETATM   21  C   UNK N   1      36.611  13.569   7.251  0.00  0.00     0.027 A 
HETATM   22  C   UNK N   1      35.703  14.547   7.659  0.00  0.00     0.057 A 
HETATM   23 Cl   UNK N   1      34.515  15.107   6.488  0.00  0.00    -0.083 Cl
ENDBRANCH  13  16
ENDBRANCH  11  13
ENDBRANCH   1  11
BRANCH   8  24
HETATM   24  C   UNK N   1      31.397  16.375   4.613  0.00  0.00    -0.007 A 
HETATM   25  C   UNK N   1      31.250  15.003   4.353  0.00  0.00     0.102 A 
HETATM   26  N   UNK N   1      32.031  14.367   3.449  0.00  0.00    -0.346 N 
HETATM   27  C   UNK N   1      32.990  15.022   2.754  0.00  0.00     0.141 A 
ATOM     28  HN  UNK N   1      31.894  13.370   3.288  1.00  0.00     0.167 HD
HETATM   29  C   UNK N   1      33.187  16.400   2.978  0.00  0.00     0.057 A 
HETATM   30  C   UNK N   1      32.388  17.075   3.914  0.00  0.00     0.018 A 
BRANCH  27  31
HETATM   31  O   UNK N   1      33.729  14.327   1.858  0.00  0.00    -0.341 OA
HETATM   32  C   UNK N   1      33.760  12.954   1.802  0.00  0.00     0.211 C 
ENDBRANCH  27  31
ENDBRANCH   8  24
BRANCH   6  33
HETATM   33  O   UNK N   1      27.282  18.823   6.013  0.00  0.00    -0.356 OA
HETATM   34  C   UNK N   1      27.082  20.185   5.975  0.00  0.00     0.210 C 
ENDBRANCH   6  33
TORSDOF 6
ENDMDL
MODEL 6
REMARK VINA RESULT:      -7.6      9.123     12.157
REMARK  6 active torsions:
REMARK  status: ('A' for Active; 'I' for Inactive)
REMARK    1  A    between atoms: C_5  and  S_7 
REMARK    2  A    between atoms: S_7  and  N_10 
REMARK    3  A    between atoms: N_10  and  C_11 
REMARK    4  A    between atoms: C_16  and  O_23 
REMARK    5  A    between atoms: C_18  and  C_30 
REMARK    6  A    between atoms: C_26  and  O_32 
ROOT
HETATM    1  C   UNK N   1      33.787  15.351   8.955  0.00  0.00     0.239 A 
HETATM    2  N   UNK N   1      32.861  16.065   9.655  0.00  0.00    -0.319 N 
ATOM      3  HN  UNK N   1      32.837  16.276  10.653  1.00  0.00     0.169 HD
HETATM    4  C   UNK N   1      31.977  16.426   8.688  0.00  0.00     0.073 A 
HETATM    5  C   UNK N   1      30.790  17.149   8.792  0.00  0.00     0.069 A 
HETATM    6  C   UNK N   1      30.038  17.364   7.606  0.00  0.00     0.071 A 
HETATM    7  C   UNK N   1      30.516  16.858   6.355  0.00  0.00     0.052 A 
HETATM    8  C   UNK N   1      31.726  16.134   6.289  0.00  0.00     0.014 A 
HETATM    9  C   UNK N   1      32.401  15.942   7.493  0.00  0.00     0.117 A 
HETATM   10  O   UNK N   1      33.501  15.284   7.681  0.00  0.00    -0.276 OA
ENDROOT
BRANCH   1  11
HETATM   11  N   UNK N   1      34.908  14.660   9.467  0.00  0.00    -0.245 N 
HETATM   12  H   UNK N   1      35.176  13.869   8.947  0.00  0.00     0.182 HD
BRANCH  11  13
HETATM   13  S   UNK N   1      35.896  14.981  10.873  0.00  0.00     0.267 S 
HETATM   14  O   UNK N   1      37.180  15.505  10.213  0.00  0.00    -0.200 OA
HETATM   15  O   UNK N   1      35.337  16.301  11.423  0.00  0.00    -0.200 OA
BRANCH  13  16
HETATM   16  C   UNK N   1      36.336  13.865  12.208  0.00  0.00     0.103 A 
HETATM   17  C   UNK N   1      36.040  14.209  13.530  0.00  0.00     0.050 A 
HETATM   18  C   UNK N   1      36.420  13.363  14.576  0.00  0.00     0.035 A 
HETATM   19  C   UNK N   1      37.098  12.173  14.307  0.00  0.00     0.025 A 
HETATM   20 Cl   UNK N   1      36.064  13.801  16.231  0.00  0.00    -0.084 Cl
HETATM   21  C   UNK N   1      37.400  11.824  12.991  0.00  0.00     0.027 A 
HETATM   22  C   UNK N   1      37.028  12.661  11.938  0.00  0.00     0.057 A 
HETATM   23 Cl   UNK N   1      37.470  12.175  10.306  0.00  0.00    -0.083 Cl
ENDBRANCH  13  16
ENDBRANCH  11  13
ENDBRANCH   1  11
BRANCH   8  24
HETATM   24  C   UNK N   1      32.290  15.582   5.019  0.00  0.00    -0.007 A 
HETATM   25  C   UNK N   1      32.183  14.207   4.756  0.00  0.00     0.102 A 
HETATM   26  N   UNK N   1      32.677  13.665   3.619  0.00  0.00    -0.346 N 
HETATM   27  C   UNK N   1      33.297  14.421   2.681  0.00  0.00     0.141 A 
ATOM     28  HN  UNK N   1      32.580  12.662   3.464  1.00  0.00     0.167 HD
HETATM   29  C   UNK N   1      33.438  15.808   2.895  0.00  0.00     0.057 A 
HETATM   30  C   UNK N   1      32.934  16.386   4.070  0.00  0.00     0.018 A 
BRANCH  27  31
HETATM   31  O   UNK N   1      33.758  13.815   1.563  0.00  0.00    -0.341 OA
HETATM   32  C   UNK N   1      33.288  12.607   1.105  0.00  0.00     0.211 C 
ENDBRANCH  27  31
ENDBRANCH   8  24
BRANCH   6  33
HETATM   33  O   UNK N   1      28.869  18.044   7.688  0.00  0.00    -0.356 OA
HETATM   34  C   UNK N   1      28.232  18.311   8.879  0.00  0.00     0.210 C 
ENDBRANCH   6  33
TORSDOF 6
ENDMDL
MODEL 7
REMARK VINA RESULT:      -7.5      9.904     13.548
REMARK  6 active torsions:
REMARK  status: ('A' for Active; 'I' for Inactive)
REMARK    1  A    between atoms: C_5  and  S_7 
REMARK    2  A    between atoms: S_7  and  N_10 
REMARK    3  A    between atoms: N_10  and  C_11 
REMARK    4  A    between atoms: C_16  and  O_23 
REMARK    5  A    between atoms: C_18  and  C_30 
REMARK    6  A    between atoms: C_26  and  O_32 
ROOT
HETATM    1  C   UNK N   1      34.965  13.428  10.560  0.00  0.00     0.239 A 
HETATM    2  N   UNK N   1      36.019  12.949   9.841  0.00  0.00    -0.319 N 
ATOM      3  HN  UNK N   1      36.722  12.263  10.117  1.00  0.00     0.169 HD
HETATM    4  C   UNK N   1      35.897  13.615   8.663  0.00  0.00     0.073 A 
HETATM    5  C   UNK N   1      36.705  13.572   7.528  0.00  0.00     0.069 A 
HETATM    6  C   UNK N   1      36.353  14.404   6.432  0.00  0.00     0.071 A 
HETATM    7  C   UNK N   1      35.192  15.236   6.509  0.00  0.00     0.052 A 
HETATM    8  C   UNK N   1      34.395  15.249   7.674  0.00  0.00     0.014 A 
HETATM    9  C   UNK N   1      34.809  14.426   8.719  0.00  0.00     0.117 A 
HETATM   10  O   UNK N   1      34.262  14.301   9.887  0.00  0.00    -0.276 OA
ENDROOT
BRANCH   1  11
HETATM   11  N   UNK N   1      34.638  13.140  11.904  0.00  0.00    -0.245 N 
HETATM   12  H   UNK N   1      33.688  12.938  12.062  0.00  0.00     0.182 HD
BRANCH  11  13
HETATM   13  S   UNK N   1      35.645  13.085  13.332  0.00  0.00     0.267 S 
HETATM   14  O   UNK N   1      36.963  12.563  12.739  0.00  0.00    -0.200 OA
HETATM   15  O   UNK N   1      36.036  14.551  13.565  0.00  0.00    -0.200 OA
BRANCH  13  16
HETATM   16  C   UNK N   1      35.331  12.250  14.889  0.00  0.00     0.103 A 
HETATM   17  C   UNK N   1      35.372  12.969  16.087  0.00  0.00     0.050 A 
HETATM   18  C   UNK N   1      35.170  12.315  17.306  0.00  0.00     0.035 A 
HETATM   19  C   UNK N   1      34.930  10.940  17.333  0.00  0.00     0.025 A 
HETATM   20 Cl   UNK N   1      35.238  13.212  18.804  0.00  0.00    -0.084 Cl
HETATM   21  C   UNK N   1      34.891  10.214  16.144  0.00  0.00     0.027 A 
HETATM   22  C   UNK N   1      35.092  10.856  14.921  0.00  0.00     0.057 A 
HETATM   23 Cl   UNK N   1      35.062   9.873  13.461  0.00  0.00    -0.083 Cl
ENDBRANCH  13  16
ENDBRANCH  11  13
ENDBRANCH   1  11
BRANCH   8  24
HETATM   24  C   UNK N   1      33.165  16.087   7.824  0.00  0.00    -0.007 A 
HETATM   25  C   UNK N   1      31.927  15.578   7.401  0.00  0.00     0.102 A 
HETATM   26  N   UNK N   1      30.789  16.300   7.520  0.00  0.00    -0.346 N 
HETATM   27  C   UNK N   1      30.790  17.546   8.050  0.00  0.00     0.141 A 
ATOM     28  HN  UNK N   1      29.909  15.896   7.200  1.00  0.00     0.167 HD
HETATM   29  C   UNK N   1      32.006  18.110   8.487  0.00  0.00     0.057 A 
HETATM   30  C   UNK N   1      33.196  17.377   8.369  0.00  0.00     0.018 A 
BRANCH  27  31
HETATM   31  O   UNK N   1      29.613  18.208   8.148  0.00  0.00    -0.341 OA
HETATM   32  C   UNK N   1      28.750  18.071   9.208  0.00  0.00     0.211 C 
ENDBRANCH  27  31
ENDBRANCH   8  24
BRANCH   6  33
HETATM   33  O   UNK N   1      37.139  14.395   5.327  0.00  0.00    -0.356 OA
HETATM   34  C   UNK N   1      38.509  14.516   5.374  0.00  0.00     0.210 C 
ENDBRANCH   6  33
TORSDOF 6
ENDMDL
MODEL 8
REMARK VINA RESULT:      -7.5     14.609     16.486
REMARK  6 active torsions:
REMARK  status: ('A' for Active; 'I' for Inactive)
REMARK    1  A    between atoms: C_5  and  S_7 
REMARK    2  A    between atoms: S_7  and  N_10 
REMARK    3  A    between atoms: N_10  and  C_11 
REMARK    4  A    between atoms: C_16  and  O_23 
REMARK    5  A    between atoms: C_18  and  C_30 
REMARK    6  A    between atoms: C_26  and  O_32 
ROOT
HETATM    1  C   UNK N   1      25.776  24.008  -6.048  0.00  0.00     0.239 A 
HETATM    2  N   UNK N   1      25.271  25.270  -6.141  0.00  0.00    -0.319 N 
ATOM      3  HN  UNK N   1      24.417  25.584  -6.602  1.00  0.00     0.169 HD
HETATM    4  C   UNK N   1      26.192  26.004  -5.463  0.00  0.00     0.073 A 
HETATM    5  C   UNK N   1      26.243  27.379  -5.238  0.00  0.00     0.069 A 
HETATM    6  C   UNK N   1      27.349  27.890  -4.507  0.00  0.00     0.071 A 
HETATM    7  C   UNK N   1      28.354  26.999  -4.015  0.00  0.00     0.052 A 
HETATM    8  C   UNK N   1      28.264  25.612  -4.259  0.00  0.00     0.014 A 
HETATM    9  C   UNK N   1      27.166  25.181  -5.000  0.00  0.00     0.117 A 
HETATM   10  O   UNK N   1      26.896  23.970  -5.375  0.00  0.00    -0.276 OA
ENDROOT
BRANCH   1  11
HETATM   11  N   UNK N   1      25.268  22.831  -6.643  0.00  0.00    -0.245 N 
HETATM   12  H   UNK N   1      24.415  22.516  -6.268  0.00  0.00     0.182 HD
BRANCH  11  13
HETATM   13  S   UNK N   1      25.907  21.845  -7.937  0.00  0.00     0.267 S 
HETATM   14  O   UNK N   1      25.183  20.516  -7.677  0.00  0.00    -0.200 OA
HETATM   15  O   UNK N   1      25.134  22.316  -9.177  0.00  0.00    -0.200 OA
BRANCH  13  16
HETATM   16  C   UNK N   1      27.623  21.508  -8.342  0.00  0.00     0.103 A 
HETATM   17  C   UNK N   1      28.104  20.196  -8.303  0.00  0.00     0.050 A 
HETATM   18  C   UNK N   1      29.450  19.933  -8.576  0.00  0.00     0.035 A 
HETATM   19  C   UNK N   1      30.320  20.979  -8.886  0.00  0.00     0.025 A 
HETATM   20 Cl   UNK N   1      30.054  18.294  -8.511  0.00  0.00    -0.084 Cl
HETATM   21  C   UNK N   1      29.850  22.292  -8.924  0.00  0.00     0.027 A 
HETATM   22  C   UNK N   1      28.509  22.566  -8.652  0.00  0.00     0.057 A 
HETATM   23 Cl   UNK N   1      27.991  24.248  -8.686  0.00  0.00    -0.083 Cl
ENDBRANCH  13  16
ENDBRANCH  11  13
ENDBRANCH   1  11
BRANCH   8  24
HETATM   24  C   UNK N   1      29.272  24.621  -3.770  0.00  0.00    -0.007 A 
HETATM   25  C   UNK N   1      28.923  23.730  -2.743  0.00  0.00     0.102 A 
HETATM   26  N   UNK N   1      29.802  22.816  -2.271  0.00  0.00    -0.346 N 
HETATM   27  C   UNK N   1      31.059  22.717  -2.766  0.00  0.00     0.141 A 
ATOM     28  HN  UNK N   1      29.511  22.186  -1.523  1.00  0.00     0.167 HD
HETATM   29  C   UNK N   1      31.467  23.590  -3.794  0.00  0.00     0.057 A 
HETATM   30  C   UNK N   1      30.569  24.546  -4.294  0.00  0.00     0.018 A 
BRANCH  27  31
HETATM   31  O   UNK N   1      31.882  21.773  -2.254  0.00  0.00    -0.341 OA
HETATM   32  C   UNK N   1      32.943  21.236  -2.943  0.00  0.00     0.211 C 
ENDBRANCH  27  31
ENDBRANCH   8  24
BRANCH   6  33
HETATM   33  O   UNK N   1      27.431  29.227  -4.297  0.00  0.00    -0.356 OA
HETATM   34  C   UNK N   1      26.564  29.918  -3.480  0.00  0.00     0.210 C 
ENDBRANCH   6  33
TORSDOF 6
ENDMDL
MODEL 9
REMARK VINA RESULT:      -7.3      1.747      2.112
REMARK  6 active torsions:
REMARK  status: ('A' for Active; 'I' for Inactive)
REMARK    1  A    between atoms: C_5  and  S_7 
REMARK    2  A    between atoms: S_7  and  N_10 
REMARK    3  A    between atoms: N_10  and  C_11 
REMARK    4  A    between atoms: C_16  and  O_23 
REMARK    5  A    between atoms: C_18  and  C_30 
REMARK    6  A    between atoms: C_26  and  O_32 
ROOT
HETATM    1  C   UNK N   1      20.883  15.915   6.771  0.00  0.00     0.239 A 
HETATM    2  N   UNK N   1      19.796  16.442   6.142  0.00  0.00    -0.319 N 
ATOM      3  HN  UNK N   1      18.884  16.680   6.532  1.00  0.00     0.169 HD
HETATM    4  C   UNK N   1      20.235  16.574   4.862  0.00  0.00     0.073 A 
HETATM    5  C   UNK N   1      19.559  17.034   3.732  0.00  0.00     0.069 A 
HETATM    6  C   UNK N   1      20.261  17.042   2.498  0.00  0.00     0.071 A 
HETATM    7  C   UNK N   1      21.622  16.602   2.446  0.00  0.00     0.052 A 
HETATM    8  C   UNK N   1      22.274  16.148   3.612  0.00  0.00     0.014 A 
HETATM    9  C   UNK N   1      21.520  16.147   4.784  0.00  0.00     0.117 A 
HETATM   10  O   UNK N   1      21.892  15.742   5.958  0.00  0.00    -0.276 OA
ENDROOT
BRANCH   1  11
HETATM   11  N   UNK N   1      20.978  15.494   8.117  0.00  0.00    -0.245 N 
HETATM   12  H   UNK N   1      20.982  16.224   8.776  0.00  0.00     0.182 HD
BRANCH  11  13
HETATM   13  S   UNK N   1      21.091  13.889   8.800  0.00  0.00     0.267 S 
HETATM   14  O   UNK N   1      19.830  13.857   9.677  0.00  0.00    -0.200 OA
HETATM   15  O   UNK N   1      20.631  12.969   7.661  0.00  0.00    -0.200 OA
BRANCH  13  16
HETATM   16  C   UNK N   1      22.454  13.154   9.707  0.00  0.00     0.103 A 
HETATM   17  C   UNK N   1      22.260  12.711  11.019  0.00  0.00     0.050 A 
HETATM   18  C   UNK N   1      23.330  12.177  11.744  0.00  0.00     0.035 A 
HETATM   19  C   UNK N   1      24.596  12.085  11.163  0.00  0.00     0.025 A 
HETATM   20 Cl   UNK N   1      23.091  11.638  13.390  0.00  0.00    -0.084 Cl
HETATM   21  C   UNK N   1      24.799  12.527   9.857  0.00  0.00     0.027 A 
HETATM   22  C   UNK N   1      23.740  13.064   9.123  0.00  0.00     0.057 A 
HETATM   23 Cl   UNK N   1      24.073  13.633   7.492  0.00  0.00    -0.083 Cl
ENDBRANCH  13  16
ENDBRANCH  11  13
ENDBRANCH   1  11
BRANCH   8  24
HETATM   24  C   UNK N   1      23.694  15.681   3.635  0.00  0.00    -0.007 A 
HETATM   25  C   UNK N   1      24.728  16.621   3.771  0.00  0.00     0.102 A 
HETATM   26  N   UNK N   1      26.027  16.244   3.799  0.00  0.00    -0.346 N 
HETATM   27  C   UNK N   1      26.392  14.943   3.697  0.00  0.00     0.141 A 
ATOM     28  HN  UNK N   1      26.750  16.956   3.899  1.00  0.00     0.167 HD
HETATM   29  C   UNK N   1      25.396  13.956   3.552  0.00  0.00     0.057 A 
HETATM   30  C   UNK N   1      24.044  14.330   3.519  0.00  0.00     0.018 A 
BRANCH  27  31
HETATM   31  O   UNK N   1      27.709  14.636   3.742  0.00  0.00    -0.341 OA
HETATM   32  C   UNK N   1      28.593  14.928   2.730  0.00  0.00     0.211 C 
ENDBRANCH  27  31
ENDBRANCH   8  24
BRANCH   6  33
HETATM   33  O   UNK N   1      19.616  17.463   1.382  0.00  0.00    -0.356 OA
HETATM   34  C   UNK N   1      19.966  17.065   0.111  0.00  0.00     0.210 C 
ENDBRANCH   6  33
TORSDOF 6
ENDMDL
