MODEL 1
REMARK VINA RESULT:      -7.1      0.000      0.000
REMARK  5 active torsions:
REMARK  status: ('A' for Active; 'I' for Inactive)
REMARK    1  A    between atoms: C_9  and  N_14 
REMARK    2  A    between atoms: C_10  and  C_11 
REMARK    3  A    between atoms: C_11  and  O_12 
REMARK    4  A    between atoms: N_14  and  S_15 
REMARK    5  A    between atoms: S_15  and  C_16 
ROOT
HETATM    1  C   UNK N   1      33.099  17.773   7.178  0.00  0.00     0.005 C 
HETATM    2  C   UNK N   1      32.431  16.858   6.154  0.00  0.00     0.039 C 
HETATM    3  C   UNK N   1      30.935  16.736   6.309  0.00  0.00    -0.051 A 
HETATM    4  C   UNK N   1      30.246  17.268   7.428  0.00  0.00    -0.033 A 
HETATM    5  C   UNK N   1      31.027  17.996   8.499  0.00  0.00     0.040 C 
HETATM    6  C   UNK N   1      32.487  17.575   8.550  0.00  0.00     0.005 C 
HETATM    7  C   UNK N   1      30.234  16.071   5.311  0.00  0.00     0.010 A 
HETATM    8  C   UNK N   1      28.855  15.928   5.391  0.00  0.00     0.032 A 
HETATM    9  C   UNK N   1      28.146  16.433   6.482  0.00  0.00     0.060 A 
HETATM   10  C   UNK N   1      28.828  17.117   7.526  0.00  0.00     0.071 A 
ENDROOT
BRANCH   9  11
HETATM   11  N   UNK N   1      26.739  16.261   6.532  0.00  0.00    -0.280 N 
HETATM   12  H   UNK N   1      26.344  15.843   7.331  0.00  0.00     0.179 HD
BRANCH  11  13
HETATM   13  S   UNK N   1      25.670  16.764   5.234  0.00  0.00     0.263 S 
HETATM   14  O   UNK N   1      24.262  16.501   5.786  0.00  0.00    -0.200 OA
HETATM   15  O   UNK N   1      25.781  15.617   4.218  0.00  0.00    -0.200 OA
BRANCH  13  16
HETATM   16  C   UNK N   1      25.746  18.351   4.404  0.00  0.00     0.079 A 
HETATM   17  C   UNK N   1      26.979  19.003   4.284  0.00  0.00     0.025 A 
HETATM   18  C   UNK N   1      27.077  20.198   3.565  0.00  0.00     0.002 A 
HETATM   19  C   UNK N   1      25.942  20.738   2.954  0.00  0.00     0.000 A 
HETATM   20  C   UNK N   1      24.711  20.086   3.067  0.00  0.00     0.002 A 
HETATM   21  C   UNK N   1      24.613  18.890   3.785  0.00  0.00     0.025 A 
ENDBRANCH  13  16
ENDBRANCH  11  13
ENDBRANCH   9  11
BRANCH  10  22
HETATM   22  C   UNK N   1      28.055  17.694   8.688  0.00  0.00     0.179 C 
HETATM   23  O   UNK N   1      27.776  17.010   9.657  0.00  0.00    -0.646 OA
BRANCH  22  24
HETATM   24  O   UNK N   1      27.672  18.986   8.688  0.00  0.00    -0.773 OA
HETATM   25  H   UNK N   1      27.019  19.285   8.087  0.00  0.00     0.167 HD
ENDBRANCH  22  24
ENDBRANCH  10  22
TORSDOF 5
ENDMDL
MODEL 2
REMARK VINA RESULT:      -7.0      6.297      9.399
REMARK  5 active torsions:
REMARK  status: ('A' for Active; 'I' for Inactive)
REMARK    1  A    between atoms: C_9  and  N_14 
REMARK    2  A    between atoms: C_10  and  C_11 
REMARK    3  A    between atoms: C_11  and  O_12 
REMARK    4  A    between atoms: N_14  and  S_15 
REMARK    5  A    between atoms: S_15  and  C_16 
ROOT
HETATM    1  C   UNK N   1      21.149  12.128   2.303  0.00  0.00     0.005 C 
HETATM    2  C   UNK N   1      21.339  13.064   3.494  0.00  0.00     0.039 C 
HETATM    3  C   UNK N   1      20.894  14.484   3.247  0.00  0.00    -0.051 A 
HETATM    4  C   UNK N   1      20.519  14.945   1.960  0.00  0.00    -0.033 A 
HETATM    5  C   UNK N   1      20.549  13.984   0.794  0.00  0.00     0.040 C 
HETATM    6  C   UNK N   1      21.513  12.828   1.010  0.00  0.00     0.005 C 
HETATM    7  C   UNK N   1      20.864  15.350   4.334  0.00  0.00     0.010 A 
HETATM    8  C   UNK N   1      20.460  16.669   4.175  0.00  0.00     0.032 A 
HETATM    9  C   UNK N   1      20.091  17.158   2.922  0.00  0.00     0.060 A 
HETATM   10  C   UNK N   1      20.111  16.304   1.785  0.00  0.00     0.071 A 
ENDROOT
BRANCH   9  11
HETATM   11  N   UNK N   1      19.690  18.513   2.798  0.00  0.00    -0.280 N 
HETATM   12  H   UNK N   1      18.740  18.709   2.632  0.00  0.00     0.179 HD
BRANCH  11  13
HETATM   13  S   UNK N   1      20.812  19.856   2.930  0.00  0.00     0.263 S 
HETATM   14  O   UNK N   1      20.162  20.786   3.964  0.00  0.00    -0.200 OA
HETATM   15  O   UNK N   1      20.558  20.659   1.646  0.00  0.00    -0.200 OA
BRANCH  13  16
HETATM   16  C   UNK N   1      22.571  19.692   3.235  0.00  0.00     0.079 A 
HETATM   17  C   UNK N   1      23.458  20.587   2.625  0.00  0.00     0.025 A 
HETATM   18  C   UNK N   1      24.825  20.534   2.916  0.00  0.00     0.002 A 
HETATM   19  C   UNK N   1      25.306  19.590   3.828  0.00  0.00     0.000 A 
HETATM   20  C   UNK N   1      24.421  18.698   4.443  0.00  0.00     0.002 A 
HETATM   21  C   UNK N   1      23.054  18.753   4.152  0.00  0.00     0.025 A 
ENDBRANCH  13  16
ENDBRANCH  11  13
ENDBRANCH   9  11
BRANCH  10  22
HETATM   22  C   UNK N   1      19.678  16.826   0.435  0.00  0.00     0.179 C 
HETATM   23  O   UNK N   1      20.429  17.500  -0.248  0.00  0.00    -0.646 OA
BRANCH  22  24
HETATM   24  O   UNK N   1      18.455  16.540  -0.054  0.00  0.00    -0.773 OA
HETATM   25  H   UNK N   1      18.065  17.094  -0.702  0.00  0.00     0.167 HD
ENDBRANCH  22  24
ENDBRANCH  10  22
TORSDOF 5
ENDMDL
MODEL 3
REMARK VINA RESULT:      -7.0      6.799      8.222
REMARK  5 active torsions:
REMARK  status: ('A' for Active; 'I' for Inactive)
REMARK    1  A    between atoms: C_9  and  N_14 
REMARK    2  A    between atoms: C_10  and  C_11 
REMARK    3  A    between atoms: C_11  and  O_12 
REMARK    4  A    between atoms: N_14  and  S_15 
REMARK    5  A    between atoms: S_15  and  C_16 
ROOT
HETATM    1  C   UNK N   1      23.174  11.575  10.736  0.00  0.00     0.005 C 
HETATM    2  C   UNK N   1      21.918  12.410  10.975  0.00  0.00     0.039 C 
HETATM    3  C   UNK N   1      21.588  13.372   9.861  0.00  0.00    -0.051 A 
HETATM    4  C   UNK N   1      22.478  13.615   8.784  0.00  0.00    -0.033 A 
HETATM    5  C   UNK N   1      23.797  12.877   8.736  0.00  0.00     0.040 C 
HETATM    6  C   UNK N   1      24.264  12.419  10.108  0.00  0.00     0.005 C 
HETATM    7  C   UNK N   1      20.367  14.034   9.918  0.00  0.00     0.010 A 
HETATM    8  C   UNK N   1      20.001  14.929   8.922  0.00  0.00     0.032 A 
HETATM    9  C   UNK N   1      20.856  15.197   7.852  0.00  0.00     0.060 A 
HETATM   10  C   UNK N   1      22.115  14.542   7.759  0.00  0.00     0.071 A 
ENDROOT
BRANCH   9  11
HETATM   11  N   UNK N   1      20.450  16.122   6.857  0.00  0.00    -0.280 N 
HETATM   12  H   UNK N   1      20.735  17.061   6.943  0.00  0.00     0.179 HD
BRANCH  11  13
HETATM   13  S   UNK N   1      19.464  15.669   5.477  0.00  0.00     0.263 S 
HETATM   14  O   UNK N   1      18.034  16.029   5.905  0.00  0.00    -0.200 OA
HETATM   15  O   UNK N   1      19.399  14.138   5.575  0.00  0.00    -0.200 OA
BRANCH  13  16
HETATM   16  C   UNK N   1      19.774  16.180   3.788  0.00  0.00     0.079 A 
HETATM   17  C   UNK N   1      19.969  15.206   2.802  0.00  0.00     0.025 A 
HETATM   18  C   UNK N   1      20.125  15.579   1.463  0.00  0.00     0.002 A 
HETATM   19  C   UNK N   1      20.076  16.929   1.106  0.00  0.00     0.000 A 
HETATM   20  C   UNK N   1      19.876  17.904   2.088  0.00  0.00     0.002 A 
HETATM   21  C   UNK N   1      19.718  17.531   3.427  0.00  0.00     0.025 A 
ENDBRANCH  13  16
ENDBRANCH  11  13
ENDBRANCH   9  11
BRANCH  10  22
HETATM   22  C   UNK N   1      23.024  14.807   6.582  0.00  0.00     0.179 C 
HETATM   23  O   UNK N   1      22.790  14.325   5.487  0.00  0.00    -0.646 OA
BRANCH  22  24
HETATM   24  O   UNK N   1      24.105  15.601   6.710  0.00  0.00    -0.773 OA
HETATM   25  H   UNK N   1      24.404  15.858   7.560  0.00  0.00     0.167 HD
ENDBRANCH  22  24
ENDBRANCH  10  22
TORSDOF 5
ENDMDL
MODEL 4
REMARK VINA RESULT:      -7.0     12.427     14.512
REMARK  5 active torsions:
REMARK  status: ('A' for Active; 'I' for Inactive)
REMARK    1  A    between atoms: C_9  and  N_14 
REMARK    2  A    between atoms: C_10  and  C_11 
REMARK    3  A    between atoms: C_11  and  O_12 
REMARK    4  A    between atoms: N_14  and  S_15 
REMARK    5  A    between atoms: S_15  and  C_16 
ROOT
HETATM    1  C   UNK N   1      30.230  21.128  -7.048  0.00  0.00     0.005 C 
HETATM    2  C   UNK N   1      28.873  21.290  -7.727  0.00  0.00     0.039 C 
HETATM    3  C   UNK N   1      27.957  22.285  -7.057  0.00  0.00    -0.051 A 
HETATM    4  C   UNK N   1      28.261  22.864  -5.800  0.00  0.00    -0.033 A 
HETATM    5  C   UNK N   1      29.551  22.489  -5.107  0.00  0.00     0.040 C 
HETATM    6  C   UNK N   1      30.078  21.131  -5.541  0.00  0.00     0.005 C 
HETATM    7  C   UNK N   1      26.779  22.623  -7.714  0.00  0.00     0.010 A 
HETATM    8  C   UNK N   1      25.895  23.535  -7.154  0.00  0.00     0.032 A 
HETATM    9  C   UNK N   1      26.159  24.119  -5.914  0.00  0.00     0.060 A 
HETATM   10  C   UNK N   1      27.352  23.796  -5.209  0.00  0.00     0.071 A 
ENDROOT
BRANCH   9  11
HETATM   11  N   UNK N   1      25.229  25.041  -5.371  0.00  0.00    -0.280 N 
HETATM   12  H   UNK N   1      24.395  24.694  -4.979  0.00  0.00     0.179 HD
BRANCH  11  13
HETATM   13  S   UNK N   1      25.498  26.776  -5.365  0.00  0.00     0.263 S 
HETATM   14  O   UNK N   1      25.632  27.128  -3.877  0.00  0.00    -0.200 OA
HETATM   15  O   UNK N   1      24.104  27.353  -5.655  0.00  0.00    -0.200 OA
BRANCH  13  16
HETATM   16  C   UNK N   1      26.745  27.620  -6.337  0.00  0.00     0.079 A 
HETATM   17  C   UNK N   1      27.348  28.775  -5.825  0.00  0.00     0.025 A 
HETATM   18  C   UNK N   1      28.384  29.399  -6.526  0.00  0.00     0.002 A 
HETATM   19  C   UNK N   1      28.827  28.863  -7.738  0.00  0.00     0.000 A 
HETATM   20  C   UNK N   1      28.230  27.707  -8.250  0.00  0.00     0.002 A 
HETATM   21  C   UNK N   1      27.194  27.081  -7.548  0.00  0.00     0.025 A 
ENDBRANCH  13  16
ENDBRANCH  11  13
ENDBRANCH   9  11
BRANCH  10  22
HETATM   22  C   UNK N   1      27.653  24.456  -3.885  0.00  0.00     0.179 C 
HETATM   23  O   UNK N   1      28.628  25.175  -3.748  0.00  0.00    -0.646 OA
BRANCH  22  24
HETATM   24  O   UNK N   1      26.838  24.280  -2.826  0.00  0.00    -0.773 OA
HETATM   25  H   UNK N   1      26.066  24.801  -2.733  0.00  0.00     0.167 HD
ENDBRANCH  22  24
ENDBRANCH  10  22
TORSDOF 5
ENDMDL
MODEL 5
REMARK VINA RESULT:      -6.8     14.255     17.290
REMARK  5 active torsions:
REMARK  status: ('A' for Active; 'I' for Inactive)
REMARK    1  A    between atoms: C_9  and  N_14 
REMARK    2  A    between atoms: C_10  and  C_11 
REMARK    3  A    between atoms: C_11  and  O_12 
REMARK    4  A    between atoms: N_14  and  S_15 
REMARK    5  A    between atoms: S_15  and  C_16 
ROOT
HETATM    1  C   UNK N   1      35.260  12.275  14.854  0.00  0.00     0.005 C 
HETATM    2  C   UNK N   1      35.047  13.147  16.088  0.00  0.00     0.039 C 
HETATM    3  C   UNK N   1      35.089  12.397  17.396  0.00  0.00    -0.051 A 
HETATM    4  C   UNK N   1      35.125  10.982  17.454  0.00  0.00    -0.033 A 
HETATM    5  C   UNK N   1      35.138  10.190  16.166  0.00  0.00     0.040 C 
HETATM    6  C   UNK N   1      34.531  10.955  15.001  0.00  0.00     0.005 C 
HETATM    7  C   UNK N   1      35.085  13.143  18.569  0.00  0.00     0.010 A 
HETATM    8  C   UNK N   1      35.127  12.514  19.806  0.00  0.00     0.032 A 
HETATM    9  C   UNK N   1      35.156  11.122  19.900  0.00  0.00     0.060 A 
HETATM   10  C   UNK N   1      35.158  10.324  18.723  0.00  0.00     0.071 A 
ENDROOT
BRANCH   9  11
HETATM   11  N   UNK N   1      35.191  10.515  21.182  0.00  0.00    -0.280 N 
HETATM   12  H   UNK N   1      36.064  10.393  21.620  0.00  0.00     0.179 HD
BRANCH  11  13
HETATM   13  S   UNK N   1      33.748   9.975  22.022  0.00  0.00     0.263 S 
HETATM   14  O   UNK N   1      32.963  11.267  22.286  0.00  0.00    -0.200 OA
HETATM   15  O   UNK N   1      34.255   9.672  23.440  0.00  0.00    -0.200 OA
BRANCH  13  16
HETATM   16  C   UNK N   1      32.660   8.671  21.449  0.00  0.00     0.079 A 
HETATM   17  C   UNK N   1      31.575   8.995  20.627  0.00  0.00     0.025 A 
HETATM   18  C   UNK N   1      30.765   7.986  20.097  0.00  0.00     0.002 A 
HETATM   19  C   UNK N   1      31.047   6.647  20.381  0.00  0.00     0.000 A 
HETATM   20  C   UNK N   1      32.133   6.319  21.198  0.00  0.00     0.002 A 
HETATM   21  C   UNK N   1      32.944   7.329  21.726  0.00  0.00     0.025 A 
ENDBRANCH  13  16
ENDBRANCH  11  13
ENDBRANCH   9  11
BRANCH  10  22
HETATM   22  C   UNK N   1      35.225   8.819  18.826  0.00  0.00     0.179 C 
HETATM   23  O   UNK N   1      36.232   8.261  19.226  0.00  0.00    -0.646 OA
BRANCH  22  24
HETATM   24  O   UNK N   1      34.164   8.056  18.496  0.00  0.00    -0.773 OA
HETATM   25  H   UNK N   1      33.613   7.699  19.165  0.00  0.00     0.167 HD
ENDBRANCH  22  24
ENDBRANCH  10  22
TORSDOF 5
ENDMDL
MODEL 6
REMARK VINA RESULT:      -6.8     12.863     14.715
REMARK  5 active torsions:
REMARK  status: ('A' for Active; 'I' for Inactive)
REMARK    1  A    between atoms: C_9  and  N_14 
REMARK    2  A    between atoms: C_10  and  C_11 
REMARK    3  A    between atoms: C_11  and  O_12 
REMARK    4  A    between atoms: N_14  and  S_15 
REMARK    5  A    between atoms: S_15  and  C_16 
ROOT
HETATM    1  C   UNK N   1      30.241  20.896  -6.808  0.00  0.00     0.005 C 
HETATM    2  C   UNK N   1      30.475  21.952  -5.731  0.00  0.00     0.039 C 
HETATM    3  C   UNK N   1      29.269  22.801  -5.418  0.00  0.00    -0.051 A 
HETATM    4  C   UNK N   1      28.086  22.749  -6.197  0.00  0.00    -0.033 A 
HETATM    5  C   UNK N   1      28.018  21.803  -7.374  0.00  0.00     0.040 C 
HETATM    6  C   UNK N   1      29.390  21.457  -7.929  0.00  0.00     0.005 C 
HETATM    7  C   UNK N   1      29.347  23.659  -4.327  0.00  0.00     0.010 A 
HETATM    8  C   UNK N   1      28.270  24.465  -3.982  0.00  0.00     0.032 A 
HETATM    9  C   UNK N   1      27.093  24.444  -4.732  0.00  0.00     0.060 A 
HETATM   10  C   UNK N   1      26.974  23.582  -5.857  0.00  0.00     0.071 A 
ENDROOT
BRANCH   9  11
HETATM   11  N   UNK N   1      26.016  25.286  -4.353  0.00  0.00    -0.280 N 
HETATM   12  H   UNK N   1      25.328  24.927  -3.747  0.00  0.00     0.179 HD
BRANCH  11  13
HETATM   13  S   UNK N   1      25.856  26.942  -4.915  0.00  0.00     0.263 S 
HETATM   14  O   UNK N   1      25.496  27.732  -3.649  0.00  0.00    -0.200 OA
HETATM   15  O   UNK N   1      24.498  26.944  -5.631  0.00  0.00    -0.200 OA
BRANCH  13  16
HETATM   16  C   UNK N   1      27.084  27.814  -5.886  0.00  0.00     0.079 A 
HETATM   17  C   UNK N   1      27.509  27.268  -7.103  0.00  0.00     0.025 A 
HETATM   18  C   UNK N   1      28.400  27.972  -7.919  0.00  0.00     0.002 A 
HETATM   19  C   UNK N   1      28.858  29.232  -7.524  0.00  0.00     0.000 A 
HETATM   20  C   UNK N   1      28.431  29.783  -6.312  0.00  0.00     0.002 A 
HETATM   21  C   UNK N   1      27.539  29.078  -5.497  0.00  0.00     0.025 A 
ENDBRANCH  13  16
ENDBRANCH  11  13
ENDBRANCH   9  11
BRANCH  10  22
HETATM   22  C   UNK N   1      25.688  23.535  -6.646  0.00  0.00     0.179 C 
HETATM   23  O   UNK N   1      24.930  22.585  -6.556  0.00  0.00    -0.646 OA
BRANCH  22  24
HETATM   24  O   UNK N   1      25.337  24.555  -7.455  0.00  0.00    -0.773 OA
HETATM   25  H   UNK N   1      25.613  24.564  -8.350  0.00  0.00     0.167 HD
ENDBRANCH  22  24
ENDBRANCH  10  22
TORSDOF 5
ENDMDL
MODEL 7
REMARK VINA RESULT:      -6.8      6.580      7.926
REMARK  5 active torsions:
REMARK  status: ('A' for Active; 'I' for Inactive)
REMARK    1  A    between atoms: C_9  and  N_14 
REMARK    2  A    between atoms: C_10  and  C_11 
REMARK    3  A    between atoms: C_11  and  O_12 
REMARK    4  A    between atoms: N_14  and  S_15 
REMARK    5  A    between atoms: S_15  and  C_16 
ROOT
HETATM    1  C   UNK N   1      22.608  12.695   9.609  0.00  0.00     0.005 C 
HETATM    2  C   UNK N   1      23.209  13.158   8.285  0.00  0.00     0.039 C 
HETATM    3  C   UNK N   1      22.628  14.443   7.752  0.00  0.00    -0.051 A 
HETATM    4  C   UNK N   1      21.489  15.056   8.333  0.00  0.00    -0.033 A 
HETATM    5  C   UNK N   1      20.839  14.413   9.537  0.00  0.00     0.040 C 
HETATM    6  C   UNK N   1      21.110  12.919   9.623  0.00  0.00     0.005 C 
HETATM    7  C   UNK N   1      23.245  15.024   6.649  0.00  0.00     0.010 A 
HETATM    8  C   UNK N   1      22.762  16.210   6.113  0.00  0.00     0.032 A 
HETATM    9  C   UNK N   1      21.639  16.836   6.656  0.00  0.00     0.060 A 
HETATM   10  C   UNK N   1      20.978  16.272   7.782  0.00  0.00     0.071 A 
ENDROOT
BRANCH   9  11
HETATM   11  N   UNK N   1      21.171  18.043   6.076  0.00  0.00    -0.280 N 
HETATM   12  H   UNK N   1      20.655  18.665   6.638  0.00  0.00     0.179 HD
BRANCH  11  13
HETATM   13  S   UNK N   1      21.474  18.478   4.403  0.00  0.00     0.263 S 
HETATM   14  O   UNK N   1      22.951  18.895   4.386  0.00  0.00    -0.200 OA
HETATM   15  O   UNK N   1      20.803  19.852   4.266  0.00  0.00    -0.200 OA
BRANCH  13  16
HETATM   16  C   UNK N   1      21.085  17.443   2.992  0.00  0.00     0.079 A 
HETATM   17  C   UNK N   1      21.525  16.114   2.975  0.00  0.00     0.025 A 
HETATM   18  C   UNK N   1      21.160  15.263   1.927  0.00  0.00     0.002 A 
HETATM   19  C   UNK N   1      20.344  15.739   0.897  0.00  0.00     0.000 A 
HETATM   20  C   UNK N   1      19.898  17.064   0.914  0.00  0.00     0.002 A 
HETATM   21  C   UNK N   1      20.262  17.914   1.964  0.00  0.00     0.025 A 
ENDBRANCH  13  16
ENDBRANCH  11  13
ENDBRANCH   9  11
BRANCH  10  22
HETATM   22  C   UNK N   1      19.784  16.969   8.390  0.00  0.00     0.179 C 
HETATM   23  O   UNK N   1      19.918  17.989   9.044  0.00  0.00    -0.646 OA
BRANCH  22  24
HETATM   24  O   UNK N   1      18.538  16.490   8.206  0.00  0.00    -0.773 OA
HETATM   25  H   UNK N   1      17.806  16.911   8.610  0.00  0.00     0.167 HD
ENDBRANCH  22  24
ENDBRANCH  10  22
TORSDOF 5
ENDMDL
MODEL 8
REMARK VINA RESULT:      -6.8     13.629     16.705
REMARK  5 active torsions:
REMARK  status: ('A' for Active; 'I' for Inactive)
REMARK    1  A    between atoms: C_9  and  N_14 
REMARK    2  A    between atoms: C_10  and  C_11 
REMARK    3  A    between atoms: C_11  and  O_12 
REMARK    4  A    between atoms: N_14  and  S_15 
REMARK    5  A    between atoms: S_15  and  C_16 
ROOT
HETATM    1  C   UNK N   1      35.043  12.069  14.175  0.00  0.00     0.005 C 
HETATM    2  C   UNK N   1      35.257  10.725  14.867  0.00  0.00     0.039 C 
HETATM    3  C   UNK N   1      35.226  10.788  16.373  0.00  0.00    -0.051 A 
HETATM    4  C   UNK N   1      35.199  12.018  17.078  0.00  0.00    -0.033 A 
HETATM    5  C   UNK N   1      35.185  13.314  16.300  0.00  0.00     0.040 C 
HETATM    6  C   UNK N   1      35.780  13.171  14.908  0.00  0.00     0.005 C 
HETATM    7  C   UNK N   1      35.232   9.585  17.071  0.00  0.00     0.010 A 
HETATM    8  C   UNK N   1      35.200   9.574  18.459  0.00  0.00     0.032 A 
HETATM    9  C   UNK N   1      35.181  10.766  19.184  0.00  0.00     0.060 A 
HETATM   10  C   UNK N   1      35.177  12.017  18.507  0.00  0.00     0.071 A 
ENDROOT
BRANCH   9  11
HETATM   11  N   UNK N   1      35.155  10.713  20.601  0.00  0.00    -0.280 N 
HETATM   12  H   UNK N   1      35.897  11.125  21.101  0.00  0.00     0.179 HD
BRANCH  11  13
HETATM   13  S   UNK N   1      33.859   9.948  21.505  0.00  0.00     0.263 S 
HETATM   14  O   UNK N   1      33.025  11.125  22.029  0.00  0.00    -0.200 OA
HETATM   15  O   UNK N   1      34.547   9.504  22.804  0.00  0.00    -0.200 OA
BRANCH  13  16
HETATM   16  C   UNK N   1      32.803   8.646  20.872  0.00  0.00     0.079 A 
HETATM   17  C   UNK N   1      33.294   7.336  20.807  0.00  0.00     0.025 A 
HETATM   18  C   UNK N   1      32.461   6.290  20.401  0.00  0.00     0.002 A 
HETATM   19  C   UNK N   1      31.129   6.551  20.067  0.00  0.00     0.000 A 
HETATM   20  C   UNK N   1      30.634   7.857  20.136  0.00  0.00     0.002 A 
HETATM   21  C   UNK N   1      31.468   8.903  20.545  0.00  0.00     0.025 A 
ENDBRANCH  13  16
ENDBRANCH  11  13
ENDBRANCH   9  11
BRANCH  10  22
HETATM   22  C   UNK N   1      35.120  13.305  19.293  0.00  0.00     0.179 C 
HETATM   23  O   UNK N   1      35.613  14.330  18.855  0.00  0.00    -0.646 OA
BRANCH  22  24
HETATM   24  O   UNK N   1      34.503  13.356  20.490  0.00  0.00    -0.773 OA
HETATM   25  H   UNK N   1      34.375  14.178  20.921  0.00  0.00     0.167 HD
ENDBRANCH  22  24
ENDBRANCH  10  22
TORSDOF 5
ENDMDL
MODEL 9
REMARK VINA RESULT:      -6.7     11.220     13.913
REMARK  5 active torsions:
REMARK  status: ('A' for Active; 'I' for Inactive)
REMARK    1  A    between atoms: C_9  and  N_14 
REMARK    2  A    between atoms: C_10  and  C_11 
REMARK    3  A    between atoms: C_11  and  O_12 
REMARK    4  A    between atoms: N_14  and  S_15 
REMARK    5  A    between atoms: S_15  and  C_16 
ROOT
HETATM    1  C   UNK N   1      30.424  31.062  -1.073  0.00  0.00     0.005 C 
HETATM    2  C   UNK N   1      31.074  29.800  -1.635  0.00  0.00     0.039 C 
HETATM    3  C   UNK N   1      30.150  28.937  -2.458  0.00  0.00    -0.051 A 
HETATM    4  C   UNK N   1      28.756  29.181  -2.532  0.00  0.00    -0.033 A 
HETATM    5  C   UNK N   1      28.169  30.351  -1.778  0.00  0.00     0.040 C 
HETATM    6  C   UNK N   1      29.019  30.769  -0.588  0.00  0.00     0.005 C 
HETATM    7  C   UNK N   1      30.710  27.871  -3.152  0.00  0.00     0.010 A 
HETATM    8  C   UNK N   1      29.915  27.040  -3.931  0.00  0.00     0.032 A 
HETATM    9  C   UNK N   1      28.538  27.246  -4.021  0.00  0.00     0.060 A 
HETATM   10  C   UNK N   1      27.928  28.325  -3.324  0.00  0.00     0.071 A 
ENDROOT
BRANCH   9  11
HETATM   11  N   UNK N   1      27.758  26.373  -4.822  0.00  0.00    -0.280 N 
HETATM   12  H   UNK N   1      27.353  26.727  -5.646  0.00  0.00     0.179 HD
BRANCH  11  13
HETATM   13  S   UNK N   1      27.486  24.688  -4.409  0.00  0.00     0.263 S 
HETATM   14  O   UNK N   1      26.617  24.158  -5.559  0.00  0.00    -0.200 OA
HETATM   15  O   UNK N   1      26.438  24.762  -3.289  0.00  0.00    -0.200 OA
BRANCH  13  16
HETATM   16  C   UNK N   1      28.777  23.518  -3.990  0.00  0.00     0.079 A 
HETATM   17  C   UNK N   1      29.286  22.674  -4.984  0.00  0.00     0.025 A 
HETATM   18  C   UNK N   1      30.352  21.815  -4.702  0.00  0.00     0.002 A 
HETATM   19  C   UNK N   1      30.919  21.806  -3.424  0.00  0.00     0.000 A 
HETATM   20  C   UNK N   1      30.416  22.651  -2.431  0.00  0.00     0.002 A 
HETATM   21  C   UNK N   1      29.351  23.512  -2.714  0.00  0.00     0.025 A 
ENDBRANCH  13  16
ENDBRANCH  11  13
ENDBRANCH   9  11
BRANCH  10  22
HETATM   22  C   UNK N   1      26.443  28.568  -3.451  0.00  0.00     0.179 C 
HETATM   23  O   UNK N   1      26.013  29.512  -4.091  0.00  0.00    -0.646 OA
BRANCH  22  24
HETATM   24  O   UNK N   1      25.555  27.733  -2.874  0.00  0.00    -0.773 OA
HETATM   25  H   UNK N   1      25.014  27.181  -3.403  0.00  0.00     0.167 HD
ENDBRANCH  22  24
ENDBRANCH  10  22
TORSDOF 5
ENDMDL
