REMARK  8 active torsions:
REMARK  status: ('A' for Active; 'I' for Inactive)
REMARK    1  A    between atoms: C_9  and  N_14 
REMARK    2  A    between atoms: C_10  and  C_11 
REMARK    3  A    between atoms: C_11  and  O_13 
REMARK    4  A    between atoms: N_14  and  S_15 
REMARK    5  A    between atoms: S_15  and  C_18 
REMARK    6  A    between atoms: C_19  and  C_25 
REMARK    7  A    between atoms: C_26  and  C_27 
REMARK    8  A    between atoms: C_27  and  N_28 
ROOT
HETATM    1  N   UNK N   1       0.165   0.159  -0.160  0.00  0.00    -0.279 N 
HETATM    2  H   UNK N   1       0.245   1.072   0.197  0.00  0.00     0.179 HD
ENDROOT
BRANCH   1   3
HETATM    3  C   UNK N   1      -1.100  -0.473  -0.113  0.00  0.00     0.060 A 
HETATM    4  C   UNK N   1      -1.176  -1.865  -0.210  0.00  0.00     0.032 A 
HETATM    5  C   UNK N   1      -2.403  -2.513  -0.198  0.00  0.00     0.010 A 
HETATM    6  C   UNK N   1      -3.585  -1.785  -0.103  0.00  0.00    -0.051 A 
HETATM    7  C   UNK N   1      -4.884  -2.551  -0.142  0.00  0.00     0.039 C 
HETATM    8  C   UNK N   1      -3.543  -0.371  -0.010  0.00  0.00    -0.033 A 
HETATM    9  C   UNK N   1      -6.132  -1.693   0.060  0.00  0.00     0.005 C 
HETATM   10  C   UNK N   1      -5.978  -0.348  -0.621  0.00  0.00     0.005 C 
HETATM   11  C   UNK N   1      -4.841   0.396   0.059  0.00  0.00     0.040 C 
HETATM   12  C   UNK N   1      -2.288   0.304  -0.002  0.00  0.00     0.071 A 
BRANCH  12  13
HETATM   13  C   UNK N   1      -2.201   1.809   0.088  0.00  0.00     0.179 C 
HETATM   14  O   UNK N   1      -1.121   2.373   0.072  0.00  0.00    -0.646 OA
BRANCH  13  15
HETATM   15  O   UNK N   1      -3.311   2.566   0.186  0.00  0.00    -0.773 OA
HETATM   16  H   UNK N   1      -3.242   3.498   0.254  0.00  0.00     0.167 HD
ENDBRANCH  13  15
ENDBRANCH  12  13
ENDBRANCH   1   3
BRANCH   1  17
HETATM   17  S   UNK N   1       1.598  -0.604  -0.821  0.00  0.00     0.264 S 
HETATM   18  O   UNK N   1       1.862  -0.418   0.678  0.00  0.00    -0.200 OA
HETATM   19  O   UNK N   1       2.118   0.767  -1.259  0.00  0.00    -0.200 OA
BRANCH  17  20
HETATM   20  C   UNK N   1       3.271  -1.188  -0.375  0.00  0.00     0.090 A 
HETATM   21  C   UNK N   1       4.459  -0.395  -0.107  0.00  0.00    -0.010 A 
HETATM   22  C   UNK N   1       5.675  -1.071   0.067  0.00  0.00     0.055 A 
HETATM   23  C   UNK N   1       5.763  -2.459   0.016  0.00  0.00     0.117 A 
HETATM   24  C   UNK N   1       4.626  -3.217  -0.222  0.00  0.00     0.044 A 
HETATM   25  F   UNK N   1       6.959  -3.069   0.188  0.00  0.00    -0.206 F 
HETATM   26  C   UNK N   1       3.403  -2.587  -0.423  0.00  0.00     0.029 A 
BRANCH  21  27
HETATM   27  C   UNK N   1       4.610   1.096  -0.060  0.00  0.00     0.011 C 
HETATM   28  C   UNK N   1       3.879   2.122   0.422  0.00  0.00     0.004 C 
BRANCH  28  29
HETATM   29  C   UNK N   1       2.616   2.048   1.222  0.00  0.00     0.299 C 
BRANCH  29  30
HETATM   30  N   UNK N   1       2.109   3.382   1.525  0.00  0.00     0.083 N 
HETATM   31  C   UNK N   1       0.988   3.211   2.432  0.00  0.00     0.309 C 
HETATM   32  C   UNK N   1       1.570   3.970   0.307  0.00  0.00     0.309 C 
ENDBRANCH  29  30
ENDBRANCH  28  29
ENDBRANCH  21  27
ENDBRANCH  17  20
ENDBRANCH   1  17
TORSDOF 8
