MODEL 1
REMARK VINA RESULT:      -7.5      0.000      0.000
REMARK  8 active torsions:
REMARK  status: ('A' for Active; 'I' for Inactive)
REMARK    1  A    between atoms: C_9  and  N_14 
REMARK    2  A    between atoms: C_10  and  C_11 
REMARK    3  A    between atoms: C_11  and  O_13 
REMARK    4  A    between atoms: N_14  and  S_15 
REMARK    5  A    between atoms: S_15  and  C_18 
REMARK    6  A    between atoms: C_19  and  C_25 
REMARK    7  A    between atoms: C_26  and  C_27 
REMARK    8  A    between atoms: C_27  and  N_28 
ROOT
HETATM    1  N   UNK N   1      30.594  16.675   7.670  0.00  0.00    -0.279 N 
HETATM    2  H   UNK N   1      30.169  16.129   8.370  0.00  0.00     0.179 HD
ENDROOT
BRANCH   1   3
HETATM    3  C   UNK N   1      29.765  17.456   6.830  0.00  0.00     0.060 A 
HETATM    4  C   UNK N   1      29.909  17.361   5.444  0.00  0.00     0.032 A 
HETATM    5  C   UNK N   1      29.133  18.136   4.593  0.00  0.00     0.010 A 
HETATM    6  C   UNK N   1      28.204  19.034   5.108  0.00  0.00    -0.051 A 
HETATM    7  C   UNK N   1      27.427  19.877   4.127  0.00  0.00     0.039 C 
HETATM    8  C   UNK N   1      28.037  19.159   6.510  0.00  0.00    -0.033 A 
HETATM    9  C   UNK N   1      26.363  20.771   4.762  0.00  0.00     0.005 C 
HETATM   10  C   UNK N   1      26.847  21.328   6.086  0.00  0.00     0.005 C 
HETATM   11  C   UNK N   1      27.045  20.165   7.042  0.00  0.00     0.040 C 
HETATM   12  C   UNK N   1      28.815  18.355   7.393  0.00  0.00     0.071 A 
BRANCH  12  13
HETATM   13  C   UNK N   1      28.673  18.463   8.893  0.00  0.00     0.179 C 
HETATM   14  O   UNK N   1      29.583  18.900   9.575  0.00  0.00    -0.646 OA
BRANCH  13  15
HETATM   15  O   UNK N   1      27.540  18.084   9.514  0.00  0.00    -0.773 OA
HETATM   16  H   UNK N   1      26.935  18.728   9.828  0.00  0.00     0.167 HD
ENDBRANCH  13  15
ENDBRANCH  12  13
ENDBRANCH   1   3
BRANCH   1  17
HETATM   17  S   UNK N   1      32.340  16.629   7.526  0.00  0.00     0.264 S 
HETATM   18  O   UNK N   1      31.987  15.777   8.751  0.00  0.00    -0.200 OA
HETATM   19  O   UNK N   1      32.430  17.966   8.265  0.00  0.00    -0.200 OA
BRANCH  17  20
HETATM   20  C   UNK N   1      33.849  15.988   8.332  0.00  0.00     0.090 A 
HETATM   21  C   UNK N   1      34.570  14.759   8.044  0.00  0.00    -0.010 A 
HETATM   22  C   UNK N   1      35.620  14.397   8.900  0.00  0.00     0.055 A 
HETATM   23  C   UNK N   1      35.997  15.187   9.982  0.00  0.00     0.117 A 
HETATM   24  C   UNK N   1      35.321  16.369  10.247  0.00  0.00     0.044 A 
HETATM   25  F   UNK N   1      37.017  14.797  10.783  0.00  0.00    -0.206 F 
HETATM   26  C   UNK N   1      34.258  16.754   9.437  0.00  0.00     0.029 A 
BRANCH  21  27
HETATM   27  C   UNK N   1      34.309  13.737   6.978  0.00  0.00     0.011 C 
HETATM   28  C   UNK N   1      34.129  13.766   5.642  0.00  0.00     0.004 C 
BRANCH  28  29
HETATM   29  C   UNK N   1      34.248  14.946   4.729  0.00  0.00     0.299 C 
BRANCH  29  30
HETATM   30  N   UNK N   1      32.974  15.239   4.082  0.00  0.00     0.083 N 
HETATM   31  C   UNK N   1      32.833  14.298   2.984  0.00  0.00     0.309 C 
HETATM   32  C   UNK N   1      33.040  16.565   3.485  0.00  0.00     0.309 C 
ENDBRANCH  29  30
ENDBRANCH  28  29
ENDBRANCH  21  27
ENDBRANCH  17  20
ENDBRANCH   1  17
TORSDOF 8
ENDMDL
MODEL 2
REMARK VINA RESULT:      -7.3      6.726      9.363
REMARK  8 active torsions:
REMARK  status: ('A' for Active; 'I' for Inactive)
REMARK    1  A    between atoms: C_9  and  N_14 
REMARK    2  A    between atoms: C_10  and  C_11 
REMARK    3  A    between atoms: C_11  and  O_13 
REMARK    4  A    between atoms: N_14  and  S_15 
REMARK    5  A    between atoms: S_15  and  C_18 
REMARK    6  A    between atoms: C_19  and  C_25 
REMARK    7  A    between atoms: C_26  and  C_27 
REMARK    8  A    between atoms: C_27  and  N_28 
ROOT
HETATM    1  N   UNK N   1      25.780  14.652   6.821  0.00  0.00    -0.279 N 
HETATM    2  H   UNK N   1      26.675  14.296   7.019  0.00  0.00     0.179 HD
ENDROOT
BRANCH   1   3
HETATM    3  C   UNK N   1      25.680  15.800   5.999  0.00  0.00     0.060 A 
HETATM    4  C   UNK N   1      24.690  15.855   5.015  0.00  0.00     0.032 A 
HETATM    5  C   UNK N   1      24.585  16.954   4.173  0.00  0.00     0.010 A 
HETATM    6  C   UNK N   1      25.476  18.017   4.285  0.00  0.00    -0.051 A 
HETATM    7  C   UNK N   1      25.332  19.156   3.307  0.00  0.00     0.039 C 
HETATM    8  C   UNK N   1      26.496  17.988   5.269  0.00  0.00    -0.033 A 
HETATM    9  C   UNK N   1      26.284  20.326   3.552  0.00  0.00     0.005 C 
HETATM   10  C   UNK N   1      27.643  19.829   4.004  0.00  0.00     0.005 C 
HETATM   11  C   UNK N   1      27.469  19.140   5.347  0.00  0.00     0.040 C 
HETATM   12  C   UNK N   1      26.602  16.875   6.151  0.00  0.00     0.071 A 
BRANCH  12  13
HETATM   13  C   UNK N   1      27.679  16.803   7.207  0.00  0.00     0.179 C 
HETATM   14  O   UNK N   1      28.843  16.616   6.899  0.00  0.00    -0.646 OA
BRANCH  13  15
HETATM   15  O   UNK N   1      27.383  16.945   8.514  0.00  0.00    -0.773 OA
HETATM   16  H   UNK N   1      27.808  16.409   9.155  0.00  0.00     0.167 HD
ENDBRANCH  13  15
ENDBRANCH  12  13
ENDBRANCH   1   3
BRANCH   1  17
HETATM   17  S   UNK N   1      24.388  13.833   7.504  0.00  0.00     0.264 S 
HETATM   18  O   UNK N   1      25.411  13.963   8.638  0.00  0.00    -0.200 OA
HETATM   19  O   UNK N   1      24.909  12.504   6.954  0.00  0.00    -0.200 OA
BRANCH  17  20
HETATM   20  C   UNK N   1      23.768  13.052   9.035  0.00  0.00     0.090 A 
HETATM   21  C   UNK N   1      22.390  12.897   9.471  0.00  0.00    -0.010 A 
HETATM   22  C   UNK N   1      22.162  12.398  10.761  0.00  0.00     0.055 A 
HETATM   23  C   UNK N   1      23.204  12.032  11.607  0.00  0.00     0.117 A 
HETATM   24  C   UNK N   1      24.519  12.163  11.184  0.00  0.00     0.044 A 
HETATM   25  F   UNK N   1      22.936  11.556  12.846  0.00  0.00    -0.206 F 
HETATM   26  C   UNK N   1      24.792  12.675   9.921  0.00  0.00     0.029 A 
BRANCH  21  27
HETATM   27  C   UNK N   1      21.125  13.270   8.759  0.00  0.00     0.011 C 
HETATM   28  C   UNK N   1      20.466  14.420   8.509  0.00  0.00     0.004 C 
BRANCH  28  29
HETATM   29  C   UNK N   1      20.909  15.815   8.823  0.00  0.00     0.299 C 
BRANCH  29  30
HETATM   30  N   UNK N   1      20.102  16.795   8.104  0.00  0.00     0.083 N 
HETATM   31  C   UNK N   1      18.858  16.936   8.839  0.00  0.00     0.309 C 
HETATM   32  C   UNK N   1      19.753  16.254   6.799  0.00  0.00     0.309 C 
ENDBRANCH  29  30
ENDBRANCH  28  29
ENDBRANCH  21  27
ENDBRANCH  17  20
ENDBRANCH   1  17
TORSDOF 8
ENDMDL
MODEL 3
REMARK VINA RESULT:      -7.2      3.805      5.400
REMARK  8 active torsions:
REMARK  status: ('A' for Active; 'I' for Inactive)
REMARK    1  A    between atoms: C_9  and  N_14 
REMARK    2  A    between atoms: C_10  and  C_11 
REMARK    3  A    between atoms: C_11  and  O_13 
REMARK    4  A    between atoms: N_14  and  S_15 
REMARK    5  A    between atoms: S_15  and  C_18 
REMARK    6  A    between atoms: C_19  and  C_25 
REMARK    7  A    between atoms: C_26  and  C_27 
REMARK    8  A    between atoms: C_27  and  N_28 
ROOT
HETATM    1  N   UNK N   1      34.435  16.495   9.944  0.00  0.00    -0.279 N 
HETATM    2  H   UNK N   1      34.103  17.067  10.671  0.00  0.00     0.179 HD
ENDROOT
BRANCH   1   3
HETATM    3  C   UNK N   1      33.880  16.660   8.652  0.00  0.00     0.060 A 
HETATM    4  C   UNK N   1      34.375  17.664   7.816  0.00  0.00     0.032 A 
HETATM    5  C   UNK N   1      33.832  17.872   6.556  0.00  0.00     0.010 A 
HETATM    6  C   UNK N   1      32.773  17.090   6.106  0.00  0.00    -0.051 A 
HETATM    7  C   UNK N   1      32.202  17.401   4.744  0.00  0.00     0.039 C 
HETATM    8  C   UNK N   1      32.244  16.067   6.932  0.00  0.00    -0.033 A 
HETATM    9  C   UNK N   1      31.106  16.442   4.283  0.00  0.00     0.005 C 
HETATM   10  C   UNK N   1      30.222  16.034   5.444  0.00  0.00     0.005 C 
HETATM   11  C   UNK N   1      31.074  15.255   6.432  0.00  0.00     0.040 C 
HETATM   12  C   UNK N   1      32.806  15.832   8.221  0.00  0.00     0.071 A 
BRANCH  12  13
HETATM   13  C   UNK N   1      32.266  14.757   9.134  0.00  0.00     0.179 C 
HETATM   14  O   UNK N   1      32.296  13.585   8.803  0.00  0.00    -0.646 OA
BRANCH  13  15
HETATM   15  O   UNK N   1      31.740  15.064  10.335  0.00  0.00    -0.773 OA
HETATM   16  H   UNK N   1      32.264  15.489  10.985  0.00  0.00     0.167 HD
ENDBRANCH  13  15
ENDBRANCH  12  13
ENDBRANCH   1   3
BRANCH   1  17
HETATM   17  S   UNK N   1      35.683  15.320  10.312  0.00  0.00     0.264 S 
HETATM   18  O   UNK N   1      34.740  15.341  11.521  0.00  0.00    -0.200 OA
HETATM   19  O   UNK N   1      36.598  16.451  10.788  0.00  0.00    -0.200 OA
BRANCH  17  20
HETATM   20  C   UNK N   1      36.270  14.185  11.618  0.00  0.00     0.090 A 
HETATM   21  C   UNK N   1      36.746  12.819  11.475  0.00  0.00    -0.010 A 
HETATM   22  C   UNK N   1      37.002  12.087  12.643  0.00  0.00     0.055 A 
HETATM   23  C   UNK N   1      36.840  12.637  13.911  0.00  0.00     0.117 A 
HETATM   24  C   UNK N   1      36.403  13.946  14.047  0.00  0.00     0.044 A 
HETATM   25  F   UNK N   1      37.097  11.892  15.011  0.00  0.00    -0.206 F 
HETATM   26  C   UNK N   1      36.115  14.702  12.916  0.00  0.00     0.029 A 
BRANCH  21  27
HETATM   27  C   UNK N   1      36.941  12.011  10.227  0.00  0.00     0.011 C 
HETATM   28  C   UNK N   1      37.694  12.128   9.114  0.00  0.00     0.004 C 
BRANCH  28  29
HETATM   29  C   UNK N   1      38.736  13.162   8.819  0.00  0.00     0.299 C 
BRANCH  29  30
HETATM   30  N   UNK N   1      38.680  13.579   7.423  0.00  0.00     0.083 N 
HETATM   31  C   UNK N   1      38.627  12.369   6.623  0.00  0.00     0.309 C 
HETATM   32  C   UNK N   1      39.926  14.248   7.079  0.00  0.00     0.309 C 
ENDBRANCH  29  30
ENDBRANCH  28  29
ENDBRANCH  21  27
ENDBRANCH  17  20
ENDBRANCH   1  17
TORSDOF 8
ENDMDL
MODEL 4
REMARK VINA RESULT:      -7.2      3.537      8.551
REMARK  8 active torsions:
REMARK  status: ('A' for Active; 'I' for Inactive)
REMARK    1  A    between atoms: C_9  and  N_14 
REMARK    2  A    between atoms: C_10  and  C_11 
REMARK    3  A    between atoms: C_11  and  O_13 
REMARK    4  A    between atoms: N_14  and  S_15 
REMARK    5  A    between atoms: S_15  and  C_18 
REMARK    6  A    between atoms: C_19  and  C_25 
REMARK    7  A    between atoms: C_26  and  C_27 
REMARK    8  A    between atoms: C_27  and  N_28 
ROOT
HETATM    1  N   UNK N   1      34.195  13.249   8.535  0.00  0.00    -0.279 N 
HETATM    2  H   UNK N   1      33.319  12.823   8.397  0.00  0.00     0.179 HD
ENDROOT
BRANCH   1   3
HETATM    3  C   UNK N   1      34.953  12.875   9.670  0.00  0.00     0.060 A 
HETATM    4  C   UNK N   1      35.660  11.670   9.657  0.00  0.00     0.032 A 
HETATM    5  C   UNK N   1      36.389  11.261  10.765  0.00  0.00     0.010 A 
HETATM    6  C   UNK N   1      36.417  12.039  11.918  0.00  0.00    -0.051 A 
HETATM    7  C   UNK N   1      37.191  11.510  13.100  0.00  0.00     0.039 C 
HETATM    8  C   UNK N   1      35.704  13.263  11.967  0.00  0.00    -0.033 A 
HETATM    9  C   UNK N   1      37.251  12.461  14.294  0.00  0.00     0.005 C 
HETATM   10  C   UNK N   1      35.937  13.197  14.465  0.00  0.00     0.005 C 
HETATM   11  C   UNK N   1      35.725  14.071  13.241  0.00  0.00     0.040 C 
HETATM   12  C   UNK N   1      34.968  13.703  10.828  0.00  0.00     0.071 A 
BRANCH  12  13
HETATM   13  C   UNK N   1      34.191  14.998  10.842  0.00  0.00     0.179 C 
HETATM   14  O   UNK N   1      34.753  16.065  10.669  0.00  0.00    -0.646 OA
BRANCH  13  15
HETATM   15  O   UNK N   1      32.859  15.008  11.045  0.00  0.00    -0.773 OA
HETATM   16  H   UNK N   1      32.476  14.453  11.696  0.00  0.00     0.167 HD
ENDBRANCH  13  15
ENDBRANCH  12  13
ENDBRANCH   1   3
BRANCH   1  17
HETATM   17  S   UNK N   1      34.737  14.434   7.363  0.00  0.00     0.264 S 
HETATM   18  O   UNK N   1      33.218  14.317   7.186  0.00  0.00    -0.200 OA
HETATM   19  O   UNK N   1      35.110  13.303   6.402  0.00  0.00    -0.200 OA
BRANCH  17  20
HETATM   20  C   UNK N   1      34.153  15.507   6.004  0.00  0.00     0.090 A 
HETATM   21  C   UNK N   1      33.716  16.892   6.076  0.00  0.00    -0.010 A 
HETATM   22  C   UNK N   1      33.164  17.467   4.923  0.00  0.00     0.055 A 
HETATM   23  C   UNK N   1      33.052  16.764   3.727  0.00  0.00     0.117 A 
HETATM   24  C   UNK N   1      33.485  15.448   3.653  0.00  0.00     0.044 A 
HETATM   25  F   UNK N   1      32.510  17.359   2.639  0.00  0.00    -0.206 F 
HETATM   26  C   UNK N   1      34.018  14.831   4.779  0.00  0.00     0.029 A 
BRANCH  21  27
HETATM   27  C   UNK N   1      33.691  17.816   7.256  0.00  0.00     0.011 C 
HETATM   28  C   UNK N   1      32.833  18.061   8.268  0.00  0.00     0.004 C 
BRANCH  28  29
HETATM   29  C   UNK N   1      31.566  17.332   8.589  0.00  0.00     0.299 C 
BRANCH  29  30
HETATM   30  N   UNK N   1      30.399  18.167   8.326  0.00  0.00     0.083 N 
HETATM   31  C   UNK N   1      29.749  18.397   9.604  0.00  0.00     0.309 C 
HETATM   32  C   UNK N   1      29.455  17.417   7.510  0.00  0.00     0.309 C 
ENDBRANCH  29  30
ENDBRANCH  28  29
ENDBRANCH  21  27
ENDBRANCH  17  20
ENDBRANCH   1  17
TORSDOF 8
ENDMDL
MODEL 5
REMARK VINA RESULT:      -7.0      7.433     10.904
REMARK  8 active torsions:
REMARK  status: ('A' for Active; 'I' for Inactive)
REMARK    1  A    between atoms: C_9  and  N_14 
REMARK    2  A    between atoms: C_10  and  C_11 
REMARK    3  A    between atoms: C_11  and  O_13 
REMARK    4  A    between atoms: N_14  and  S_15 
REMARK    5  A    between atoms: S_15  and  C_18 
REMARK    6  A    between atoms: C_19  and  C_25 
REMARK    7  A    between atoms: C_26  and  C_27 
REMARK    8  A    between atoms: C_27  and  N_28 
ROOT
HETATM    1  N   UNK N   1      22.958  14.723   5.778  0.00  0.00    -0.279 N 
HETATM    2  H   UNK N   1      22.501  14.171   5.104  0.00  0.00     0.179 HD
ENDROOT
BRANCH   1   3
HETATM    3  C   UNK N   1      23.238  14.148   7.040  0.00  0.00     0.060 A 
HETATM    4  C   UNK N   1      24.530  13.694   7.317  0.00  0.00     0.032 A 
HETATM    5  C   UNK N   1      24.830  13.098   8.534  0.00  0.00     0.010 A 
HETATM    6  C   UNK N   1      23.842  12.928   9.499  0.00  0.00    -0.051 A 
HETATM    7  C   UNK N   1      24.227  12.231  10.780  0.00  0.00     0.039 C 
HETATM    8  C   UNK N   1      22.519  13.372   9.247  0.00  0.00    -0.033 A 
HETATM    9  C   UNK N   1      23.114  12.165  11.825  0.00  0.00     0.005 C 
HETATM   10  C   UNK N   1      21.769  11.938  11.166  0.00  0.00     0.005 C 
HETATM   11  C   UNK N   1      21.460  13.146  10.298  0.00  0.00     0.040 C 
HETATM   12  C   UNK N   1      22.204  14.003   8.009  0.00  0.00     0.071 A 
BRANCH  12  13
HETATM   13  C   UNK N   1      20.806  14.482   7.699  0.00  0.00     0.179 C 
HETATM   14  O   UNK N   1      20.065  13.825   6.989  0.00  0.00    -0.646 OA
BRANCH  13  15
HETATM   15  O   UNK N   1      20.341  15.643   8.199  0.00  0.00    -0.773 OA
HETATM   16  H   UNK N   1      20.912  16.381   8.289  0.00  0.00     0.167 HD
ENDBRANCH  13  15
ENDBRANCH  12  13
ENDBRANCH   1   3
BRANCH   1  17
HETATM   17  S   UNK N   1      23.385  16.370   5.354  0.00  0.00     0.264 S 
HETATM   18  O   UNK N   1      22.019  16.100   4.711  0.00  0.00    -0.200 OA
HETATM   19  O   UNK N   1      24.230  15.845   4.191  0.00  0.00    -0.200 OA
BRANCH  17  20
HETATM   20  C   UNK N   1      22.816  17.818   4.396  0.00  0.00     0.090 A 
HETATM   21  C   UNK N   1      23.619  18.792   3.676  0.00  0.00    -0.010 A 
HETATM   22  C   UNK N   1      22.969  19.911   3.138  0.00  0.00     0.055 A 
HETATM   23  C   UNK N   1      21.594  20.093   3.253  0.00  0.00     0.117 A 
HETATM   24  C   UNK N   1      20.824  19.154   3.924  0.00  0.00     0.044 A 
HETATM   25  F   UNK N   1      21.008  21.190   2.718  0.00  0.00    -0.206 F 
HETATM   26  C   UNK N   1      21.431  18.040   4.493  0.00  0.00     0.029 A 
BRANCH  21  27
HETATM   27  C   UNK N   1      25.105  18.829   3.475  0.00  0.00     0.011 C 
HETATM   28  C   UNK N   1      26.130  19.525   4.008  0.00  0.00     0.004 C 
BRANCH  28  29
HETATM   29  C   UNK N   1      26.083  20.496   5.146  0.00  0.00     0.299 C 
BRANCH  29  30
HETATM   30  N   UNK N   1      27.411  20.706   5.712  0.00  0.00     0.083 N 
HETATM   31  C   UNK N   1      28.344  19.964   4.882  0.00  0.00     0.309 C 
HETATM   32  C   UNK N   1      27.462  20.100   7.035  0.00  0.00     0.309 C 
ENDBRANCH  29  30
ENDBRANCH  28  29
ENDBRANCH  21  27
ENDBRANCH  17  20
ENDBRANCH   1  17
TORSDOF 8
ENDMDL
MODEL 6
REMARK VINA RESULT:      -7.0     13.042     16.609
REMARK  8 active torsions:
REMARK  status: ('A' for Active; 'I' for Inactive)
REMARK    1  A    between atoms: C_9  and  N_14 
REMARK    2  A    between atoms: C_10  and  C_11 
REMARK    3  A    between atoms: C_11  and  O_13 
REMARK    4  A    between atoms: N_14  and  S_15 
REMARK    5  A    between atoms: S_15  and  C_18 
REMARK    6  A    between atoms: C_19  and  C_25 
REMARK    7  A    between atoms: C_26  and  C_27 
REMARK    8  A    between atoms: C_27  and  N_28 
ROOT
HETATM    1  N   UNK N   1      28.369  23.292  -4.521  0.00  0.00    -0.279 N 
HETATM    2  H   UNK N   1      27.782  22.985  -3.794  0.00  0.00     0.179 HD
ENDROOT
BRANCH   1   3
HETATM    3  C   UNK N   1      29.511  22.519  -4.837  0.00  0.00     0.060 A 
HETATM    4  C   UNK N   1      29.498  21.709  -5.975  0.00  0.00     0.032 A 
HETATM    5  C   UNK N   1      30.591  20.915  -6.296  0.00  0.00     0.010 A 
HETATM    6  C   UNK N   1      31.717  20.901  -5.479  0.00  0.00    -0.051 A 
HETATM    7  C   UNK N   1      32.848  19.980  -5.862  0.00  0.00     0.039 C 
HETATM    8  C   UNK N   1      31.759  21.706  -4.312  0.00  0.00    -0.033 A 
HETATM    9  C   UNK N   1      34.084  20.088  -4.970  0.00  0.00     0.005 C 
HETATM   10  C   UNK N   1      33.688  20.306  -3.524  0.00  0.00     0.005 C 
HETATM   11  C   UNK N   1      32.979  21.646  -3.427  0.00  0.00     0.040 C 
HETATM   12  C   UNK N   1      30.651  22.539  -3.984  0.00  0.00     0.071 A 
BRANCH  12  13
HETATM   13  C   UNK N   1      30.654  23.406  -2.747  0.00  0.00     0.179 C 
HETATM   14  O   UNK N   1      30.651  22.906  -1.635  0.00  0.00    -0.646 OA
BRANCH  13  15
HETATM   15  O   UNK N   1      30.662  24.750  -2.838  0.00  0.00    -0.773 OA
HETATM   16  H   UNK N   1      30.004  25.193  -3.337  0.00  0.00     0.167 HD
ENDBRANCH  13  15
ENDBRANCH  12  13
ENDBRANCH   1   3
BRANCH   1  17
HETATM   17  S   UNK N   1      27.948  24.773  -5.359  0.00  0.00     0.264 S 
HETATM   18  O   UNK N   1      27.725  25.045  -3.867  0.00  0.00    -0.200 OA
HETATM   19  O   UNK N   1      26.554  24.209  -5.642  0.00  0.00    -0.200 OA
BRANCH  17  20
HETATM   20  C   UNK N   1      27.301  26.461  -5.093  0.00  0.00     0.090 A 
HETATM   21  C   UNK N   1      27.336  27.593  -6.004  0.00  0.00    -0.010 A 
HETATM   22  C   UNK N   1      26.912  28.839  -5.522  0.00  0.00     0.055 A 
HETATM   23  C   UNK N   1      26.442  29.007  -4.222  0.00  0.00     0.117 A 
HETATM   24  C   UNK N   1      26.391  27.924  -3.358  0.00  0.00     0.044 A 
HETATM   25  F   UNK N   1      26.044  30.230  -3.799  0.00  0.00    -0.206 F 
HETATM   26  C   UNK N   1      26.824  26.674  -3.787  0.00  0.00     0.029 A 
BRANCH  21  27
HETATM   27  C   UNK N   1      27.846  27.657  -7.413  0.00  0.00     0.011 C 
HETATM   28  C   UNK N   1      27.526  27.061  -8.580  0.00  0.00     0.004 C 
BRANCH  28  29
HETATM   29  C   UNK N   1      26.379  26.138  -8.850  0.00  0.00     0.299 C 
BRANCH  29  30
HETATM   30  N   UNK N   1      26.330  25.762 -10.259  0.00  0.00     0.083 N 
HETATM   31  C   UNK N   1      27.117  26.743 -10.984  0.00  0.00     0.309 C 
HETATM   32  C   UNK N   1      24.960  25.896 -10.735  0.00  0.00     0.309 C 
ENDBRANCH  29  30
ENDBRANCH  28  29
ENDBRANCH  21  27
ENDBRANCH  17  20
ENDBRANCH   1  17
TORSDOF 8
ENDMDL
MODEL 7
REMARK VINA RESULT:      -7.0      6.487      9.280
REMARK  8 active torsions:
REMARK  status: ('A' for Active; 'I' for Inactive)
REMARK    1  A    between atoms: C_9  and  N_14 
REMARK    2  A    between atoms: C_10  and  C_11 
REMARK    3  A    between atoms: C_11  and  O_13 
REMARK    4  A    between atoms: N_14  and  S_15 
REMARK    5  A    between atoms: S_15  and  C_18 
REMARK    6  A    between atoms: C_19  and  C_25 
REMARK    7  A    between atoms: C_26  and  C_27 
REMARK    8  A    between atoms: C_27  and  N_28 
ROOT
HETATM    1  N   UNK N   1      23.257  15.172   6.014  0.00  0.00    -0.279 N 
HETATM    2  H   UNK N   1      22.332  15.362   5.739  0.00  0.00     0.179 HD
ENDROOT
BRANCH   1   3
HETATM    3  C   UNK N   1      23.469  14.475   7.227  0.00  0.00     0.060 A 
HETATM    4  C   UNK N   1      24.740  13.974   7.519  0.00  0.00     0.032 A 
HETATM    5  C   UNK N   1      24.973  13.260   8.686  0.00  0.00     0.010 A 
HETATM    6  C   UNK N   1      23.938  13.017   9.583  0.00  0.00    -0.051 A 
HETATM    7  C   UNK N   1      24.253  12.195  10.808  0.00  0.00     0.039 C 
HETATM    8  C   UNK N   1      22.635  13.505   9.313  0.00  0.00    -0.033 A 
HETATM    9  C   UNK N   1      23.091  12.049  11.789  0.00  0.00     0.005 C 
HETATM   10  C   UNK N   1      21.775  11.908  11.050  0.00  0.00     0.005 C 
HETATM   11  C   UNK N   1      21.524  13.198  10.288  0.00  0.00     0.040 C 
HETATM   12  C   UNK N   1      22.388  14.256   8.128  0.00  0.00     0.071 A 
BRANCH  12  13
HETATM   13  C   UNK N   1      21.012  14.786   7.801  0.00  0.00     0.179 C 
HETATM   14  O   UNK N   1      20.130  14.038   7.418  0.00  0.00    -0.646 OA
BRANCH  13  15
HETATM   15  O   UNK N   1      20.723  16.096   7.925  0.00  0.00    -0.773 OA
HETATM   16  H   UNK N   1      20.915  16.548   8.724  0.00  0.00     0.167 HD
ENDBRANCH  13  15
ENDBRANCH  12  13
ENDBRANCH   1   3
BRANCH   1  17
HETATM   17  S   UNK N   1      24.561  15.715   4.976  0.00  0.00     0.264 S 
HETATM   18  O   UNK N   1      24.008  16.968   5.665  0.00  0.00    -0.200 OA
HETATM   19  O   UNK N   1      23.599  15.732   3.787  0.00  0.00    -0.200 OA
BRANCH  17  20
HETATM   20  C   UNK N   1      25.432  17.214   4.400  0.00  0.00     0.090 A 
HETATM   21  C   UNK N   1      26.822  17.583   4.607  0.00  0.00    -0.010 A 
HETATM   22  C   UNK N   1      27.231  18.861   4.201  0.00  0.00     0.055 A 
HETATM   23  C   UNK N   1      26.358  19.757   3.591  0.00  0.00     0.117 A 
HETATM   24  C   UNK N   1      25.035  19.399   3.376  0.00  0.00     0.044 A 
HETATM   25  F   UNK N   1      26.796  20.982   3.216  0.00  0.00    -0.206 F 
HETATM   26  C   UNK N   1      24.581  18.149   3.784  0.00  0.00     0.029 A 
BRANCH  21  27
HETATM   27  C   UNK N   1      27.915  16.810   5.283  0.00  0.00     0.011 C 
HETATM   28  C   UNK N   1      28.546  16.877   6.474  0.00  0.00     0.004 C 
BRANCH  28  29
HETATM   29  C   UNK N   1      28.232  17.782   7.625  0.00  0.00     0.299 C 
BRANCH  29  30
HETATM   30  N   UNK N   1      29.452  18.329   8.207  0.00  0.00     0.083 N 
HETATM   31  C   UNK N   1      30.513  17.375   7.939  0.00  0.00     0.309 C 
HETATM   32  C   UNK N   1      29.301  18.384   9.654  0.00  0.00     0.309 C 
ENDBRANCH  29  30
ENDBRANCH  28  29
ENDBRANCH  21  27
ENDBRANCH  17  20
ENDBRANCH   1  17
TORSDOF 8
ENDMDL
MODEL 8
REMARK VINA RESULT:      -6.9      1.896      2.911
REMARK  8 active torsions:
REMARK  status: ('A' for Active; 'I' for Inactive)
REMARK    1  A    between atoms: C_9  and  N_14 
REMARK    2  A    between atoms: C_10  and  C_11 
REMARK    3  A    between atoms: C_11  and  O_13 
REMARK    4  A    between atoms: N_14  and  S_15 
REMARK    5  A    between atoms: S_15  and  C_18 
REMARK    6  A    between atoms: C_19  and  C_25 
REMARK    7  A    between atoms: C_26  and  C_27 
REMARK    8  A    between atoms: C_27  and  N_28 
ROOT
HETATM    1  N   UNK N   1      30.619  16.434   7.557  0.00  0.00    -0.279 N 
HETATM    2  H   UNK N   1      30.183  15.791   8.160  0.00  0.00     0.179 HD
ENDROOT
BRANCH   1   3
HETATM    3  C   UNK N   1      29.801  17.271   6.762  0.00  0.00     0.060 A 
HETATM    4  C   UNK N   1      29.896  17.201   5.369  0.00  0.00     0.032 A 
HETATM    5  C   UNK N   1      29.130  18.030   4.562  0.00  0.00     0.010 A 
HETATM    6  C   UNK N   1      28.261  18.958   5.126  0.00  0.00    -0.051 A 
HETATM    7  C   UNK N   1      27.494  19.858   4.189  0.00  0.00     0.039 C 
HETATM    8  C   UNK N   1      28.146  19.059   6.535  0.00  0.00    -0.033 A 
HETATM    9  C   UNK N   1      26.494  20.785   4.878  0.00  0.00     0.005 C 
HETATM   10  C   UNK N   1      27.046  21.290   6.196  0.00  0.00     0.005 C 
HETATM   11  C   UNK N   1      27.220  20.097   7.121  0.00  0.00     0.040 C 
HETATM   12  C   UNK N   1      28.913  18.200   7.374  0.00  0.00     0.071 A 
BRANCH  12  13
HETATM   13  C   UNK N   1      28.825  18.281   8.880  0.00  0.00     0.179 C 
HETATM   14  O   UNK N   1      27.813  17.937   9.464  0.00  0.00    -0.646 OA
BRANCH  13  15
HETATM   15  O   UNK N   1      29.860  18.733   9.615  0.00  0.00    -0.773 OA
HETATM   16  H   UNK N   1      30.179  19.606   9.493  0.00  0.00     0.167 HD
ENDBRANCH  13  15
ENDBRANCH  12  13
ENDBRANCH   1   3
BRANCH   1  17
HETATM   17  S   UNK N   1      32.371  16.484   7.520  0.00  0.00     0.264 S 
HETATM   18  O   UNK N   1      31.988  15.763   8.819  0.00  0.00    -0.200 OA
HETATM   19  O   UNK N   1      32.336  17.902   8.094  0.00  0.00    -0.200 OA
BRANCH  17  20
HETATM   20  C   UNK N   1      33.858  16.041   8.485  0.00  0.00     0.090 A 
HETATM   21  C   UNK N   1      34.608  14.797   8.461  0.00  0.00    -0.010 A 
HETATM   22  C   UNK N   1      35.631  14.628   9.406  0.00  0.00     0.055 A 
HETATM   23  C   UNK N   1      35.955  15.617  10.330  0.00  0.00     0.117 A 
HETATM   24  C   UNK N   1      35.250  16.812  10.341  0.00  0.00     0.044 A 
HETATM   25  F   UNK N   1      36.949  15.410  11.224  0.00  0.00    -0.206 F 
HETATM   26  C   UNK N   1      34.213  17.013   9.437  0.00  0.00     0.029 A 
BRANCH  21  27
HETATM   27  C   UNK N   1      34.404  13.586   7.602  0.00  0.00     0.011 C 
HETATM   28  C   UNK N   1      33.969  12.325   7.804  0.00  0.00     0.004 C 
BRANCH  28  29
HETATM   29  C   UNK N   1      33.413  11.741   9.064  0.00  0.00     0.299 C 
BRANCH  29  30
HETATM   30  N   UNK N   1      34.446  11.037   9.817  0.00  0.00     0.083 N 
HETATM   31  C   UNK N   1      35.077  10.108   8.897  0.00  0.00     0.309 C 
HETATM   32  C   UNK N   1      33.811  10.231  10.849  0.00  0.00     0.309 C 
ENDBRANCH  29  30
ENDBRANCH  28  29
ENDBRANCH  21  27
ENDBRANCH  17  20
ENDBRANCH   1  17
TORSDOF 8
ENDMDL
MODEL 9
REMARK VINA RESULT:      -6.9      3.659      8.691
REMARK  8 active torsions:
REMARK  status: ('A' for Active; 'I' for Inactive)
REMARK    1  A    between atoms: C_9  and  N_14 
REMARK    2  A    between atoms: C_10  and  C_11 
REMARK    3  A    between atoms: C_11  and  O_13 
REMARK    4  A    between atoms: N_14  and  S_15 
REMARK    5  A    between atoms: S_15  and  C_18 
REMARK    6  A    between atoms: C_19  and  C_25 
REMARK    7  A    between atoms: C_26  and  C_27 
REMARK    8  A    between atoms: C_27  and  N_28 
ROOT
HETATM    1  N   UNK N   1      34.862  13.672   8.542  0.00  0.00    -0.279 N 
HETATM    2  H   UNK N   1      34.446  12.819   8.283  0.00  0.00     0.179 HD
ENDROOT
BRANCH   1   3
HETATM    3  C   UNK N   1      35.205  13.867   9.901  0.00  0.00     0.060 A 
HETATM    4  C   UNK N   1      35.637  15.126  10.326  0.00  0.00     0.032 A 
HETATM    5  C   UNK N   1      36.009  15.343  11.645  0.00  0.00     0.010 A 
HETATM    6  C   UNK N   1      35.973  14.302  12.568  0.00  0.00    -0.051 A 
HETATM    7  C   UNK N   1      36.436  14.598  13.973  0.00  0.00     0.039 C 
HETATM    8  C   UNK N   1      35.546  13.011  12.168  0.00  0.00    -0.033 A 
HETATM    9  C   UNK N   1      36.280  13.433  14.950  0.00  0.00     0.005 C 
HETATM   10  C   UNK N   1      36.586  12.114  14.270  0.00  0.00     0.005 C 
HETATM   11  C   UNK N   1      35.548  11.894  13.182  0.00  0.00     0.040 C 
HETATM   12  C   UNK N   1      35.143  12.782  10.821  0.00  0.00     0.071 A 
BRANCH  12  13
HETATM   13  C   UNK N   1      34.689  11.419  10.353  0.00  0.00     0.179 C 
HETATM   14  O   UNK N   1      35.438  10.697   9.718  0.00  0.00    -0.646 OA
BRANCH  13  15
HETATM   15  O   UNK N   1      33.450  10.966  10.626  0.00  0.00    -0.773 OA
HETATM   16  H   UNK N   1      33.114  10.214  10.180  0.00  0.00     0.167 HD
ENDBRANCH  13  15
ENDBRANCH  12  13
ENDBRANCH   1   3
BRANCH   1  17
HETATM   17  S   UNK N   1      35.140  14.874   7.297  0.00  0.00     0.264 S 
HETATM   18  O   UNK N   1      33.660  14.485   7.197  0.00  0.00    -0.200 OA
HETATM   19  O   UNK N   1      35.668  13.779   6.367  0.00  0.00    -0.200 OA
BRANCH  17  20
HETATM   20  C   UNK N   1      34.323  15.761   5.924  0.00  0.00     0.090 A 
HETATM   21  C   UNK N   1      33.569  17.002   5.977  0.00  0.00    -0.010 A 
HETATM   22  C   UNK N   1      32.901  17.415   4.816  0.00  0.00     0.055 A 
HETATM   23  C   UNK N   1      32.963  16.691   3.630  0.00  0.00     0.117 A 
HETATM   24  C   UNK N   1      33.697  15.515   3.574  0.00  0.00     0.044 A 
HETATM   25  F   UNK N   1      32.300  17.127   2.533  0.00  0.00    -0.206 F 
HETATM   26  C   UNK N   1      34.357  15.056   4.708  0.00  0.00     0.029 A 
BRANCH  21  27
HETATM   27  C   UNK N   1      33.322  17.909   7.145  0.00  0.00     0.011 C 
HETATM   28  C   UNK N   1      32.481  17.911   8.200  0.00  0.00     0.004 C 
BRANCH  28  29
HETATM   29  C   UNK N   1      31.515  16.840   8.601  0.00  0.00     0.299 C 
BRANCH  29  30
HETATM   30  N   UNK N   1      30.155  17.363   8.678  0.00  0.00     0.083 N 
HETATM   31  C   UNK N   1      29.673  17.486   7.314  0.00  0.00     0.309 C 
HETATM   32  C   UNK N   1      30.199  18.712   9.224  0.00  0.00     0.309 C 
ENDBRANCH  29  30
ENDBRANCH  28  29
ENDBRANCH  21  27
ENDBRANCH  17  20
ENDBRANCH   1  17
TORSDOF 8
ENDMDL
