REMARK  5 active torsions:
REMARK  status: ('A' for Active; 'I' for Inactive)
REMARK    1  A    between atoms: N_3  and  N_7 
REMARK    2  A    between atoms: N_7  and  C_8 
REMARK    3  A    between atoms: C_8  and  C_9 
REMARK    4  A    between atoms: C_10  and  C_15 
REMARK    5  A    between atoms: C_16  and  C_17 
REMARK       I    between atoms: C_22  and  N_26 
ROOT
HETATM    1  C   UNK N   1      -2.780   0.040  -0.089  0.00  0.00    -0.020 A 
HETATM    2  C   UNK N   1      -2.089  -1.162  -0.123  0.00  0.00     0.026 A 
HETATM    3  C   UNK N   1      -2.699  -2.396   0.035  0.00  0.00     0.021 A 
HETATM    4  C   UNK N   1      -4.065  -2.433   0.244  0.00  0.00     0.002 A 
HETATM    5  C   UNK N   1      -4.782  -1.233   0.322  0.00  0.00     0.001 A 
HETATM    6  C   UNK N   1      -4.142   0.001   0.144  0.00  0.00     0.010 A 
ENDROOT
BRANCH   2   7
HETATM    7  C   UNK N   1      -0.748  -1.113  -0.203  0.00  0.00    -0.059 C 
HETATM    8  C   UNK N   1       0.391  -1.020  -0.274  0.00  0.00    -0.043 C 
BRANCH   8   9
HETATM    9  C   UNK N   1       1.713  -1.126  -0.350  0.00  0.00     0.105 A 
HETATM   10  C   UNK N   1       2.494  -0.008  -0.263  0.00  0.00     0.064 A 
HETATM   11  C   UNK N   1       3.842  -0.189  -0.123  0.00  0.00     0.025 A 
HETATM   12  C   UNK N   1       4.708   1.006  -0.013  0.00  0.00     0.069 C 
HETATM   13  N   UNK N   1       4.353  -1.454  -0.062  0.00  0.00    -0.196 N 
HETATM   14  C   UNK N   1       3.529  -2.539  -0.160  0.00  0.00     0.677 A 
ATOM     15  HN  UNK N   1       5.357  -1.590   0.057  1.00  0.00     0.184 HD
HETATM   16  N   UNK N   1       2.215  -2.361  -0.294  0.00  0.00    -0.184 N 
HETATM   17  N   UNK N   1       4.034  -3.846  -0.102  0.00  0.00    -0.234 N 
ATOM     18  HN  UNK N   1       1.593  -3.168  -0.353  1.00  0.00     0.185 HD
HETATM   19  H   UNK N   1       3.416  -4.611  -0.061  0.00  0.00     0.174 HD
HETATM   20  H   UNK N   1       5.006  -3.998  -0.102  0.00  0.00     0.174 HD
ENDBRANCH   8   9
ENDBRANCH   2   7
BRANCH   1  21
HETATM   21  C   UNK N   1      -2.107   1.364  -0.362  0.00  0.00     0.180 C 
BRANCH  21  22
HETATM   22  N   UNK N   1      -1.049   1.700   0.585  0.00  0.00    -0.322 N 
HETATM   23  H   UNK N   1      -0.731   1.150   1.337  0.00  0.00     0.181 HD
BRANCH  22  24
HETATM   24  N   UNK N   1      -0.574   2.968   0.207  0.00  0.00    -0.213 N 
HETATM   25  C   UNK N   1      -1.238   4.133   0.293  0.00  0.00     0.146 A 
HETATM   26  C   UNK N   1      -0.400   5.121  -0.218  0.00  0.00     0.167 A 
HETATM   27  O   UNK N   1       0.725   4.543  -0.595  0.00  0.00    -0.271 OA
HETATM   28  C   UNK N   1       0.620   3.266  -0.343  0.00  0.00     0.390 A 
HETATM   29  O   UNK N   1       1.484   2.454  -0.594  0.00  0.00    -0.236 OA
ENDBRANCH  22  24
ENDBRANCH  21  22
ENDBRANCH   1  21
TORSDOF 5
