MODEL 1
REMARK VINA RESULT:      -7.2      0.000      0.000
REMARK  5 active torsions:
REMARK  status: ('A' for Active; 'I' for Inactive)
REMARK    1  A    between atoms: N_3  and  N_7 
REMARK    2  A    between atoms: N_7  and  C_8 
REMARK    3  A    between atoms: C_8  and  C_9 
REMARK    4  A    between atoms: C_10  and  C_15 
REMARK    5  A    between atoms: C_16  and  C_17 
REMARK       I    between atoms: C_22  and  N_26 
ROOT
HETATM    1  C   UNK N   1      35.956  11.386  16.889  0.00  0.00    -0.020 A 
HETATM    2  C   UNK N   1      35.772  12.738  16.639  0.00  0.00     0.026 A 
HETATM    3  C   UNK N   1      35.353  13.641  17.603  0.00  0.00     0.021 A 
HETATM    4  C   UNK N   1      35.097  13.171  18.878  0.00  0.00     0.002 A 
HETATM    5  C   UNK N   1      35.237  11.804  19.148  0.00  0.00     0.001 A 
HETATM    6  C   UNK N   1      35.677  10.915  18.158  0.00  0.00     0.010 A 
ENDROOT
BRANCH   2   7
HETATM    7  C   UNK N   1      35.903  13.165  15.371  0.00  0.00    -0.059 C 
HETATM    8  C   UNK N   1      35.985  13.570  14.303  0.00  0.00    -0.043 C 
BRANCH   8   9
HETATM    9  C   UNK N   1      36.195  13.863  13.025  0.00  0.00     0.105 A 
HETATM   10  C   UNK N   1      35.642  14.989  12.482  0.00  0.00     0.064 A 
HETATM   11  C   UNK N   1      36.065  15.363  11.237  0.00  0.00     0.025 A 
HETATM   12  C   UNK N   1      35.491  16.587  10.634  0.00  0.00     0.069 C 
HETATM   13  N   UNK N   1      37.016  14.624  10.594  0.00  0.00    -0.196 N 
HETATM   14  C   UNK N   1      37.533  13.502  11.178  0.00  0.00     0.677 A 
ATOM     15  HN  UNK N   1      37.343  14.910   9.671  1.00  0.00     0.184 HD
HETATM   16  N   UNK N   1      37.121  13.140  12.393  0.00  0.00    -0.184 N 
HETATM   17  N   UNK N   1      38.508  12.728  10.533  0.00  0.00    -0.234 N 
ATOM     18  HN  UNK N   1      37.514  12.311  12.840  1.00  0.00     0.185 HD
HETATM   19  H   UNK N   1      38.948  11.991  11.015  0.00  0.00     0.174 HD
HETATM   20  H   UNK N   1      38.752  12.922   9.600  0.00  0.00     0.174 HD
ENDBRANCH   8   9
ENDBRANCH   2   7
BRANCH   1  21
HETATM   21  C   UNK N   1      36.508  10.442  15.847  0.00  0.00     0.180 C 
BRANCH  21  22
HETATM   22  N   UNK N   1      35.553   9.438  15.389  0.00  0.00    -0.322 N 
HETATM   23  H   UNK N   1      35.257   8.637  15.878  0.00  0.00     0.181 HD
BRANCH  22  24
HETATM   24  N   UNK N   1      35.141   9.846  14.108  0.00  0.00    -0.213 N 
HETATM   25  C   UNK N   1      35.834   9.719  12.963  0.00  0.00     0.146 A 
HETATM   26  C   UNK N   1      35.059  10.282  11.952  0.00  0.00     0.167 A 
HETATM   27  O   UNK N   1      33.943  10.728  12.497  0.00  0.00    -0.271 OA
HETATM   28  C   UNK N   1      33.993  10.470  13.776  0.00  0.00     0.390 A 
HETATM   29  O   UNK N   1      33.123  10.773  14.562  0.00  0.00    -0.236 OA
ENDBRANCH  22  24
ENDBRANCH  21  22
ENDBRANCH   1  21
TORSDOF 5
ENDMDL
MODEL 2
REMARK VINA RESULT:      -7.0      6.489     10.556
REMARK  5 active torsions:
REMARK  status: ('A' for Active; 'I' for Inactive)
REMARK    1  A    between atoms: N_3  and  N_7 
REMARK    2  A    between atoms: N_7  and  C_8 
REMARK    3  A    between atoms: C_8  and  C_9 
REMARK    4  A    between atoms: C_10  and  C_15 
REMARK    5  A    between atoms: C_16  and  C_17 
REMARK       I    between atoms: C_22  and  N_26 
ROOT
HETATM    1  C   UNK N   1      29.935  17.561   5.417  0.00  0.00    -0.020 A 
HETATM    2  C   UNK N   1      29.736  17.447   6.785  0.00  0.00     0.026 A 
HETATM    3  C   UNK N   1      28.680  18.045   7.454  0.00  0.00     0.021 A 
HETATM    4  C   UNK N   1      27.782  18.800   6.724  0.00  0.00     0.002 A 
HETATM    5  C   UNK N   1      27.980  18.966   5.348  0.00  0.00     0.001 A 
HETATM    6  C   UNK N   1      29.049  18.337   4.694  0.00  0.00     0.010 A 
ENDROOT
BRANCH   2   7
HETATM    7  C   UNK N   1      30.678  16.815   7.506  0.00  0.00    -0.059 C 
HETATM    8  C   UNK N   1      31.450  16.235   8.121  0.00  0.00    -0.043 C 
BRANCH   8   9
HETATM    9  C   UNK N   1      32.463  15.742   8.827  0.00  0.00     0.105 A 
HETATM   10  C   UNK N   1      32.779  14.416   8.733  0.00  0.00     0.064 A 
HETATM   11  C   UNK N   1      33.954  14.006   9.298  0.00  0.00     0.025 A 
HETATM   12  C   UNK N   1      34.326  12.577   9.198  0.00  0.00     0.069 C 
HETATM   13  N   UNK N   1      34.764  14.917   9.914  0.00  0.00    -0.196 N 
HETATM   14  C   UNK N   1      34.399  16.231   9.986  0.00  0.00     0.677 A 
ATOM     15  HN  UNK N   1      35.648  14.614  10.323  1.00  0.00     0.184 HD
HETATM   16  N   UNK N   1      33.254  16.630   9.432  0.00  0.00    -0.184 N 
HETATM   17  N   UNK N   1      35.215  17.182  10.615  0.00  0.00    -0.234 N 
ATOM     18  HN  UNK N   1      32.983  17.613   9.470  1.00  0.00     0.185 HD
HETATM   19  H   UNK N   1      34.990  18.139  10.559  0.00  0.00     0.174 HD
HETATM   20  H   UNK N   1      36.012  16.893  11.113  0.00  0.00     0.174 HD
ENDBRANCH   8   9
ENDBRANCH   2   7
BRANCH   1  21
HETATM   21  C   UNK N   1      31.036  16.819   4.699  0.00  0.00     0.180 C 
BRANCH  21  22
HETATM   22  N   UNK N   1      32.262  17.592   4.530  0.00  0.00    -0.322 N 
HETATM   23  H   UNK N   1      32.343  18.502   4.163  0.00  0.00     0.181 HD
BRANCH  22  24
HETATM   24  N   UNK N   1      33.307  16.775   4.997  0.00  0.00    -0.213 N 
HETATM   25  C   UNK N   1      33.618  15.542   4.563  0.00  0.00     0.146 A 
HETATM   26  C   UNK N   1      34.698  15.101   5.324  0.00  0.00     0.167 A 
HETATM   27  O   UNK N   1      35.006  16.055   6.182  0.00  0.00    -0.271 OA
HETATM   28  C   UNK N   1      34.180  17.047   5.988  0.00  0.00     0.390 A 
HETATM   29  O   UNK N   1      34.189  18.072   6.635  0.00  0.00    -0.236 OA
ENDBRANCH  22  24
ENDBRANCH  21  22
ENDBRANCH   1  21
TORSDOF 5
ENDMDL
MODEL 3
REMARK VINA RESULT:      -6.6      5.738      9.506
REMARK  5 active torsions:
REMARK  status: ('A' for Active; 'I' for Inactive)
REMARK    1  A    between atoms: N_3  and  N_7 
REMARK    2  A    between atoms: N_7  and  C_8 
REMARK    3  A    between atoms: C_8  and  C_9 
REMARK    4  A    between atoms: C_10  and  C_15 
REMARK    5  A    between atoms: C_16  and  C_17 
REMARK       I    between atoms: C_22  and  N_26 
ROOT
HETATM    1  C   UNK N   1      30.053  17.151   7.122  0.00  0.00    -0.020 A 
HETATM    2  C   UNK N   1      30.458  17.088   8.447  0.00  0.00     0.026 A 
HETATM    3  C   UNK N   1      29.787  17.724   9.479  0.00  0.00     0.021 A 
HETATM    4  C   UNK N   1      28.660  18.464   9.174  0.00  0.00     0.002 A 
HETATM    5  C   UNK N   1      28.251  18.577   7.840  0.00  0.00     0.001 A 
HETATM    6  C   UNK N   1      28.939  17.911   6.817  0.00  0.00     0.010 A 
ENDROOT
BRANCH   2   7
HETATM    7  C   UNK N   1      31.621  16.471   8.719  0.00  0.00    -0.059 C 
HETATM    8  C   UNK N   1      32.612  15.928   8.902  0.00  0.00    -0.043 C 
BRANCH   8   9
HETATM    9  C   UNK N   1      33.744  15.369   9.316  0.00  0.00     0.105 A 
HETATM   10  C   UNK N   1      33.862  14.944  10.610  0.00  0.00     0.064 A 
HETATM   11  C   UNK N   1      34.951  14.181  10.926  0.00  0.00     0.025 A 
HETATM   12  C   UNK N   1      35.096  13.697  12.317  0.00  0.00     0.069 C 
HETATM   13  N   UNK N   1      35.860  13.862   9.957  0.00  0.00    -0.196 N 
HETATM   14  C   UNK N   1      35.698  14.317   8.680  0.00  0.00     0.677 A 
ATOM     15  HN  UNK N   1      36.665  13.280  10.189  1.00  0.00     0.184 HD
HETATM   16  N   UNK N   1      34.634  15.059   8.372  0.00  0.00    -0.184 N 
HETATM   17  N   UNK N   1      36.620  14.003   7.671  0.00  0.00    -0.234 N 
ATOM     18  HN  UNK N   1      34.501  15.390   7.416  1.00  0.00     0.185 HD
HETATM   19  H   UNK N   1      36.428  14.244   6.736  0.00  0.00     0.174 HD
HETATM   20  H   UNK N   1      37.458  13.541   7.898  0.00  0.00     0.174 HD
ENDBRANCH   8   9
ENDBRANCH   2   7
BRANCH   1  21
HETATM   21  C   UNK N   1      30.744  16.369   6.030  0.00  0.00     0.180 C 
BRANCH  21  22
HETATM   22  N   UNK N   1      31.646  17.168   5.207  0.00  0.00    -0.322 N 
HETATM   23  H   UNK N   1      31.438  18.015   4.752  0.00  0.00     0.181 HD
BRANCH  22  24
HETATM   24  N   UNK N   1      32.874  16.482   5.194  0.00  0.00    -0.213 N 
HETATM   25  C   UNK N   1      33.114  15.274   4.659  0.00  0.00     0.146 A 
HETATM   26  C   UNK N   1      34.452  14.976   4.902  0.00  0.00     0.167 A 
HETATM   27  O   UNK N   1      34.978  15.988   5.566  0.00  0.00    -0.271 OA
HETATM   28  C   UNK N   1      34.041  16.880   5.739  0.00  0.00     0.390 A 
HETATM   29  O   UNK N   1      34.202  17.924   6.335  0.00  0.00    -0.236 OA
ENDBRANCH  22  24
ENDBRANCH  21  22
ENDBRANCH   1  21
TORSDOF 5
ENDMDL
MODEL 4
REMARK VINA RESULT:      -6.6      1.401      2.208
REMARK  5 active torsions:
REMARK  status: ('A' for Active; 'I' for Inactive)
REMARK    1  A    between atoms: N_3  and  N_7 
REMARK    2  A    between atoms: N_7  and  C_8 
REMARK    3  A    between atoms: C_8  and  C_9 
REMARK    4  A    between atoms: C_10  and  C_15 
REMARK    5  A    between atoms: C_16  and  C_17 
REMARK       I    between atoms: C_22  and  N_26 
ROOT
HETATM    1  C   UNK N   1      36.137  11.392  16.330  0.00  0.00    -0.020 A 
HETATM    2  C   UNK N   1      35.865  12.745  16.202  0.00  0.00     0.026 A 
HETATM    3  C   UNK N   1      35.350  13.519  17.229  0.00  0.00     0.021 A 
HETATM    4  C   UNK N   1      35.088  12.912  18.443  0.00  0.00     0.002 A 
HETATM    5  C   UNK N   1      35.317  11.538  18.588  0.00  0.00     0.001 A 
HETATM    6  C   UNK N   1      35.852  10.782  17.537  0.00  0.00     0.010 A 
ENDROOT
BRANCH   2   7
HETATM    7  C   UNK N   1      36.006  13.302  14.986  0.00  0.00    -0.059 C 
HETATM    8  C   UNK N   1      36.100  13.817  13.968  0.00  0.00    -0.043 C 
BRANCH   8   9
HETATM    9  C   UNK N   1      36.309  14.236  12.725  0.00  0.00     0.105 A 
HETATM   10  C   UNK N   1      36.880  13.397  11.808  0.00  0.00     0.064 A 
HETATM   11  C   UNK N   1      36.870  13.792  10.499  0.00  0.00     0.025 A 
HETATM   12  C   UNK N   1      37.469  12.896   9.486  0.00  0.00     0.069 C 
HETATM   13  N   UNK N   1      36.291  14.980  10.155  0.00  0.00    -0.196 N 
HETATM   14  C   UNK N   1      35.740  15.785  11.111  0.00  0.00     0.677 A 
ATOM     15  HN  UNK N   1      36.270  15.269   9.176  1.00  0.00     0.184 HD
HETATM   16  N   UNK N   1      35.748  15.398  12.386  0.00  0.00    -0.184 N 
HETATM   17  N   UNK N   1      35.143  17.010  10.778  0.00  0.00    -0.234 N 
ATOM     18  HN  UNK N   1      35.324  15.988  13.102  1.00  0.00     0.185 HD
HETATM   19  H   UNK N   1      34.653  17.521  11.462  0.00  0.00     0.174 HD
HETATM   20  H   UNK N   1      35.213  17.358   9.860  0.00  0.00     0.174 HD
ENDBRANCH   8   9
ENDBRANCH   2   7
BRANCH   1  21
HETATM   21  C   UNK N   1      36.790  10.593  15.226  0.00  0.00     0.180 C 
BRANCH  21  22
HETATM   22  N   UNK N   1      35.967   9.501  14.716  0.00  0.00    -0.322 N 
HETATM   23  H   UNK N   1      35.772   8.647  15.165  0.00  0.00     0.181 HD
BRANCH  22  24
HETATM   24  N   UNK N   1      35.509   9.914  13.453  0.00  0.00    -0.213 N 
HETATM   25  C   UNK N   1      34.341  10.521  13.181  0.00  0.00     0.146 A 
HETATM   26  C   UNK N   1      34.293  10.719  11.803  0.00  0.00     0.167 A 
HETATM   27  O   UNK N   1      35.407  10.235  11.285  0.00  0.00    -0.271 OA
HETATM   28  C   UNK N   1      36.126   9.757  12.265  0.00  0.00     0.390 A 
HETATM   29  O   UNK N   1      37.203   9.223  12.114  0.00  0.00    -0.236 OA
ENDBRANCH  22  24
ENDBRANCH  21  22
ENDBRANCH   1  21
TORSDOF 5
ENDMDL
MODEL 5
REMARK VINA RESULT:      -6.5     14.061     15.527
REMARK  5 active torsions:
REMARK  status: ('A' for Active; 'I' for Inactive)
REMARK    1  A    between atoms: N_3  and  N_7 
REMARK    2  A    between atoms: N_7  and  C_8 
REMARK    3  A    between atoms: C_8  and  C_9 
REMARK    4  A    between atoms: C_10  and  C_15 
REMARK    5  A    between atoms: C_16  and  C_17 
REMARK       I    between atoms: C_22  and  N_26 
ROOT
HETATM    1  C   UNK N   1      21.524  13.628   9.083  0.00  0.00    -0.020 A 
HETATM    2  C   UNK N   1      22.818  13.296   8.712  0.00  0.00     0.026 A 
HETATM    3  C   UNK N   1      23.614  12.417   9.428  0.00  0.00     0.021 A 
HETATM    4  C   UNK N   1      23.097  11.846  10.575  0.00  0.00     0.002 A 
HETATM    5  C   UNK N   1      21.807  12.193  10.995  0.00  0.00     0.001 A 
HETATM    6  C   UNK N   1      21.018  13.074  10.244  0.00  0.00     0.010 A 
ENDROOT
BRANCH   2   7
HETATM    7  C   UNK N   1      23.358  13.947   7.667  0.00  0.00    -0.059 C 
HETATM    8  C   UNK N   1      23.776  14.491   6.750  0.00  0.00    -0.043 C 
BRANCH   8   9
HETATM    9  C   UNK N   1      24.434  15.156   5.806  0.00  0.00     0.105 A 
HETATM   10  C   UNK N   1      24.751  14.537   4.630  0.00  0.00     0.064 A 
HETATM   11  C   UNK N   1      25.225  15.318   3.613  0.00  0.00     0.025 A 
HETATM   12  C   UNK N   1      25.563  14.674   2.325  0.00  0.00     0.069 C 
HETATM   13  N   UNK N   1      25.351  16.666   3.797  0.00  0.00    -0.196 N 
HETATM   14  C   UNK N   1      25.025  17.235   4.995  0.00  0.00     0.677 A 
ATOM     15  HN  UNK N   1      25.690  17.252   3.034  1.00  0.00     0.184 HD
HETATM   16  N   UNK N   1      24.561  16.472   5.984  0.00  0.00    -0.184 N 
HETATM   17  N   UNK N   1      25.149  18.616   5.204  0.00  0.00    -0.234 N 
ATOM     18  HN  UNK N   1      24.302  16.894   6.877  1.00  0.00     0.185 HD
HETATM   19  H   UNK N   1      24.804  19.021   6.032  0.00  0.00     0.174 HD
HETATM   20  H   UNK N   1      25.580  19.180   4.523  0.00  0.00     0.174 HD
ENDBRANCH   8   9
ENDBRANCH   2   7
BRANCH   1  21
HETATM   21  C   UNK N   1      20.644  14.512   8.232  0.00  0.00     0.180 C 
BRANCH  21  22
HETATM   22  N   UNK N   1      20.115  15.677   8.934  0.00  0.00    -0.322 N 
HETATM   23  H   UNK N   1      19.630  15.683   9.790  0.00  0.00     0.181 HD
BRANCH  22  24
HETATM   24  N   UNK N   1      20.439  16.792   8.140  0.00  0.00    -0.213 N 
HETATM   25  C   UNK N   1      21.049  16.775   6.943  0.00  0.00     0.146 A 
HETATM   26  C   UNK N   1      21.194  18.100   6.538  0.00  0.00     0.167 A 
HETATM   27  O   UNK N   1      20.682  18.869   7.481  0.00  0.00    -0.271 OA
HETATM   28  C   UNK N   1      20.236  18.092   8.430  0.00  0.00     0.390 A 
HETATM   29  O   UNK N   1      19.722  18.497   9.451  0.00  0.00    -0.236 OA
ENDBRANCH  22  24
ENDBRANCH  21  22
ENDBRANCH   1  21
TORSDOF 5
ENDMDL
MODEL 6
REMARK VINA RESULT:      -6.4     21.180     24.616
REMARK  5 active torsions:
REMARK  status: ('A' for Active; 'I' for Inactive)
REMARK    1  A    between atoms: N_3  and  N_7 
REMARK    2  A    between atoms: N_7  and  C_8 
REMARK    3  A    between atoms: C_8  and  C_9 
REMARK    4  A    between atoms: C_10  and  C_15 
REMARK    5  A    between atoms: C_16  and  C_17 
REMARK       I    between atoms: C_22  and  N_26 
ROOT
HETATM    1  C   UNK N   1      26.281  25.824  -5.925  0.00  0.00    -0.020 A 
HETATM    2  C   UNK N   1      26.935  25.448  -4.761  0.00  0.00     0.026 A 
HETATM    3  C   UNK N   1      26.815  26.135  -3.564  0.00  0.00     0.021 A 
HETATM    4  C   UNK N   1      26.008  27.257  -3.527  0.00  0.00     0.002 A 
HETATM    5  C   UNK N   1      25.367  27.683  -4.697  0.00  0.00     0.001 A 
HETATM    6  C   UNK N   1      25.494  26.960  -5.891  0.00  0.00     0.010 A 
ENDROOT
BRANCH   2   7
HETATM    7  C   UNK N   1      27.812  24.432  -4.834  0.00  0.00    -0.059 C 
HETATM    8  C   UNK N   1      28.591  23.597  -4.922  0.00  0.00    -0.043 C 
BRANCH   8   9
HETATM    9  C   UNK N   1      29.350  22.508  -4.923  0.00  0.00     0.105 A 
HETATM   10  C   UNK N   1      29.427  21.730  -6.045  0.00  0.00     0.064 A 
HETATM   11  C   UNK N   1      30.384  20.754  -6.072  0.00  0.00     0.025 A 
HETATM   12  C   UNK N   1      30.497  19.908  -7.280  0.00  0.00     0.069 C 
HETATM   13  N   UNK N   1      31.225  20.600  -5.006  0.00  0.00    -0.196 N 
HETATM   14  C   UNK N   1      31.102  21.400  -3.906  0.00  0.00     0.677 A 
ATOM     15  HN  UNK N   1      31.949  19.882  -5.031  1.00  0.00     0.184 HD
HETATM   16  N   UNK N   1      30.170  22.352  -3.882  0.00  0.00    -0.184 N 
HETATM   17  N   UNK N   1      31.953  21.256  -2.801  0.00  0.00    -0.234 N 
ATOM     18  HN  UNK N   1      30.083  22.963  -3.069  1.00  0.00     0.185 HD
HETATM   19  H   UNK N   1      31.923  21.912  -2.068  0.00  0.00     0.174 HD
HETATM   20  H   UNK N   1      32.580  20.499  -2.758  0.00  0.00     0.174 HD
ENDBRANCH   8   9
ENDBRANCH   2   7
BRANCH   1  21
HETATM   21  C   UNK N   1      26.350  25.002  -7.190  0.00  0.00     0.180 C 
BRANCH  21  22
HETATM   22  N   UNK N   1      25.173  24.173  -7.426  0.00  0.00    -0.322 N 
HETATM   23  H   UNK N   1      24.231  24.449  -7.352  0.00  0.00     0.181 HD
BRANCH  22  24
HETATM   24  N   UNK N   1      25.655  22.901  -7.781  0.00  0.00    -0.213 N 
HETATM   25  C   UNK N   1      26.760  22.632  -8.497  0.00  0.00     0.146 A 
HETATM   26  C   UNK N   1      26.834  21.248  -8.631  0.00  0.00     0.167 A 
HETATM   27  O   UNK N   1      25.794  20.724  -8.009  0.00  0.00    -0.271 OA
HETATM   28  C   UNK N   1      25.096  21.706  -7.506  0.00  0.00     0.390 A 
HETATM   29  O   UNK N   1      24.064  21.555  -6.889  0.00  0.00    -0.236 OA
ENDBRANCH  22  24
ENDBRANCH  21  22
ENDBRANCH   1  21
TORSDOF 5
ENDMDL
MODEL 7
REMARK VINA RESULT:      -6.3      2.480      4.682
REMARK  5 active torsions:
REMARK  status: ('A' for Active; 'I' for Inactive)
REMARK    1  A    between atoms: N_3  and  N_7 
REMARK    2  A    between atoms: N_7  and  C_8 
REMARK    3  A    between atoms: C_8  and  C_9 
REMARK    4  A    between atoms: C_10  and  C_15 
REMARK    5  A    between atoms: C_16  and  C_17 
REMARK       I    between atoms: C_22  and  N_26 
ROOT
HETATM    1  C   UNK N   1      34.954  12.070  16.119  0.00  0.00    -0.020 A 
HETATM    2  C   UNK N   1      34.747  10.715  15.905  0.00  0.00     0.026 A 
HETATM    3  C   UNK N   1      34.795   9.768  16.916  0.00  0.00     0.021 A 
HETATM    4  C   UNK N   1      35.071  10.192  18.202  0.00  0.00     0.002 A 
HETATM    5  C   UNK N   1      35.323  11.549  18.441  0.00  0.00     0.001 A 
HETATM    6  C   UNK N   1      35.252  12.487  17.403  0.00  0.00     0.010 A 
ENDROOT
BRANCH   2   7
HETATM    7  C   UNK N   1      34.602  10.295  14.637  0.00  0.00    -0.059 C 
HETATM    8  C   UNK N   1      34.511   9.899  13.566  0.00  0.00    -0.043 C 
BRANCH   8   9
HETATM    9  C   UNK N   1      34.277   9.607  12.292  0.00  0.00     0.105 A 
HETATM   10  C   UNK N   1      34.527   8.348  11.822  0.00  0.00     0.064 A 
HETATM   11  C   UNK N   1      34.065   8.037  10.574  0.00  0.00     0.025 A 
HETATM   12  C   UNK N   1      34.312   6.675  10.048  0.00  0.00     0.069 C 
HETATM   13  N   UNK N   1      33.371   8.969   9.856  0.00  0.00    -0.196 N 
HETATM   14  C   UNK N   1      33.153  10.216  10.369  0.00  0.00     0.677 A 
ATOM     15  HN  UNK N   1      33.014   8.733   8.930  1.00  0.00     0.184 HD
HETATM   16  N   UNK N   1      33.602  10.517  11.587  0.00  0.00    -0.184 N 
HETATM   17  N   UNK N   1      32.446  11.188   9.647  0.00  0.00    -0.234 N 
ATOM     18  HN  UNK N   1      33.430  11.443  11.981  1.00  0.00     0.185 HD
HETATM   19  H   UNK N   1      32.202  12.039  10.077  0.00  0.00     0.174 HD
HETATM   20  H   UNK N   1      32.192  11.018   8.712  0.00  0.00     0.174 HD
ENDBRANCH   8   9
ENDBRANCH   2   7
BRANCH   1  21
HETATM   21  C   UNK N   1      34.798  13.092  15.019  0.00  0.00     0.180 C 
BRANCH  21  22
HETATM   22  N   UNK N   1      36.060  13.627  14.520  0.00  0.00    -0.322 N 
HETATM   23  H   UNK N   1      36.682  14.221  14.999  0.00  0.00     0.181 HD
BRANCH  22  24
HETATM   24  N   UNK N   1      36.212  13.121  13.217  0.00  0.00    -0.213 N 
HETATM   25  C   UNK N   1      37.151  12.259  12.794  0.00  0.00     0.146 A 
HETATM   26  C   UNK N   1      36.940  12.059  11.432  0.00  0.00     0.167 A 
HETATM   27  O   UNK N   1      35.903  12.791  11.071  0.00  0.00    -0.271 OA
HETATM   28  C   UNK N   1      35.473  13.421  12.131  0.00  0.00     0.390 A 
HETATM   29  O   UNK N   1      34.538  14.193  12.125  0.00  0.00    -0.236 OA
ENDBRANCH  22  24
ENDBRANCH  21  22
ENDBRANCH   1  21
TORSDOF 5
ENDMDL
MODEL 8
REMARK VINA RESULT:      -6.3      8.180     10.585
REMARK  5 active torsions:
REMARK  status: ('A' for Active; 'I' for Inactive)
REMARK    1  A    between atoms: N_3  and  N_7 
REMARK    2  A    between atoms: N_7  and  C_8 
REMARK    3  A    between atoms: C_8  and  C_9 
REMARK    4  A    between atoms: C_10  and  C_15 
REMARK    5  A    between atoms: C_16  and  C_17 
REMARK       I    between atoms: C_22  and  N_26 
ROOT
HETATM    1  C   UNK N   1      30.469  17.063   8.452  0.00  0.00    -0.020 A 
HETATM    2  C   UNK N   1      30.030  17.091   7.137  0.00  0.00     0.026 A 
HETATM    3  C   UNK N   1      28.974  17.876   6.703  0.00  0.00     0.021 A 
HETATM    4  C   UNK N   1      28.319  18.668   7.627  0.00  0.00     0.002 A 
HETATM    5  C   UNK N   1      28.716  18.631   8.969  0.00  0.00     0.001 A 
HETATM    6  C   UNK N   1      29.797  17.838   9.379  0.00  0.00     0.010 A 
ENDROOT
BRANCH   2   7
HETATM    7  C   UNK N   1      30.589  16.229   6.270  0.00  0.00    -0.059 C 
HETATM    8  C   UNK N   1      31.096  15.478   5.570  0.00  0.00    -0.043 C 
BRANCH   8   9
HETATM    9  C   UNK N   1      31.555  14.687   4.607  0.00  0.00     0.105 A 
HETATM   10  C   UNK N   1      30.825  13.603   4.207  0.00  0.00     0.064 A 
HETATM   11  C   UNK N   1      31.228  12.955   3.072  0.00  0.00     0.025 A 
HETATM   12  C   UNK N   1      30.446  11.786   2.611  0.00  0.00     0.069 C 
HETATM   13  N   UNK N   1      32.315  13.410   2.381  0.00  0.00    -0.196 N 
HETATM   14  C   UNK N   1      33.014  14.495   2.827  0.00  0.00     0.677 A 
ATOM     15  HN  UNK N   1      32.607  12.935   1.527  1.00  0.00     0.184 HD
HETATM   16  N   UNK N   1      32.619  15.127   3.932  0.00  0.00    -0.184 N 
HETATM   17  N   UNK N   1      34.134  14.976   2.134  0.00  0.00    -0.234 N 
ATOM     18  HN  UNK N   1      33.129  15.947   4.262  1.00  0.00     0.185 HD
HETATM   19  H   UNK N   1      34.555  15.823   2.407  0.00  0.00     0.174 HD
HETATM   20  H   UNK N   1      34.498  14.468   1.375  0.00  0.00     0.174 HD
ENDBRANCH   8   9
ENDBRANCH   2   7
BRANCH   1  21
HETATM   21  C   UNK N   1      31.683  16.274   8.879  0.00  0.00     0.180 C 
BRANCH  21  22
HETATM   22  N   UNK N   1      32.932  17.027   8.824  0.00  0.00    -0.322 N 
HETATM   23  H   UNK N   1      33.171  17.817   9.360  0.00  0.00     0.181 HD
BRANCH  22  24
HETATM   24  N   UNK N   1      33.726  16.396   7.851  0.00  0.00    -0.213 N 
HETATM   25  C   UNK N   1      34.143  15.119   7.859  0.00  0.00     0.146 A 
HETATM   26  C   UNK N   1      34.925  14.936   6.721  0.00  0.00     0.167 A 
HETATM   27  O   UNK N   1      34.963  16.081   6.067  0.00  0.00    -0.271 OA
HETATM   28  C   UNK N   1      34.252  16.947   6.739  0.00  0.00     0.390 A 
HETATM   29  O   UNK N   1      34.106  18.103   6.408  0.00  0.00    -0.236 OA
ENDBRANCH  22  24
ENDBRANCH  21  22
ENDBRANCH   1  21
TORSDOF 5
ENDMDL
MODEL 9
REMARK VINA RESULT:      -6.2      7.794     11.693
REMARK  5 active torsions:
REMARK  status: ('A' for Active; 'I' for Inactive)
REMARK    1  A    between atoms: N_3  and  N_7 
REMARK    2  A    between atoms: N_7  and  C_8 
REMARK    3  A    between atoms: C_8  and  C_9 
REMARK    4  A    between atoms: C_10  and  C_15 
REMARK    5  A    between atoms: C_16  and  C_17 
REMARK       I    between atoms: C_22  and  N_26 
ROOT
HETATM    1  C   UNK N   1      28.356  18.048   5.225  0.00  0.00    -0.020 A 
HETATM    2  C   UNK N   1      28.698  18.322   6.541  0.00  0.00     0.026 A 
HETATM    3  C   UNK N   1      28.142  19.360   7.272  0.00  0.00     0.021 A 
HETATM    4  C   UNK N   1      27.203  20.168   6.658  0.00  0.00     0.002 A 
HETATM    5  C   UNK N   1      26.868  19.938   5.319  0.00  0.00     0.001 A 
HETATM    6  C   UNK N   1      27.434  18.872   4.607  0.00  0.00     0.010 A 
ENDROOT
BRANCH   2   7
HETATM    7  C   UNK N   1      29.698  17.612   7.090  0.00  0.00    -0.059 C 
HETATM    8  C   UNK N   1      30.527  17.011   7.604  0.00  0.00    -0.043 C 
BRANCH   8   9
HETATM    9  C   UNK N   1      31.579  16.308   8.007  0.00  0.00     0.105 A 
HETATM   10  C   UNK N   1      31.875  15.116   7.407  0.00  0.00     0.064 A 
HETATM   11  C   UNK N   1      33.082  14.545   7.700  0.00  0.00     0.025 A 
HETATM   12  C   UNK N   1      33.432  13.261   7.053  0.00  0.00     0.069 C 
HETATM   13  N   UNK N   1      33.941  15.175   8.554  0.00  0.00    -0.196 N 
HETATM   14  C   UNK N   1      33.595  16.363   9.132  0.00  0.00     0.677 A 
ATOM     15  HN  UNK N   1      34.848  14.757   8.762  1.00  0.00     0.184 HD
HETATM   16  N   UNK N   1      32.419  16.921   8.844  0.00  0.00    -0.184 N 
HETATM   17  N   UNK N   1      34.461  17.026  10.013  0.00  0.00    -0.234 N 
ATOM     18  HN  UNK N   1      32.161  17.815   9.262  1.00  0.00     0.185 HD
HETATM   19  H   UNK N   1      34.243  17.932  10.331  0.00  0.00     0.174 HD
HETATM   20  H   UNK N   1      35.288  16.585  10.314  0.00  0.00     0.174 HD
ENDBRANCH   8   9
ENDBRANCH   2   7
BRANCH   1  21
HETATM   21  C   UNK N   1      28.903  16.852   4.483  0.00  0.00     0.180 C 
BRANCH  21  22
HETATM   22  N   UNK N   1      29.747  17.194   3.343  0.00  0.00    -0.322 N 
HETATM   23  H   UNK N   1      29.458  17.597   2.492  0.00  0.00     0.181 HD
BRANCH  22  24
HETATM   24  N   UNK N   1      31.057  16.834   3.704  0.00  0.00    -0.213 N 
HETATM   25  C   UNK N   1      31.991  17.636   4.241  0.00  0.00     0.146 A 
HETATM   26  C   UNK N   1      33.143  16.871   4.407  0.00  0.00     0.167 A 
HETATM   27  O   UNK N   1      32.884  15.651   3.973  0.00  0.00    -0.271 OA
HETATM   28  C   UNK N   1      31.647  15.631   3.556  0.00  0.00     0.390 A 
HETATM   29  O   UNK N   1      31.111  14.656   3.077  0.00  0.00    -0.236 OA
ENDBRANCH  22  24
ENDBRANCH  21  22
ENDBRANCH   1  21
TORSDOF 5
ENDMDL
