MODEL 1
REMARK VINA RESULT:      -7.9      0.000      0.000
REMARK  6 active torsions:
REMARK  status: ('A' for Active; 'I' for Inactive)
REMARK       I    between atoms: C_4  and  N_10 
REMARK    1  A    between atoms: C_7  and  C_11 
REMARK    2  A    between atoms: C_11  and  N_12 
REMARK    3  A    between atoms: N_12  and  S_13 
REMARK    4  A    between atoms: S_13  and  C_28 
REMARK    5  A    between atoms: C_22  and  N_23 
REMARK    6  A    between atoms: N_23  and  C_24 
ROOT
HETATM    1  S   UNK N   1      35.330  16.048  11.241  0.00  0.00     0.259 S 
HETATM    2  O   UNK N   1      34.241  15.006  11.544  0.00  0.00    -0.201 OA
HETATM    3  O   UNK N   1      36.151  15.442  10.086  0.00  0.00    -0.201 OA
ENDROOT
BRANCH   1   4
HETATM    4  N   UNK N   1      34.149  16.146   9.914  0.00  0.00    -0.310 N 
HETATM    5  H   UNK N   1      33.335  15.540   9.817  0.00  0.00     0.172 HD
BRANCH   4   6
HETATM    6  C   UNK N   1      34.505  17.211   8.979  0.00  0.00     0.189 C 
BRANCH   6   7
HETATM    7  C   UNK N   1      34.366  16.728   7.585  0.00  0.00     0.046 A 
HETATM    8  N   UNK N   1      35.034  15.615   7.177  0.00  0.00    -0.194 N 
HETATM    9  C   UNK N   1      34.925  15.174   5.896  0.00  0.00     0.676 A 
ATOM     10  HN  UNK N   1      35.622  15.107   7.837  1.00  0.00     0.184 HD
HETATM   11  N   UNK N   1      34.154  15.850   5.004  0.00  0.00    -0.196 N 
HETATM   12  N   UNK N   1      35.615  14.015   5.489  0.00  0.00    -0.234 N 
HETATM   13  C   UNK N   1      33.479  16.970   5.377  0.00  0.00     0.024 A 
ATOM     14  HN  UNK N   1      34.082  15.515   4.043  1.00  0.00     0.184 HD
HETATM   15  C   UNK N   1      33.570  17.432   6.685  0.00  0.00     0.052 A 
HETATM   16  C   UNK N   1      32.650  17.707   4.390  0.00  0.00     0.068 C 
HETATM   17  H   UNK N   1      35.914  13.348   6.150  0.00  0.00     0.174 HD
HETATM   18  H   UNK N   1      35.802  13.869   4.534  0.00  0.00     0.174 HD
ENDBRANCH   6   7
ENDBRANCH   4   6
ENDBRANCH   1   4
BRANCH   1  19
HETATM   19  C   UNK N   1      36.096  14.525  11.977  0.00  0.00     0.081 A 
HETATM   20  C   UNK N   1      36.802  13.665  11.122  0.00  0.00     0.025 A 
HETATM   21  C   UNK N   1      37.333  12.460  11.602  0.00  0.00     0.004 A 
HETATM   22  C   UNK N   1      37.134  12.081  12.934  0.00  0.00     0.029 A 
HETATM   23  C   UNK N   1      36.447  12.932  13.809  0.00  0.00     0.033 A 
HETATM   24  C   UNK N   1      35.946  14.137  13.339  0.00  0.00     0.054 A 
BRANCH  23  25
HETATM   25  N   UNK N   1      36.119  12.551  15.128  0.00  0.00    -0.365 N 
HETATM   26  H   UNK N   1      36.096  11.592  15.351  0.00  0.00     0.165 HD
BRANCH  25  27
HETATM   27  C   UNK N   1      35.822  13.490  16.140  0.00  0.00     0.101 C 
HETATM   28  C   UNK N   1      35.527  13.058  17.368  0.00  0.00     0.034 A 
HETATM   29  C   UNK N   1      35.486  11.636  17.805  0.00  0.00     0.073 A 
HETATM   30  C   UNK N   1      35.275  13.876  18.508  0.00  0.00     0.290 A 
HETATM   31  C   UNK N   1      35.178  11.776  19.324  0.00  0.00     0.184 A 
HETATM   32  O   UNK N   1      35.083  13.133  19.598  0.00  0.00    -0.317 OA
HETATM   33  O   UNK N   1      35.267  15.095  18.516  0.00  0.00    -0.260 OA
ENDBRANCH  25  27
ENDBRANCH  23  25
ENDBRANCH   1  19
TORSDOF 6
ENDMDL
MODEL 2
REMARK VINA RESULT:      -7.8     11.125     13.357
REMARK  6 active torsions:
REMARK  status: ('A' for Active; 'I' for Inactive)
REMARK       I    between atoms: C_4  and  N_10 
REMARK    1  A    between atoms: C_7  and  C_11 
REMARK    2  A    between atoms: C_11  and  N_12 
REMARK    3  A    between atoms: N_12  and  S_13 
REMARK    4  A    between atoms: S_13  and  C_28 
REMARK    5  A    between atoms: C_22  and  N_23 
REMARK    6  A    between atoms: N_23  and  C_24 
ROOT
HETATM    1  S   UNK N   1      21.730  17.495   5.668  0.00  0.00     0.259 S 
HETATM    2  O   UNK N   1      22.753  16.495   6.232  0.00  0.00    -0.201 OA
HETATM    3  O   UNK N   1      21.484  18.500   6.810  0.00  0.00    -0.201 OA
ENDROOT
BRANCH   1   4
HETATM    4  N   UNK N   1      23.297  18.337   5.705  0.00  0.00    -0.310 N 
HETATM    5  H   UNK N   1      23.687  18.798   6.526  0.00  0.00     0.172 HD
BRANCH   4   6
HETATM    6  C   UNK N   1      23.949  18.280   4.399  0.00  0.00     0.189 C 
BRANCH   6   7
HETATM    7  C   UNK N   1      25.363  18.708   4.519  0.00  0.00     0.046 A 
HETATM    8  N   UNK N   1      26.356  17.949   3.981  0.00  0.00    -0.194 N 
HETATM    9  C   UNK N   1      27.656  18.327   4.101  0.00  0.00     0.676 A 
ATOM     10  HN  UNK N   1      26.123  17.089   3.486  1.00  0.00     0.184 HD
HETATM   11  N   UNK N   1      27.978  19.465   4.770  0.00  0.00    -0.196 N 
HETATM   12  N   UNK N   1      28.674  17.535   3.532  0.00  0.00    -0.234 N 
HETATM   13  C   UNK N   1      27.011  20.243   5.325  0.00  0.00     0.024 A 
ATOM     14  HN  UNK N   1      28.957  19.738   4.859  1.00  0.00     0.184 HD
HETATM   15  C   UNK N   1      25.674  19.879   5.206  0.00  0.00     0.052 A 
HETATM   16  C   UNK N   1      27.377  21.477   6.064  0.00  0.00     0.068 C 
HETATM   17  H   UNK N   1      28.473  16.905   2.802  0.00  0.00     0.174 HD
HETATM   18  H   UNK N   1      29.596  17.612   3.868  0.00  0.00     0.174 HD
ENDBRANCH   6   7
ENDBRANCH   4   6
ENDBRANCH   1   4
BRANCH   1  19
HETATM   19  C   UNK N   1      20.950  16.478   7.011  0.00  0.00     0.081 A 
HETATM   20  C   UNK N   1      19.973  17.086   7.814  0.00  0.00     0.025 A 
HETATM   21  C   UNK N   1      19.406  16.396   8.894  0.00  0.00     0.004 A 
HETATM   22  C   UNK N   1      19.833  15.102   9.209  0.00  0.00     0.029 A 
HETATM   23  C   UNK N   1      20.795  14.469   8.410  0.00  0.00     0.033 A 
HETATM   24  C   UNK N   1      21.335  15.142   7.325  0.00  0.00     0.054 A 
BRANCH  23  25
HETATM   25  N   UNK N   1      21.344  13.212   8.746  0.00  0.00    -0.365 N 
HETATM   26  H   UNK N   1      20.758  12.421   8.732  0.00  0.00     0.165 HD
BRANCH  25  27
HETATM   27  C   UNK N   1      22.701  13.045   9.101  0.00  0.00     0.101 C 
HETATM   28  C   UNK N   1      23.009  12.639  10.335  0.00  0.00     0.034 A 
HETATM   29  C   UNK N   1      22.038  12.322  11.416  0.00  0.00     0.073 A 
HETATM   30  C   UNK N   1      24.318  12.357  10.823  0.00  0.00     0.290 A 
HETATM   31  C   UNK N   1      22.976  11.834  12.558  0.00  0.00     0.184 A 
HETATM   32  O   UNK N   1      24.275  11.904  12.076  0.00  0.00    -0.317 OA
HETATM   33  O   UNK N   1      25.351  12.474  10.186  0.00  0.00    -0.260 OA
ENDBRANCH  25  27
ENDBRANCH  23  25
ENDBRANCH   1  19
TORSDOF 6
ENDMDL
MODEL 3
REMARK VINA RESULT:      -7.7      4.517     10.786
REMARK  6 active torsions:
REMARK  status: ('A' for Active; 'I' for Inactive)
REMARK       I    between atoms: C_4  and  N_10 
REMARK    1  A    between atoms: C_7  and  C_11 
REMARK    2  A    between atoms: C_11  and  N_12 
REMARK    3  A    between atoms: N_12  and  S_13 
REMARK    4  A    between atoms: S_13  and  C_28 
REMARK    5  A    between atoms: C_22  and  N_23 
REMARK    6  A    between atoms: N_23  and  C_24 
ROOT
HETATM    1  S   UNK N   1      33.725  17.460   8.321  0.00  0.00     0.259 S 
HETATM    2  O   UNK N   1      34.671  17.080   7.171  0.00  0.00    -0.201 OA
HETATM    3  O   UNK N   1      32.807  16.236   8.505  0.00  0.00    -0.201 OA
ENDROOT
BRANCH   1   4
HETATM    4  N   UNK N   1      34.882  16.282   8.983  0.00  0.00    -0.310 N 
HETATM    5  H   UNK N   1      35.228  15.466   8.480  0.00  0.00     0.172 HD
BRANCH   4   6
HETATM    6  C   UNK N   1      35.267  16.640  10.346  0.00  0.00     0.189 C 
BRANCH   6   7
HETATM    7  C   UNK N   1      35.955  15.499  10.995  0.00  0.00     0.046 A 
HETATM    8  N   UNK N   1      35.732  15.222  12.308  0.00  0.00    -0.194 N 
HETATM    9  C   UNK N   1      36.371  14.187  12.915  0.00  0.00     0.676 A 
ATOM     10  HN  UNK N   1      35.080  15.796  12.843  1.00  0.00     0.184 HD
HETATM   11  N   UNK N   1      37.250  13.423  12.215  0.00  0.00    -0.196 N 
HETATM   12  N   UNK N   1      36.124  13.907  14.274  0.00  0.00    -0.234 N 
HETATM   13  C   UNK N   1      37.501  13.677  10.903  0.00  0.00     0.024 A 
ATOM     14  HN  UNK N   1      37.729  12.651  12.680  1.00  0.00     0.184 HD
HETATM   15  C   UNK N   1      36.850  14.725  10.262  0.00  0.00     0.052 A 
HETATM   16  C   UNK N   1      38.473  12.842  10.153  0.00  0.00     0.068 C 
HETATM   17  H   UNK N   1      35.298  14.219  14.711  0.00  0.00     0.174 HD
HETATM   18  H   UNK N   1      36.784  13.394  14.793  0.00  0.00     0.174 HD
ENDBRANCH   6   7
ENDBRANCH   4   6
ENDBRANCH   1   4
BRANCH   1  19
HETATM   19  C   UNK N   1      32.777  17.358   6.728  0.00  0.00     0.081 A 
HETATM   20  C   UNK N   1      33.492  17.488   5.528  0.00  0.00     0.025 A 
HETATM   21  C   UNK N   1      32.823  17.501   4.296  0.00  0.00     0.004 A 
HETATM   22  C   UNK N   1      31.427  17.421   4.250  0.00  0.00     0.029 A 
HETATM   23  C   UNK N   1      30.695  17.274   5.435  0.00  0.00     0.033 A 
HETATM   24  C   UNK N   1      31.360  17.234   6.651  0.00  0.00     0.054 A 
BRANCH  23  25
HETATM   25  N   UNK N   1      29.283  17.303   5.457  0.00  0.00    -0.365 N 
HETATM   26  H   UNK N   1      28.807  16.687   6.059  0.00  0.00     0.165 HD
BRANCH  25  27
HETATM   27  C   UNK N   1      28.527  18.181   4.649  0.00  0.00     0.101 C 
HETATM   28  C   UNK N   1      27.880  19.200   5.218  0.00  0.00     0.034 A 
HETATM   29  C   UNK N   1      27.876  19.530   6.669  0.00  0.00     0.073 A 
HETATM   30  C   UNK N   1      27.136  20.207   4.536  0.00  0.00     0.290 A 
HETATM   31  C   UNK N   1      27.038  20.840   6.698  0.00  0.00     0.184 A 
HETATM   32  O   UNK N   1      26.673  21.121   5.389  0.00  0.00    -0.317 OA
HETATM   33  O   UNK N   1      26.964  20.265   3.330  0.00  0.00    -0.260 OA
ENDBRANCH  25  27
ENDBRANCH  23  25
ENDBRANCH   1  19
TORSDOF 6
ENDMDL
MODEL 4
REMARK VINA RESULT:      -7.7      1.584      2.007
REMARK  6 active torsions:
REMARK  status: ('A' for Active; 'I' for Inactive)
REMARK       I    between atoms: C_4  and  N_10 
REMARK    1  A    between atoms: C_7  and  C_11 
REMARK    2  A    between atoms: C_11  and  N_12 
REMARK    3  A    between atoms: N_12  and  S_13 
REMARK    4  A    between atoms: S_13  and  C_28 
REMARK    5  A    between atoms: C_22  and  N_23 
REMARK    6  A    between atoms: N_23  and  C_24 
ROOT
HETATM    1  S   UNK N   1      35.879  15.733  11.327  0.00  0.00     0.259 S 
HETATM    2  O   UNK N   1      34.684  15.191  12.130  0.00  0.00    -0.201 OA
HETATM    3  O   UNK N   1      36.076  14.725  10.178  0.00  0.00    -0.201 OA
ENDROOT
BRANCH   1   4
HETATM    4  N   UNK N   1      34.424  16.056  10.355  0.00  0.00    -0.310 N 
HETATM    5  H   UNK N   1      33.494  15.695  10.567  0.00  0.00     0.172 HD
BRANCH   4   6
HETATM    6  C   UNK N   1      34.742  16.907   9.211  0.00  0.00     0.189 C 
BRANCH   6   7
HETATM    7  C   UNK N   1      33.547  17.061   8.347  0.00  0.00     0.046 A 
HETATM    8  N   UNK N   1      32.300  17.020   8.890  0.00  0.00    -0.194 N 
HETATM    9  C   UNK N   1      31.200  17.144   8.102  0.00  0.00     0.676 A 
ATOM     10  HN  UNK N   1      32.190  16.895   9.895  1.00  0.00     0.184 HD
HETATM   11  N   UNK N   1      31.334  17.299   6.759  0.00  0.00    -0.196 N 
HETATM   12  N   UNK N   1      29.914  17.109   8.679  0.00  0.00    -0.234 N 
HETATM   13  C   UNK N   1      32.566  17.338   6.184  0.00  0.00     0.024 A 
ATOM     14  HN  UNK N   1      30.502  17.387   6.175  1.00  0.00     0.184 HD
HETATM   15  C   UNK N   1      33.704  17.222   6.973  0.00  0.00     0.052 A 
HETATM   16  C   UNK N   1      32.699  17.495   4.714  0.00  0.00     0.068 C 
HETATM   17  H   UNK N   1      29.785  17.309   9.635  0.00  0.00     0.174 HD
HETATM   18  H   UNK N   1      29.136  16.881   8.121  0.00  0.00     0.174 HD
ENDBRANCH   6   7
ENDBRANCH   4   6
ENDBRANCH   1   4
BRANCH   1  19
HETATM   19  C   UNK N   1      36.352  14.154  12.182  0.00  0.00     0.081 A 
HETATM   20  C   UNK N   1      37.097  13.211  11.457  0.00  0.00     0.025 A 
HETATM   21  C   UNK N   1      37.415  11.968  12.020  0.00  0.00     0.004 A 
HETATM   22  C   UNK N   1      36.962  11.635  13.301  0.00  0.00     0.029 A 
HETATM   23  C   UNK N   1      36.230  12.568  14.048  0.00  0.00     0.033 A 
HETATM   24  C   UNK N   1      35.940  13.808  13.501  0.00  0.00     0.054 A 
BRANCH  23  25
HETATM   25  N   UNK N   1      35.652  12.246  15.296  0.00  0.00    -0.365 N 
HETATM   26  H   UNK N   1      35.364  11.318  15.458  0.00  0.00     0.165 HD
BRANCH  25  27
HETATM   27  C   UNK N   1      35.469  13.201  16.319  0.00  0.00     0.101 C 
HETATM   28  C   UNK N   1      35.338  12.791  17.582  0.00  0.00     0.034 A 
HETATM   29  C   UNK N   1      35.375  11.378  18.048  0.00  0.00     0.073 A 
HETATM   30  C   UNK N   1      35.218  13.628  18.729  0.00  0.00     0.290 A 
HETATM   31  C   UNK N   1      35.257  11.545  19.590  0.00  0.00     0.184 A 
HETATM   32  O   UNK N   1      35.176  12.905  19.848  0.00  0.00    -0.317 OA
HETATM   33  O   UNK N   1      35.191  14.848  18.716  0.00  0.00    -0.260 OA
ENDBRANCH  25  27
ENDBRANCH  23  25
ENDBRANCH   1  19
TORSDOF 6
ENDMDL
MODEL 5
REMARK VINA RESULT:      -7.5      4.083     10.443
REMARK  6 active torsions:
REMARK  status: ('A' for Active; 'I' for Inactive)
REMARK       I    between atoms: C_4  and  N_10 
REMARK    1  A    between atoms: C_7  and  C_11 
REMARK    2  A    between atoms: C_11  and  N_12 
REMARK    3  A    between atoms: N_12  and  S_13 
REMARK    4  A    between atoms: S_13  and  C_28 
REMARK    5  A    between atoms: C_22  and  N_23 
REMARK    6  A    between atoms: N_23  and  C_24 
ROOT
HETATM    1  S   UNK N   1      34.446  15.863   8.446  0.00  0.00     0.259 S 
HETATM    2  O   UNK N   1      32.999  15.447   8.756  0.00  0.00    -0.201 OA
HETATM    3  O   UNK N   1      34.443  17.403   8.527  0.00  0.00    -0.201 OA
ENDROOT
BRANCH   1   4
HETATM    4  N   UNK N   1      34.211  16.099  10.194  0.00  0.00    -0.310 N 
HETATM    5  H   UNK N   1      33.303  16.165  10.653  0.00  0.00     0.172 HD
BRANCH   4   6
HETATM    6  C   UNK N   1      35.497  16.188  10.884  0.00  0.00     0.189 C 
BRANCH   6   7
HETATM    7  C   UNK N   1      35.630  15.074  11.852  0.00  0.00     0.046 A 
HETATM    8  N   UNK N   1      36.307  15.258  13.018  0.00  0.00    -0.194 N 
HETATM    9  C   UNK N   1      36.447  14.237  13.904  0.00  0.00     0.676 A 
ATOM     10  HN  UNK N   1      36.713  16.169  13.228  1.00  0.00     0.184 HD
HETATM   11  N   UNK N   1      35.920  13.015  13.628  0.00  0.00    -0.196 N 
HETATM   12  N   UNK N   1      37.144  14.445  15.111  0.00  0.00    -0.234 N 
HETATM   13  C   UNK N   1      35.243  12.796  12.470  0.00  0.00     0.024 A 
ATOM     14  HN  UNK N   1      36.035  12.254  14.298  1.00  0.00     0.184 HD
HETATM   15  C   UNK N   1      35.081  13.830  11.554  0.00  0.00     0.052 A 
HETATM   16  C   UNK N   1      34.683  11.453  12.175  0.00  0.00     0.068 C 
HETATM   17  H   UNK N   1      37.260  15.352  15.477  0.00  0.00     0.174 HD
HETATM   18  H   UNK N   1      37.520  13.674  15.595  0.00  0.00     0.174 HD
ENDBRANCH   6   7
ENDBRANCH   4   6
ENDBRANCH   1   4
BRANCH   1  19
HETATM   19  C   UNK N   1      33.325  16.390   7.064  0.00  0.00     0.081 A 
HETATM   20  C   UNK N   1      33.903  17.012   5.947  0.00  0.00     0.025 A 
HETATM   21  C   UNK N   1      33.101  17.504   4.908  0.00  0.00     0.004 A 
HETATM   22  C   UNK N   1      31.708  17.414   4.988  0.00  0.00     0.029 A 
HETATM   23  C   UNK N   1      31.109  16.782   6.086  0.00  0.00     0.033 A 
HETATM   24  C   UNK N   1      31.905  16.271   7.099  0.00  0.00     0.054 A 
BRANCH  23  25
HETATM   25  N   UNK N   1      29.710  16.764   6.274  0.00  0.00    -0.365 N 
HETATM   26  H   UNK N   1      29.218  15.934   6.079  0.00  0.00     0.165 HD
BRANCH  25  27
HETATM   27  C   UNK N   1      28.988  17.889   6.729  0.00  0.00     0.101 C 
HETATM   28  C   UNK N   1      28.292  18.618   5.855  0.00  0.00     0.034 A 
HETATM   29  C   UNK N   1      28.183  18.357   4.394  0.00  0.00     0.073 A 
HETATM   30  C   UNK N   1      27.462  19.734   6.165  0.00  0.00     0.290 A 
HETATM   31  C   UNK N   1      27.192  19.469   3.942  0.00  0.00     0.184 A 
HETATM   32  O   UNK N   1      26.851  20.196   5.073  0.00  0.00    -0.317 OA
HETATM   33  O   UNK N   1      27.289  20.200   7.279  0.00  0.00    -0.260 OA
ENDBRANCH  25  27
ENDBRANCH  23  25
ENDBRANCH   1  19
TORSDOF 6
ENDMDL
MODEL 6
REMARK VINA RESULT:      -7.4      3.116      5.459
REMARK  6 active torsions:
REMARK  status: ('A' for Active; 'I' for Inactive)
REMARK       I    between atoms: C_4  and  N_10 
REMARK    1  A    between atoms: C_7  and  C_11 
REMARK    2  A    between atoms: C_11  and  N_12 
REMARK    3  A    between atoms: N_12  and  S_13 
REMARK    4  A    between atoms: S_13  and  C_28 
REMARK    5  A    between atoms: C_22  and  N_23 
REMARK    6  A    between atoms: N_23  and  C_24 
ROOT
HETATM    1  S   UNK N   1      35.904  12.290  14.274  0.00  0.00     0.259 S 
HETATM    2  O   UNK N   1      37.190  12.583  15.063  0.00  0.00    -0.201 OA
HETATM    3  O   UNK N   1      35.020  13.537  14.475  0.00  0.00    -0.201 OA
ENDROOT
BRANCH   1   4
HETATM    4  N   UNK N   1      36.816  13.493  13.331  0.00  0.00    -0.310 N 
HETATM    5  H   UNK N   1      37.759  13.351  12.971  0.00  0.00     0.172 HD
BRANCH   4   6
HETATM    6  C   UNK N   1      36.032  14.712  13.146  0.00  0.00     0.189 C 
BRANCH   6   7
HETATM    7  C   UNK N   1      35.849  14.982  11.701  0.00  0.00     0.046 A 
HETATM    8  N   UNK N   1      35.024  15.983  11.291  0.00  0.00    -0.194 N 
HETATM    9  C   UNK N   1      34.838  16.227   9.967  0.00  0.00     0.676 A 
ATOM     10  HN  UNK N   1      34.541  16.555  11.982  1.00  0.00     0.184 HD
HETATM   11  N   UNK N   1      35.468  15.463   9.036  0.00  0.00    -0.196 N 
HETATM   12  N   UNK N   1      33.988  17.273   9.557  0.00  0.00    -0.234 N 
HETATM   13  C   UNK N   1      36.294  14.450   9.412  0.00  0.00     0.024 A 
ATOM     14  HN  UNK N   1      35.319  15.651   8.044  1.00  0.00     0.184 HD
HETATM   15  C   UNK N   1      36.505  14.191  10.761  0.00  0.00     0.052 A 
HETATM   16  C   UNK N   1      36.967  13.615   8.385  0.00  0.00     0.068 C 
HETATM   17  H   UNK N   1      33.773  18.017  10.166  0.00  0.00     0.174 HD
HETATM   18  H   UNK N   1      33.603  17.261   8.651  0.00  0.00     0.174 HD
ENDBRANCH   6   7
ENDBRANCH   4   6
ENDBRANCH   1   4
BRANCH   1  19
HETATM   19  C   UNK N   1      35.541  12.304  16.095  0.00  0.00     0.081 A 
HETATM   20  C   UNK N   1      35.431  13.547  16.735  0.00  0.00     0.025 A 
HETATM   21  C   UNK N   1      35.239  13.622  18.121  0.00  0.00     0.004 A 
HETATM   22  C   UNK N   1      35.192  12.456  18.892  0.00  0.00     0.029 A 
HETATM   23  C   UNK N   1      35.284  11.203  18.271  0.00  0.00     0.033 A 
HETATM   24  C   UNK N   1      35.445  11.130  16.897  0.00  0.00     0.054 A 
BRANCH  23  25
HETATM   25  N   UNK N   1      35.357  10.001  19.009  0.00  0.00    -0.365 N 
HETATM   26  H   UNK N   1      36.199   9.778  19.467  0.00  0.00     0.165 HD
BRANCH  25  27
HETATM   27  C   UNK N   1      34.270   9.105  19.114  0.00  0.00     0.101 C 
HETATM   28  C   UNK N   1      33.485   9.152  20.192  0.00  0.00     0.034 A 
HETATM   29  C   UNK N   1      33.631  10.091  21.337  0.00  0.00     0.073 A 
HETATM   30  C   UNK N   1      32.316   8.368  20.413  0.00  0.00     0.290 A 
HETATM   31  C   UNK N   1      32.400   9.723  22.213  0.00  0.00     0.184 A 
HETATM   32  O   UNK N   1      31.720   8.708  21.556  0.00  0.00    -0.317 OA
HETATM   33  O   UNK N   1      31.879   7.518  19.655  0.00  0.00    -0.260 OA
ENDBRANCH  25  27
ENDBRANCH  23  25
ENDBRANCH   1  19
TORSDOF 6
ENDMDL
MODEL 7
REMARK VINA RESULT:      -7.3      7.670     13.276
REMARK  6 active torsions:
REMARK  status: ('A' for Active; 'I' for Inactive)
REMARK       I    between atoms: C_4  and  N_10 
REMARK    1  A    between atoms: C_7  and  C_11 
REMARK    2  A    between atoms: C_11  and  N_12 
REMARK    3  A    between atoms: N_12  and  S_13 
REMARK    4  A    between atoms: S_13  and  C_28 
REMARK    5  A    between atoms: C_22  and  N_23 
REMARK    6  A    between atoms: N_23  and  C_24 
ROOT
HETATM    1  S   UNK N   1      28.553  17.078   7.042  0.00  0.00     0.259 S 
HETATM    2  O   UNK N   1      29.328  18.357   7.401  0.00  0.00    -0.201 OA
HETATM    3  O   UNK N   1      28.794  16.876   5.533  0.00  0.00    -0.201 OA
ENDROOT
BRANCH   1   4
HETATM    4  N   UNK N   1      30.279  16.644   7.043  0.00  0.00    -0.310 N 
HETATM    5  H   UNK N   1      30.698  15.940   6.435  0.00  0.00     0.172 HD
BRANCH   4   6
HETATM    6  C   UNK N   1      31.012  17.429   8.033  0.00  0.00     0.189 C 
BRANCH   6   7
HETATM    7  C   UNK N   1      32.369  16.864   8.222  0.00  0.00     0.046 A 
HETATM    8  N   UNK N   1      33.088  17.170   9.336  0.00  0.00    -0.194 N 
HETATM    9  C   UNK N   1      34.340  16.669   9.510  0.00  0.00     0.676 A 
ATOM     10  HN  UNK N   1      32.685  17.780  10.047  1.00  0.00     0.184 HD
HETATM   11  N   UNK N   1      34.891  15.864   8.564  0.00  0.00    -0.196 N 
HETATM   12  N   UNK N   1      35.069  16.987  10.673  0.00  0.00    -0.234 N 
HETATM   13  C   UNK N   1      34.202  15.545   7.437  0.00  0.00     0.024 A 
ATOM     14  HN  UNK N   1      35.833  15.497   8.702  1.00  0.00     0.184 HD
HETATM   15  C   UNK N   1      32.918  16.039   7.244  0.00  0.00     0.052 A 
HETATM   16  C   UNK N   1      34.821  14.675   6.405  0.00  0.00     0.068 C 
HETATM   17  H   UNK N   1      34.609  17.291  11.490  0.00  0.00     0.174 HD
HETATM   18  H   UNK N   1      36.050  16.905  10.670  0.00  0.00     0.174 HD
ENDBRANCH   6   7
ENDBRANCH   4   6
ENDBRANCH   1   4
BRANCH   1  19
HETATM   19  C   UNK N   1      27.748  18.551   6.250  0.00  0.00     0.081 A 
HETATM   20  C   UNK N   1      27.703  19.749   6.980  0.00  0.00     0.025 A 
HETATM   21  C   UNK N   1      27.038  20.872   6.470  0.00  0.00     0.004 A 
HETATM   22  C   UNK N   1      26.376  20.802   5.239  0.00  0.00     0.029 A 
HETATM   23  C   UNK N   1      26.422  19.622   4.486  0.00  0.00     0.033 A 
HETATM   24  C   UNK N   1      27.104  18.521   4.980  0.00  0.00     0.054 A 
BRANCH  23  25
HETATM   25  N   UNK N   1      25.680  19.459   3.296  0.00  0.00    -0.365 N 
HETATM   26  H   UNK N   1      25.976  18.783   2.643  0.00  0.00     0.165 HD
BRANCH  25  27
HETATM   27  C   UNK N   1      24.531  20.225   3.003  0.00  0.00     0.101 C 
HETATM   28  C   UNK N   1      23.324  19.731   3.288  0.00  0.00     0.034 A 
HETATM   29  C   UNK N   1      23.049  18.410   3.914  0.00  0.00     0.073 A 
HETATM   30  C   UNK N   1      22.080  20.405   3.119  0.00  0.00     0.290 A 
HETATM   31  C   UNK N   1      21.501  18.442   4.065  0.00  0.00     0.184 A 
HETATM   32  O   UNK N   1      21.068  19.661   3.565  0.00  0.00    -0.317 OA
HETATM   33  O   UNK N   1      21.939  21.528   2.664  0.00  0.00    -0.260 OA
ENDBRANCH  25  27
ENDBRANCH  23  25
ENDBRANCH   1  19
TORSDOF 6
ENDMDL
MODEL 8
REMARK VINA RESULT:      -7.3      8.955     14.427
REMARK  6 active torsions:
REMARK  status: ('A' for Active; 'I' for Inactive)
REMARK       I    between atoms: C_4  and  N_10 
REMARK    1  A    between atoms: C_7  and  C_11 
REMARK    2  A    between atoms: C_11  and  N_12 
REMARK    3  A    between atoms: N_12  and  S_13 
REMARK    4  A    between atoms: S_13  and  C_28 
REMARK    5  A    between atoms: C_22  and  N_23 
REMARK    6  A    between atoms: N_23  and  C_24 
ROOT
HETATM    1  S   UNK N   1      28.359  18.308   4.946  0.00  0.00     0.259 S 
HETATM    2  O   UNK N   1      27.810  17.336   3.889  0.00  0.00    -0.201 OA
HETATM    3  O   UNK N   1      27.385  18.195   6.135  0.00  0.00    -0.201 OA
ENDROOT
BRANCH   1   4
HETATM    4  N   UNK N   1      28.734  16.666   5.520  0.00  0.00    -0.310 N 
HETATM    5  H   UNK N   1      28.037  15.985   5.821  0.00  0.00     0.172 HD
BRANCH   4   6
HETATM    6  C   UNK N   1      30.175  16.427   5.506  0.00  0.00     0.189 C 
BRANCH   6   7
HETATM    7  C   UNK N   1      30.799  17.023   6.711  0.00  0.00     0.046 A 
HETATM    8  N   UNK N   1      30.029  17.386   7.772  0.00  0.00    -0.194 N 
HETATM    9  C   UNK N   1      30.591  17.949   8.874  0.00  0.00     0.676 A 
ATOM     10  HN  UNK N   1      29.021  17.236   7.740  1.00  0.00     0.184 HD
HETATM   11  N   UNK N   1      31.932  18.165   8.922  0.00  0.00    -0.196 N 
HETATM   12  N   UNK N   1      29.782  18.312   9.969  0.00  0.00    -0.234 N 
HETATM   13  C   UNK N   1      32.729  17.820   7.876  0.00  0.00     0.024 A 
ATOM     14  HN  UNK N   1      32.345  18.592   9.752  1.00  0.00     0.184 HD
HETATM   15  C   UNK N   1      32.175  17.235   6.744  0.00  0.00     0.052 A 
HETATM   16  C   UNK N   1      34.191  18.073   7.936  0.00  0.00     0.068 C 
HETATM   17  H   UNK N   1      28.896  17.901  10.099  0.00  0.00     0.174 HD
HETATM   18  H   UNK N   1      30.106  18.983  10.612  0.00  0.00     0.174 HD
ENDBRANCH   6   7
ENDBRANCH   4   6
ENDBRANCH   1   4
BRANCH   1  19
HETATM   19  C   UNK N   1      26.747  18.943   4.277  0.00  0.00     0.081 A 
HETATM   20  C   UNK N   1      26.783  20.044   3.408  0.00  0.00     0.025 A 
HETATM   21  C   UNK N   1      25.596  20.619   2.935  0.00  0.00     0.004 A 
HETATM   22  C   UNK N   1      24.356  20.124   3.353  0.00  0.00     0.029 A 
HETATM   23  C   UNK N   1      24.297  19.015   4.207  0.00  0.00     0.033 A 
HETATM   24  C   UNK N   1      25.472  18.430   4.652  0.00  0.00     0.054 A 
BRANCH  23  25
HETATM   25  N   UNK N   1      23.080  18.546   4.749  0.00  0.00    -0.365 N 
HETATM   26  H   UNK N   1      23.099  18.071   5.611  0.00  0.00     0.165 HD
BRANCH  25  27
HETATM   27  C   UNK N   1      21.838  18.731   4.104  0.00  0.00     0.101 C 
HETATM   28  C   UNK N   1      21.322  17.736   3.379  0.00  0.00     0.034 A 
HETATM   29  C   UNK N   1      21.936  16.396   3.176  0.00  0.00     0.073 A 
HETATM   30  C   UNK N   1      20.054  17.742   2.728  0.00  0.00     0.290 A 
HETATM   31  C   UNK N   1      20.850  15.669   2.333  0.00  0.00     0.184 A 
HETATM   32  O   UNK N   1      19.808  16.567   2.148  0.00  0.00    -0.317 OA
HETATM   33  O   UNK N   1      19.266  18.673   2.721  0.00  0.00    -0.260 OA
ENDBRANCH  25  27
ENDBRANCH  23  25
ENDBRANCH   1  19
TORSDOF 6
ENDMDL
MODEL 9
REMARK VINA RESULT:      -7.2      4.646     10.980
REMARK  6 active torsions:
REMARK  status: ('A' for Active; 'I' for Inactive)
REMARK       I    between atoms: C_4  and  N_10 
REMARK    1  A    between atoms: C_7  and  C_11 
REMARK    2  A    between atoms: C_11  and  N_12 
REMARK    3  A    between atoms: N_12  and  S_13 
REMARK    4  A    between atoms: S_13  and  C_28 
REMARK    5  A    between atoms: C_22  and  N_23 
REMARK    6  A    between atoms: N_23  and  C_24 
ROOT
HETATM    1  S   UNK N   1      33.711  17.619   8.547  0.00  0.00     0.259 S 
HETATM    2  O   UNK N   1      34.462  16.549   7.738  0.00  0.00    -0.201 OA
HETATM    3  O   UNK N   1      32.347  16.983   8.880  0.00  0.00    -0.201 OA
ENDROOT
BRANCH   1   4
HETATM    4  N   UNK N   1      34.210  16.364   9.705  0.00  0.00    -0.310 N 
HETATM    5  H   UNK N   1      33.731  15.473   9.835  0.00  0.00     0.172 HD
BRANCH   4   6
HETATM    6  C   UNK N   1      35.397  16.784  10.447  0.00  0.00     0.189 C 
BRANCH   6   7
HETATM    7  C   UNK N   1      36.079  15.600  11.021  0.00  0.00     0.046 A 
HETATM    8  N   UNK N   1      37.025  14.939  10.299  0.00  0.00    -0.194 N 
HETATM    9  C   UNK N   1      37.644  13.843  10.811  0.00  0.00     0.676 A 
ATOM     10  HN  UNK N   1      37.269  15.267   9.365  1.00  0.00     0.184 HD
HETATM   11  N   UNK N   1      37.317  13.390  12.050  0.00  0.00    -0.196 N 
HETATM   12  N   UNK N   1      38.627  13.173  10.056  0.00  0.00    -0.234 N 
HETATM   13  C   UNK N   1      36.372  14.024  12.795  0.00  0.00     0.024 A 
ATOM     14  HN  UNK N   1      37.784  12.564  12.425  1.00  0.00     0.184 HD
HETATM   15  C   UNK N   1      35.734  15.152  12.292  0.00  0.00     0.052 A 
HETATM   16  C   UNK N   1      36.015  13.511  14.141  0.00  0.00     0.068 C 
HETATM   17  H   UNK N   1      39.099  13.632   9.323  0.00  0.00     0.174 HD
HETATM   18  H   UNK N   1      38.845  12.236  10.263  0.00  0.00     0.174 HD
ENDBRANCH   6   7
ENDBRANCH   4   6
ENDBRANCH   1   4
BRANCH   1  19
HETATM   19  C   UNK N   1      32.900  17.388   6.893  0.00  0.00     0.081 A 
HETATM   20  C   UNK N   1      33.712  17.433   5.750  0.00  0.00     0.025 A 
HETATM   21  C   UNK N   1      33.148  17.346   4.469  0.00  0.00     0.004 A 
HETATM   22  C   UNK N   1      31.761  17.251   4.313  0.00  0.00     0.029 A 
HETATM   23  C   UNK N   1      30.933  17.188   5.441  0.00  0.00     0.033 A 
HETATM   24  C   UNK N   1      31.494  17.246   6.707  0.00  0.00     0.054 A 
BRANCH  23  25
HETATM   25  N   UNK N   1      29.524  17.207   5.343  0.00  0.00    -0.365 N 
HETATM   26  H   UNK N   1      29.023  16.391   5.576  0.00  0.00     0.165 HD
BRANCH  25  27
HETATM   27  C   UNK N   1      28.805  18.347   4.924  0.00  0.00     0.101 C 
HETATM   28  C   UNK N   1      27.640  18.191   4.292  0.00  0.00     0.034 A 
HETATM   29  C   UNK N   1      26.987  16.892   3.977  0.00  0.00     0.073 A 
HETATM   30  C   UNK N   1      26.767  19.236   3.870  0.00  0.00     0.290 A 
HETATM   31  C   UNK N   1      25.650  17.354   3.329  0.00  0.00     0.184 A 
HETATM   32  O   UNK N   1      25.652  18.741   3.333  0.00  0.00    -0.317 OA
HETATM   33  O   UNK N   1      26.975  20.430   4.006  0.00  0.00    -0.260 OA
ENDBRANCH  25  27
ENDBRANCH  23  25
ENDBRANCH   1  19
TORSDOF 6
ENDMDL
