MODEL 1
REMARK VINA RESULT:      -8.0      0.000      0.000
REMARK  5 active torsions:
REMARK  status: ('A' for Active; 'I' for Inactive)
REMARK    1  A    between atoms: C_4  and  N_9 
REMARK       I    between atoms: N_9  and  C_10 
REMARK    2  A    between atoms: C_10  and  C_11 
REMARK    3  A    between atoms: C_21  and  N_23 
REMARK    4  A    between atoms: N_23  and  C_24 
REMARK    5  A    between atoms: C_28  and  C_30 
ROOT
HETATM    1  C   UNK N   1      32.414  16.599   6.384  0.00  0.00     0.090 A 
HETATM    2  C   UNK N   1      31.229  16.952   7.040  0.00  0.00     0.130 A 
HETATM    3  C   UNK N   1      30.050  17.173   6.390  0.00  0.00     0.047 A 
HETATM    4  C   UNK N   1      29.938  17.045   5.012  0.00  0.00     0.020 A 
HETATM    5  C   UNK N   1      31.098  16.678   4.300  0.00  0.00     0.026 A 
HETATM    6  C   UNK N   1      32.334  16.460   4.963  0.00  0.00     0.052 A 
HETATM    7  O   UNK N   1      31.053  17.152   8.325  0.00  0.00    -0.234 OA
HETATM    8  N   UNK N   1      29.822  17.500   8.568  0.00  0.00    -0.243 N 
ATOM      9  HN  UNK N   1      29.423  17.712   9.483  1.00  0.00     0.196 HD
HETATM   10  C   UNK N   1      29.169  17.531   7.386  0.00  0.00     0.139 A 
HETATM   11 Cl   UNK N   1      33.718  16.024   3.969  0.00  0.00    -0.083 Cl
ENDROOT
BRANCH   1  12
HETATM   12  C   UNK N   1      33.658  16.437   7.200  0.00  0.00     0.260 C 
HETATM   13  N   UNK N   1      33.763  15.476   8.160  0.00  0.00    -0.320 N 
HETATM   14  H   UNK N   1      32.955  14.955   8.374  0.00  0.00     0.169 HD
HETATM   15  O   UNK N   1      34.611  17.167   6.966  0.00  0.00    -0.267 OA
BRANCH  13  16
HETATM   16  C   UNK N   1      34.960  15.170   8.877  0.00  0.00     0.066 A 
HETATM   17  C   UNK N   1      35.314  15.826  10.065  0.00  0.00     0.119 A 
HETATM   18  N   UNK N   1      36.480  15.531  10.692  0.00  0.00    -0.360 N 
HETATM   19  C   UNK N   1      37.323  14.599  10.178  0.00  0.00     0.180 A 
ATOM     20  HN  UNK N   1      36.726  16.012  11.557  1.00  0.00     0.166 HD
HETATM   21  N   UNK N   1      37.005  13.952   9.026  0.00  0.00    -0.360 N 
HETATM   22  C   UNK N   1      35.848  14.225   8.367  0.00  0.00     0.119 A 
ATOM     23  HN  UNK N   1      37.646  13.253   8.648  1.00  0.00     0.166 HD
ENDBRANCH  13  16
ENDBRANCH   1  12
BRANCH  10  24
HETATM   24  N   UNK N   1      27.802  17.895   7.236  0.00  0.00    -0.340 N 
HETATM   25  H   UNK N   1      27.114  17.308   7.627  0.00  0.00     0.167 HD
BRANCH  24  26
HETATM   26  C   UNK N   1      27.381  19.070   6.545  0.00  0.00     0.034 A 
HETATM   27  C   UNK N   1      27.657  20.353   7.050  0.00  0.00     0.029 A 
HETATM   28  C   UNK N   1      27.238  21.495   6.373  0.00  0.00     0.003 A 
HETATM   29  C   UNK N   1      26.532  21.370   5.177  0.00  0.00     0.016 A 
HETATM   30  C   UNK N   1      26.253  20.102   4.652  0.00  0.00     0.050 A 
HETATM   31  C   UNK N   1      26.684  18.953   5.338  0.00  0.00     0.045 A 
BRANCH  30  32
HETATM   32  C   UNK N   1      25.483  19.997   3.370  0.00  0.00     0.417 C 
HETATM   33  F   UNK N   1      26.087  20.786   2.407  0.00  0.00    -0.166 F 
HETATM   34  F   UNK N   1      24.175  20.416   3.535  0.00  0.00    -0.166 F 
HETATM   35  F   UNK N   1      25.482  18.681   2.939  0.00  0.00    -0.166 F 
ENDBRANCH  30  32
ENDBRANCH  24  26
ENDBRANCH  10  24
TORSDOF 5
ENDMDL
MODEL 2
REMARK VINA RESULT:      -8.0      6.328     10.494
REMARK  5 active torsions:
REMARK  status: ('A' for Active; 'I' for Inactive)
REMARK    1  A    between atoms: C_4  and  N_9 
REMARK       I    between atoms: N_9  and  C_10 
REMARK    2  A    between atoms: C_10  and  C_11 
REMARK    3  A    between atoms: C_21  and  N_23 
REMARK    4  A    between atoms: N_23  and  C_24 
REMARK    5  A    between atoms: C_28  and  C_30 
ROOT
HETATM    1  C   UNK N   1      34.667  15.806   7.403  0.00  0.00     0.090 A 
HETATM    2  C   UNK N   1      34.897  15.956   8.775  0.00  0.00     0.130 A 
HETATM    3  C   UNK N   1      35.808  15.212   9.467  0.00  0.00     0.047 A 
HETATM    4  C   UNK N   1      36.594  14.251   8.843  0.00  0.00     0.020 A 
HETATM    5  C   UNK N   1      36.414  14.068   7.457  0.00  0.00     0.026 A 
HETATM    6  C   UNK N   1      35.459  14.825   6.730  0.00  0.00     0.052 A 
HETATM    7  O   UNK N   1      34.293  16.772   9.607  0.00  0.00    -0.234 OA
HETATM    8  N   UNK N   1      34.746  16.609  10.816  0.00  0.00    -0.243 N 
ATOM      9  HN  UNK N   1      34.446  17.119  11.648  1.00  0.00     0.196 HD
HETATM   10  C   UNK N   1      35.687  15.641  10.769  0.00  0.00     0.139 A 
HETATM   11 Cl   UNK N   1      35.309  14.496   5.009  0.00  0.00    -0.083 Cl
ENDROOT
BRANCH   1  12
HETATM   12  C   UNK N   1      33.601  16.642   6.766  0.00  0.00     0.260 C 
HETATM   13  N   UNK N   1      32.385  16.123   6.441  0.00  0.00    -0.320 N 
HETATM   14  H   UNK N   1      32.260  15.152   6.543  0.00  0.00     0.169 HD
HETATM   15  O   UNK N   1      33.826  17.828   6.568  0.00  0.00    -0.267 OA
BRANCH  13  16
HETATM   16  C   UNK N   1      31.276  16.888   5.963  0.00  0.00     0.066 A 
HETATM   17  C   UNK N   1      30.208  17.263   6.791  0.00  0.00     0.119 A 
HETATM   18  N   UNK N   1      29.157  17.956   6.286  0.00  0.00    -0.360 N 
HETATM   19  C   UNK N   1      29.121  18.294   4.972  0.00  0.00     0.180 A 
ATOM     20  HN  UNK N   1      28.388  18.227   6.898  1.00  0.00     0.166 HD
HETATM   21  N   UNK N   1      30.141  17.938   4.147  0.00  0.00    -0.360 N 
HETATM   22  C   UNK N   1      31.209  17.239   4.617  0.00  0.00     0.119 A 
ATOM     23  HN  UNK N   1      30.104  18.197   3.161  1.00  0.00     0.166 HD
ENDBRANCH  13  16
ENDBRANCH   1  12
BRANCH  10  24
HETATM   24  N   UNK N   1      36.398  15.160  11.904  0.00  0.00    -0.340 N 
HETATM   25  H   UNK N   1      37.261  15.578  12.128  0.00  0.00     0.167 HD
BRANCH  24  26
HETATM   26  C   UNK N   1      35.919  14.102  12.732  0.00  0.00     0.034 A 
HETATM   27  C   UNK N   1      35.363  12.935  12.178  0.00  0.00     0.029 A 
HETATM   28  C   UNK N   1      34.893  11.909  12.994  0.00  0.00     0.003 A 
HETATM   29  C   UNK N   1      34.970  12.036  14.380  0.00  0.00     0.016 A 
HETATM   30  C   UNK N   1      35.527  13.186  14.952  0.00  0.00     0.050 A 
HETATM   31  C   UNK N   1      36.005  14.216  14.124  0.00  0.00     0.045 A 
BRANCH  30  32
HETATM   32  C   UNK N   1      35.589  13.301  16.446  0.00  0.00     0.417 C 
HETATM   33  F   UNK N   1      36.076  12.120  16.976  0.00  0.00    -0.166 F 
HETATM   34  F   UNK N   1      34.338  13.549  16.981  0.00  0.00    -0.166 F 
HETATM   35  F   UNK N   1      36.439  14.337  16.794  0.00  0.00    -0.166 F 
ENDBRANCH  30  32
ENDBRANCH  24  26
ENDBRANCH  10  24
TORSDOF 5
ENDMDL
MODEL 3
REMARK VINA RESULT:      -7.9      5.832     10.246
REMARK  5 active torsions:
REMARK  status: ('A' for Active; 'I' for Inactive)
REMARK    1  A    between atoms: C_4  and  N_9 
REMARK       I    between atoms: N_9  and  C_10 
REMARK    2  A    between atoms: C_10  and  C_11 
REMARK    3  A    between atoms: C_21  and  N_23 
REMARK    4  A    between atoms: N_23  and  C_24 
REMARK    5  A    between atoms: C_28  and  C_30 
ROOT
HETATM    1  C   UNK N   1      34.370  15.741   7.859  0.00  0.00     0.090 A 
HETATM    2  C   UNK N   1      34.740  15.609   9.201  0.00  0.00     0.130 A 
HETATM    3  C   UNK N   1      35.767  14.814   9.621  0.00  0.00     0.047 A 
HETATM    4  C   UNK N   1      36.539  14.083   8.727  0.00  0.00     0.020 A 
HETATM    5  C   UNK N   1      36.219  14.189   7.358  0.00  0.00     0.026 A 
HETATM    6  C   UNK N   1      35.144  15.001   6.912  0.00  0.00     0.052 A 
HETATM    7  O   UNK N   1      34.180  16.169  10.248  0.00  0.00    -0.234 OA
HETATM    8  N   UNK N   1      34.773  15.788  11.342  0.00  0.00    -0.243 N 
ATOM      9  HN  UNK N   1      34.534  16.078  12.291  1.00  0.00     0.196 HD
HETATM   10  C   UNK N   1      35.762  14.938  10.992  0.00  0.00     0.139 A 
HETATM   11 Cl   UNK N   1      34.827  15.041   5.182  0.00  0.00    -0.083 Cl
ENDROOT
BRANCH   1  12
HETATM   12  C   UNK N   1      33.189  16.600   7.527  0.00  0.00     0.260 C 
HETATM   13  N   UNK N   1      31.935  16.286   7.953  0.00  0.00    -0.320 N 
HETATM   14  H   UNK N   1      31.808  15.418   8.401  0.00  0.00     0.169 HD
HETATM   15  O   UNK N   1      33.373  17.627   6.887  0.00  0.00    -0.267 OA
BRANCH  13  16
HETATM   16  C   UNK N   1      30.789  17.126   7.798  0.00  0.00     0.066 A 
HETATM   17  C   UNK N   1      30.361  18.007   8.801  0.00  0.00     0.119 A 
HETATM   18  N   UNK N   1      29.245  18.758   8.626  0.00  0.00    -0.360 N 
HETATM   19  C   UNK N   1      28.524  18.666   7.478  0.00  0.00     0.180 A 
ATOM     20  HN  UNK N   1      28.944  19.398   9.361  1.00  0.00     0.166 HD
HETATM   21  N   UNK N   1      28.916  17.816   6.493  0.00  0.00    -0.360 N 
HETATM   22  C   UNK N   1      30.026  17.045   6.635  0.00  0.00     0.119 A 
ATOM     23  HN  UNK N   1      28.368  17.755   5.634  1.00  0.00     0.166 HD
ENDBRANCH  13  16
ENDBRANCH   1  12
BRANCH  10  24
HETATM   24  N   UNK N   1      36.623  14.286  11.918  0.00  0.00    -0.340 N 
HETATM   25  H   UNK N   1      37.592  14.289  11.740  0.00  0.00     0.167 HD
BRANCH  24  26
HETATM   26  C   UNK N   1      36.148  13.630  13.092  0.00  0.00     0.034 A 
HETATM   27  C   UNK N   1      36.488  14.092  14.376  0.00  0.00     0.029 A 
HETATM   28  C   UNK N   1      36.025  13.442  15.517  0.00  0.00     0.003 A 
HETATM   29  C   UNK N   1      35.214  12.315  15.390  0.00  0.00     0.016 A 
HETATM   30  C   UNK N   1      34.858  11.841  14.121  0.00  0.00     0.050 A 
HETATM   31  C   UNK N   1      35.324  12.505  12.973  0.00  0.00     0.045 A 
BRANCH  30  32
HETATM   32  C   UNK N   1      33.994  10.621  14.014  0.00  0.00     0.417 C 
HETATM   33  F   UNK N   1      32.914  10.748  14.870  0.00  0.00    -0.166 F 
HETATM   34  F   UNK N   1      34.697   9.478  14.348  0.00  0.00    -0.166 F 
HETATM   35  F   UNK N   1      33.528  10.498  12.716  0.00  0.00    -0.166 F 
ENDBRANCH  30  32
ENDBRANCH  24  26
ENDBRANCH  10  24
TORSDOF 5
ENDMDL
MODEL 4
REMARK VINA RESULT:      -7.8      5.431      9.980
REMARK  5 active torsions:
REMARK  status: ('A' for Active; 'I' for Inactive)
REMARK    1  A    between atoms: C_4  and  N_9 
REMARK       I    between atoms: N_9  and  C_10 
REMARK    2  A    between atoms: C_10  and  C_11 
REMARK    3  A    between atoms: C_21  and  N_23 
REMARK    4  A    between atoms: N_23  and  C_24 
REMARK    5  A    between atoms: C_28  and  C_30 
ROOT
HETATM    1  C   UNK N   1      24.672  18.488   4.044  0.00  0.00     0.090 A 
HETATM    2  C   UNK N   1      25.773  17.724   4.447  0.00  0.00     0.130 A 
HETATM    3  C   UNK N   1      27.063  18.155   4.339  0.00  0.00     0.047 A 
HETATM    4  C   UNK N   1      27.376  19.409   3.829  0.00  0.00     0.020 A 
HETATM    5  C   UNK N   1      26.303  20.227   3.420  0.00  0.00     0.026 A 
HETATM    6  C   UNK N   1      24.958  19.784   3.513  0.00  0.00     0.052 A 
HETATM    7  O   UNK N   1      25.769  16.510   4.946  0.00  0.00    -0.234 OA
HETATM    8  N   UNK N   1      26.985  16.105   5.172  0.00  0.00    -0.243 N 
ATOM      9  HN  UNK N   1      27.259  15.203   5.559  1.00  0.00     0.196 HD
HETATM   10  C   UNK N   1      27.819  17.101   4.800  0.00  0.00     0.139 A 
HETATM   11 Cl   UNK N   1      23.705  20.884   2.955  0.00  0.00    -0.083 Cl
ENDROOT
BRANCH   1  12
HETATM   12  C   UNK N   1      23.306  17.884   4.161  0.00  0.00     0.260 C 
HETATM   13  N   UNK N   1      22.977  16.731   3.516  0.00  0.00    -0.320 N 
HETATM   14  H   UNK N   1      23.634  16.357   2.885  0.00  0.00     0.169 HD
HETATM   15  O   UNK N   1      22.485  18.430   4.884  0.00  0.00    -0.267 OA
BRANCH  13  16
HETATM   16  C   UNK N   1      21.748  16.024   3.691  0.00  0.00     0.066 A 
HETATM   17  C   UNK N   1      21.580  15.040   4.676  0.00  0.00     0.119 A 
HETATM   18  N   UNK N   1      20.407  14.366   4.781  0.00  0.00    -0.360 N 
HETATM   19  C   UNK N   1      19.380  14.632   3.933  0.00  0.00     0.180 A 
ATOM     20  HN  UNK N   1      20.295  13.655   5.503  1.00  0.00     0.166 HD
HETATM   21  N   UNK N   1      19.520  15.577   2.967  0.00  0.00    -0.360 N 
HETATM   22  C   UNK N   1      20.682  16.270   2.829  0.00  0.00     0.119 A 
ATOM     23  HN  UNK N   1      18.742  15.770   2.336  1.00  0.00     0.166 HD
ENDBRANCH  13  16
ENDBRANCH   1  12
BRANCH  10  24
HETATM   24  N   UNK N   1      29.238  17.026   4.871  0.00  0.00    -0.340 N 
HETATM   25  H   UNK N   1      29.740  16.838   4.045  0.00  0.00     0.167 HD
BRANCH  24  26
HETATM   26  C   UNK N   1      29.966  17.211   6.084  0.00  0.00     0.034 A 
HETATM   27  C   UNK N   1      31.367  17.094   6.120  0.00  0.00     0.029 A 
HETATM   28  C   UNK N   1      32.069  17.271   7.310  0.00  0.00     0.003 A 
HETATM   29  C   UNK N   1      31.379  17.565   8.484  0.00  0.00     0.016 A 
HETATM   30  C   UNK N   1      29.985  17.693   8.469  0.00  0.00     0.050 A 
HETATM   31  C   UNK N   1      29.281  17.519   7.265  0.00  0.00     0.045 A 
BRANCH  30  32
HETATM   32  C   UNK N   1      29.266  18.000   9.749  0.00  0.00     0.417 C 
HETATM   33  F   UNK N   1      29.840  19.111  10.341  0.00  0.00    -0.166 F 
HETATM   34  F   UNK N   1      29.337  16.937  10.631  0.00  0.00    -0.166 F 
HETATM   35  F   UNK N   1      27.936  18.270   9.478  0.00  0.00    -0.166 F 
ENDBRANCH  30  32
ENDBRANCH  24  26
ENDBRANCH  10  24
TORSDOF 5
ENDMDL
MODEL 5
REMARK VINA RESULT:      -7.8      5.478      9.716
REMARK  5 active torsions:
REMARK  status: ('A' for Active; 'I' for Inactive)
REMARK    1  A    between atoms: C_4  and  N_9 
REMARK       I    between atoms: N_9  and  C_10 
REMARK    2  A    between atoms: C_10  and  C_11 
REMARK    3  A    between atoms: C_21  and  N_23 
REMARK    4  A    between atoms: N_23  and  C_24 
REMARK    5  A    between atoms: C_28  and  C_30 
ROOT
HETATM    1  C   UNK N   1      31.296  17.172   5.441  0.00  0.00     0.090 A 
HETATM    2  C   UNK N   1      31.614  17.119   6.802  0.00  0.00     0.130 A 
HETATM    3  C   UNK N   1      32.891  16.994   7.269  0.00  0.00     0.047 A 
HETATM    4  C   UNK N   1      33.980  16.927   6.411  0.00  0.00     0.020 A 
HETATM    5  C   UNK N   1      33.719  16.989   5.027  0.00  0.00     0.026 A 
HETATM    6  C   UNK N   1      32.395  17.104   4.529  0.00  0.00     0.052 A 
HETATM    7  O   UNK N   1      30.788  17.148   7.822  0.00  0.00    -0.234 OA
HETATM    8  N   UNK N   1      31.442  17.043   8.943  0.00  0.00    -0.243 N 
ATOM      9  HN  UNK N   1      31.039  17.040   9.879  1.00  0.00     0.196 HD
HETATM   10  C   UNK N   1      32.754  16.938   8.638  0.00  0.00     0.139 A 
HETATM   11 Cl   UNK N   1      32.191  17.156   2.783  0.00  0.00    -0.083 Cl
ENDROOT
BRANCH   1  12
HETATM   12  C   UNK N   1      29.853  17.254   5.050  0.00  0.00     0.260 C 
HETATM   13  N   UNK N   1      29.038  18.233   5.531  0.00  0.00    -0.320 N 
HETATM   14  H   UNK N   1      29.400  18.828   6.228  0.00  0.00     0.169 HD
HETATM   15  O   UNK N   1      29.415  16.439   4.251  0.00  0.00    -0.267 OA
BRANCH  13  16
HETATM   16  C   UNK N   1      27.695  18.459   5.097  0.00  0.00     0.066 A 
HETATM   17  C   UNK N   1      26.605  17.748   5.621  0.00  0.00     0.119 A 
HETATM   18  N   UNK N   1      25.352  17.968   5.151  0.00  0.00    -0.360 N 
HETATM   19  C   UNK N   1      25.133  18.877   4.167  0.00  0.00     0.180 A 
ATOM     20  HN  UNK N   1      24.567  17.448   5.541  1.00  0.00     0.166 HD
HETATM   21  N   UNK N   1      26.173  19.576   3.639  0.00  0.00    -0.360 N 
HETATM   22  C   UNK N   1      27.444  19.379   4.082  0.00  0.00     0.119 A 
ATOM     23  HN  UNK N   1      25.998  20.257   2.900  1.00  0.00     0.166 HD
ENDBRANCH  13  16
ENDBRANCH   1  12
BRANCH  10  24
HETATM   24  N   UNK N   1      33.790  16.780   9.600  0.00  0.00    -0.340 N 
HETATM   25  H   UNK N   1      34.236  17.587   9.947  0.00  0.00     0.167 HD
BRANCH  24  26
HETATM   26  C   UNK N   1      34.212  15.507  10.087  0.00  0.00     0.034 A 
HETATM   27  C   UNK N   1      33.960  14.328   9.364  0.00  0.00     0.029 A 
HETATM   28  C   UNK N   1      34.371  13.089   9.850  0.00  0.00     0.003 A 
HETATM   29  C   UNK N   1      35.039  13.011  11.071  0.00  0.00     0.016 A 
HETATM   30  C   UNK N   1      35.306  14.174  11.804  0.00  0.00     0.050 A 
HETATM   31  C   UNK N   1      34.894  15.422  11.306  0.00  0.00     0.045 A 
BRANCH  30  32
HETATM   32  C   UNK N   1      36.017  14.061  13.119  0.00  0.00     0.417 C 
HETATM   33  F   UNK N   1      36.483  15.307  13.497  0.00  0.00    -0.166 F 
HETATM   34  F   UNK N   1      37.089  13.190  13.035  0.00  0.00    -0.166 F 
HETATM   35  F   UNK N   1      35.137  13.597  14.081  0.00  0.00    -0.166 F 
ENDBRANCH  30  32
ENDBRANCH  24  26
ENDBRANCH  10  24
TORSDOF 5
ENDMDL
MODEL 6
REMARK VINA RESULT:      -7.7      5.791      8.369
REMARK  5 active torsions:
REMARK  status: ('A' for Active; 'I' for Inactive)
REMARK    1  A    between atoms: C_4  and  N_9 
REMARK       I    between atoms: N_9  and  C_10 
REMARK    2  A    between atoms: C_10  and  C_11 
REMARK    3  A    between atoms: C_21  and  N_23 
REMARK    4  A    between atoms: N_23  and  C_24 
REMARK    5  A    between atoms: C_28  and  C_30 
ROOT
HETATM    1  C   UNK N   1      36.190  12.271  12.914  0.00  0.00     0.090 A 
HETATM    2  C   UNK N   1      35.429  13.134  12.117  0.00  0.00     0.130 A 
HETATM    3  C   UNK N   1      35.331  13.011  10.762  0.00  0.00     0.047 A 
HETATM    4  C   UNK N   1      35.977  11.994  10.071  0.00  0.00     0.020 A 
HETATM    5  C   UNK N   1      36.748  11.087  10.825  0.00  0.00     0.026 A 
HETATM    6  C   UNK N   1      36.869  11.213  12.234  0.00  0.00     0.052 A 
HETATM    7  O   UNK N   1      34.733  14.178  12.502  0.00  0.00    -0.234 OA
HETATM    8  N   UNK N   1      34.182  14.762  11.478  0.00  0.00    -0.243 N 
ATOM      9  HN  UNK N   1      33.590  15.593  11.502  1.00  0.00     0.196 HD
HETATM   10  C   UNK N   1      34.538  14.067  10.376  0.00  0.00     0.139 A 
HETATM   11 Cl   UNK N   1      37.872  10.033  13.067  0.00  0.00    -0.083 Cl
ENDROOT
BRANCH   1  12
HETATM   12  C   UNK N   1      36.264  12.541  14.385  0.00  0.00     0.260 C 
HETATM   13  N   UNK N   1      35.167  12.441  15.186  0.00  0.00    -0.320 N 
HETATM   14  H   UNK N   1      34.297  12.286  14.751  0.00  0.00     0.169 HD
HETATM   15  O   UNK N   1      37.349  12.822  14.875  0.00  0.00    -0.267 OA
BRANCH  13  16
HETATM   16  C   UNK N   1      35.188  12.544  16.610  0.00  0.00     0.066 A 
HETATM   17  C   UNK N   1      35.195  13.779  17.276  0.00  0.00     0.119 A 
HETATM   18  N   UNK N   1      35.255  13.830  18.630  0.00  0.00    -0.360 N 
HETATM   19  C   UNK N   1      35.312  12.688  19.361  0.00  0.00     0.180 A 
ATOM     20  HN  UNK N   1      35.257  14.733  19.102  1.00  0.00     0.166 HD
HETATM   21  N   UNK N   1      35.311  11.479  18.741  0.00  0.00    -0.360 N 
HETATM   22  C   UNK N   1      35.257  11.388  17.386  0.00  0.00     0.119 A 
ATOM     23  HN  UNK N   1      35.354  10.626  19.300  1.00  0.00     0.166 HD
ENDBRANCH  13  16
ENDBRANCH   1  12
BRANCH  10  24
HETATM   24  N   UNK N   1      34.149  14.413   9.051  0.00  0.00    -0.340 N 
HETATM   25  H   UNK N   1      34.176  13.715   8.357  0.00  0.00     0.167 HD
BRANCH  24  26
HETATM   26  C   UNK N   1      33.723  15.724   8.683  0.00  0.00     0.034 A 
HETATM   27  C   UNK N   1      34.624  16.662   8.150  0.00  0.00     0.029 A 
HETATM   28  C   UNK N   1      34.201  17.942   7.798  0.00  0.00     0.003 A 
HETATM   29  C   UNK N   1      32.866  18.302   7.976  0.00  0.00     0.016 A 
HETATM   30  C   UNK N   1      31.950  17.381   8.498  0.00  0.00     0.050 A 
HETATM   31  C   UNK N   1      32.383  16.089   8.846  0.00  0.00     0.045 A 
BRANCH  30  32
HETATM   32  C   UNK N   1      30.523  17.798   8.689  0.00  0.00     0.417 C 
HETATM   33  F   UNK N   1      29.903  17.886   7.455  0.00  0.00    -0.166 F 
HETATM   34  F   UNK N   1      30.441  19.027   9.319  0.00  0.00    -0.166 F 
HETATM   35  F   UNK N   1      29.865  16.855   9.459  0.00  0.00    -0.166 F 
ENDBRANCH  30  32
ENDBRANCH  24  26
ENDBRANCH  10  24
TORSDOF 5
ENDMDL
MODEL 7
REMARK VINA RESULT:      -7.7      4.650      6.521
REMARK  5 active torsions:
REMARK  status: ('A' for Active; 'I' for Inactive)
REMARK    1  A    between atoms: C_4  and  N_9 
REMARK       I    between atoms: N_9  and  C_10 
REMARK    2  A    between atoms: C_10  and  C_11 
REMARK    3  A    between atoms: C_21  and  N_23 
REMARK    4  A    between atoms: N_23  and  C_24 
REMARK    5  A    between atoms: C_28  and  C_30 
ROOT
HETATM    1  C   UNK N   1      34.901  13.303  10.898  0.00  0.00     0.090 A 
HETATM    2  C   UNK N   1      34.649  14.629  10.532  0.00  0.00     0.130 A 
HETATM    3  C   UNK N   1      34.228  14.996   9.287  0.00  0.00     0.047 A 
HETATM    4  C   UNK N   1      34.001  14.060   8.286  0.00  0.00     0.020 A 
HETATM    5  C   UNK N   1      34.226  12.706   8.604  0.00  0.00     0.026 A 
HETATM    6  C   UNK N   1      34.678  12.314   9.891  0.00  0.00     0.052 A 
HETATM    7  O   UNK N   1      34.792  15.707  11.269  0.00  0.00    -0.234 OA
HETATM    8  N   UNK N   1      34.495  16.772  10.582  0.00  0.00    -0.243 N 
ATOM      9  HN  UNK N   1      34.522  17.735  10.918  1.00  0.00     0.196 HD
HETATM   10  C   UNK N   1      34.146  16.369   9.341  0.00  0.00     0.139 A 
HETATM   11 Cl   UNK N   1      34.942  10.597  10.165  0.00  0.00    -0.083 Cl
ENDROOT
BRANCH   1  12
HETATM   12  C   UNK N   1      35.413  13.030  12.279  0.00  0.00     0.260 C 
HETATM   13  N   UNK N   1      34.620  12.476  13.238  0.00  0.00    -0.320 N 
HETATM   14  H   UNK N   1      33.666  12.353  13.027  0.00  0.00     0.169 HD
HETATM   15  O   UNK N   1      36.583  13.283  12.530  0.00  0.00    -0.267 OA
BRANCH  13  16
HETATM   16  C   UNK N   1      35.075  12.059  14.526  0.00  0.00     0.066 A 
HETATM   17  C   UNK N   1      35.735  10.839  14.733  0.00  0.00     0.119 A 
HETATM   18  N   UNK N   1      36.115  10.465  15.980  0.00  0.00    -0.360 N 
HETATM   19  C   UNK N   1      35.860  11.265  17.048  0.00  0.00     0.180 A 
ATOM     20  HN  UNK N   1      36.597   9.578  16.118  1.00  0.00     0.166 HD
HETATM   21  N   UNK N   1      35.217  12.450  16.875  0.00  0.00    -0.360 N 
HETATM   22  C   UNK N   1      34.818  12.855  15.640  0.00  0.00     0.119 A 
ATOM     23  HN  UNK N   1      35.030  13.043  17.684  1.00  0.00     0.166 HD
ENDBRANCH  13  16
ENDBRANCH   1  12
BRANCH  10  24
HETATM   24  N   UNK N   1      33.778  17.251   8.287  0.00  0.00    -0.340 N 
HETATM   25  H   UNK N   1      34.478  17.809   7.875  0.00  0.00     0.167 HD
BRANCH  24  26
HETATM   26  C   UNK N   1      32.442  17.364   7.798  0.00  0.00     0.034 A 
HETATM   27  C   UNK N   1      32.131  17.096   6.453  0.00  0.00     0.029 A 
HETATM   28  C   UNK N   1      30.825  17.214   5.983  0.00  0.00     0.003 A 
HETATM   29  C   UNK N   1      29.810  17.606   6.854  0.00  0.00     0.016 A 
HETATM   30  C   UNK N   1      30.096  17.872   8.198  0.00  0.00     0.050 A 
HETATM   31  C   UNK N   1      31.415  17.745   8.668  0.00  0.00     0.045 A 
BRANCH  30  32
HETATM   32  C   UNK N   1      28.986  18.301   9.110  0.00  0.00     0.417 C 
HETATM   33  F   UNK N   1      29.517  19.004  10.177  0.00  0.00    -0.166 F 
HETATM   34  F   UNK N   1      28.287  17.211   9.596  0.00  0.00    -0.166 F 
HETATM   35  F   UNK N   1      28.113  19.122   8.418  0.00  0.00    -0.166 F 
ENDBRANCH  30  32
ENDBRANCH  24  26
ENDBRANCH  10  24
TORSDOF 5
ENDMDL
MODEL 8
REMARK VINA RESULT:      -7.7      5.998      7.460
REMARK  5 active torsions:
REMARK  status: ('A' for Active; 'I' for Inactive)
REMARK    1  A    between atoms: C_4  and  N_9 
REMARK       I    between atoms: N_9  and  C_10 
REMARK    2  A    between atoms: C_10  and  C_11 
REMARK    3  A    between atoms: C_21  and  N_23 
REMARK    4  A    between atoms: N_23  and  C_24 
REMARK    5  A    between atoms: C_28  and  C_30 
ROOT
HETATM    1  C   UNK N   1      27.013  17.376   5.731  0.00  0.00     0.090 A 
HETATM    2  C   UNK N   1      26.250  16.334   6.270  0.00  0.00     0.130 A 
HETATM    3  C   UNK N   1      25.026  15.974   5.786  0.00  0.00     0.047 A 
HETATM    4  C   UNK N   1      24.451  16.617   4.698  0.00  0.00     0.020 A 
HETATM    5  C   UNK N   1      25.182  17.667   4.106  0.00  0.00     0.026 A 
HETATM    6  C   UNK N   1      26.449  18.060   4.609  0.00  0.00     0.052 A 
HETATM    7  O   UNK N   1      26.543  15.574   7.299  0.00  0.00    -0.234 OA
HETATM    8  N   UNK N   1      25.579  14.731   7.533  0.00  0.00    -0.243 N 
ATOM      9  HN  UNK N   1      25.556  14.030   8.273  1.00  0.00     0.196 HD
HETATM   10  C   UNK N   1      24.614  14.955   6.615  0.00  0.00     0.139 A 
HETATM   11 Cl   UNK N   1      27.259  19.395   3.801  0.00  0.00    -0.083 Cl
ENDROOT
BRANCH   1  12
HETATM   12  C   UNK N   1      28.317  17.714   6.383  0.00  0.00     0.260 C 
HETATM   13  N   UNK N   1      29.298  16.782   6.545  0.00  0.00    -0.320 N 
HETATM   14  H   UNK N   1      29.084  15.850   6.312  0.00  0.00     0.169 HD
HETATM   15  O   UNK N   1      28.511  18.866   6.744  0.00  0.00    -0.267 OA
BRANCH  13  16
HETATM   16  C   UNK N   1      30.613  17.062   7.026  0.00  0.00     0.066 A 
HETATM   17  C   UNK N   1      30.894  17.239   8.389  0.00  0.00     0.119 A 
HETATM   18  N   UNK N   1      32.152  17.541   8.798  0.00  0.00    -0.360 N 
HETATM   19  C   UNK N   1      33.156  17.680   7.895  0.00  0.00     0.180 A 
ATOM     20  HN  UNK N   1      32.345  17.665   9.791  1.00  0.00     0.166 HD
HETATM   21  N   UNK N   1      32.909  17.519   6.568  0.00  0.00    -0.360 N 
HETATM   22  C   UNK N   1      31.661  17.219   6.121  0.00  0.00     0.119 A 
ATOM     23  HN  UNK N   1      33.671  17.625   5.898  1.00  0.00     0.166 HD
ENDBRANCH  13  16
ENDBRANCH   1  12
BRANCH  10  24
HETATM   24  N   UNK N   1      23.382  14.245   6.558  0.00  0.00    -0.340 N 
HETATM   25  H   UNK N   1      23.141  13.789   5.719  0.00  0.00     0.167 HD
BRANCH  24  26
HETATM   26  C   UNK N   1      22.481  14.161   7.662  0.00  0.00     0.034 A 
HETATM   27  C   UNK N   1      21.363  15.007   7.757  0.00  0.00     0.029 A 
HETATM   28  C   UNK N   1      20.492  14.922   8.841  0.00  0.00     0.003 A 
HETATM   29  C   UNK N   1      20.728  13.988   9.848  0.00  0.00     0.016 A 
HETATM   30  C   UNK N   1      21.833  13.131   9.769  0.00  0.00     0.050 A 
HETATM   31  C   UNK N   1      22.705  13.217   8.670  0.00  0.00     0.045 A 
BRANCH  30  32
HETATM   32  C   UNK N   1      22.070  12.142  10.871  0.00  0.00     0.417 C 
HETATM   33  F   UNK N   1      22.578  10.972  10.336  0.00  0.00    -0.166 F 
HETATM   34  F   UNK N   1      20.897  11.854  11.545  0.00  0.00    -0.166 F 
HETATM   35  F   UNK N   1      22.986  12.663  11.768  0.00  0.00    -0.166 F 
ENDBRANCH  30  32
ENDBRANCH  24  26
ENDBRANCH  10  24
TORSDOF 5
ENDMDL
MODEL 9
REMARK VINA RESULT:      -7.7      5.511     10.309
REMARK  5 active torsions:
REMARK  status: ('A' for Active; 'I' for Inactive)
REMARK    1  A    between atoms: C_4  and  N_9 
REMARK       I    between atoms: N_9  and  C_10 
REMARK    2  A    between atoms: C_10  and  C_11 
REMARK    3  A    between atoms: C_21  and  N_23 
REMARK    4  A    between atoms: N_23  and  C_24 
REMARK    5  A    between atoms: C_28  and  C_30 
ROOT
HETATM    1  C   UNK N   1      24.311  16.256   5.523  0.00  0.00     0.090 A 
HETATM    2  C   UNK N   1      25.549  16.767   5.118  0.00  0.00     0.130 A 
HETATM    3  C   UNK N   1      26.739  16.165   5.408  0.00  0.00     0.047 A 
HETATM    4  C   UNK N   1      26.803  14.977   6.124  0.00  0.00     0.020 A 
HETATM    5  C   UNK N   1      25.584  14.410   6.547  0.00  0.00     0.026 A 
HETATM    6  C   UNK N   1      24.341  15.034   6.264  0.00  0.00     0.052 A 
HETATM    7  O   UNK N   1      25.782  17.871   4.447  0.00  0.00    -0.234 OA
HETATM    8  N   UNK N   1      27.061  18.042   4.278  0.00  0.00    -0.243 N 
ATOM      9  HN  UNK N   1      27.508  18.818   3.790  1.00  0.00     0.196 HD
HETATM   10  C   UNK N   1      27.690  17.003   4.870  0.00  0.00     0.139 A 
HETATM   11 Cl   UNK N   1      22.887  14.243   6.858  0.00  0.00    -0.083 Cl
ENDROOT
BRANCH   1  12
HETATM   12  C   UNK N   1      23.077  17.036   5.191  0.00  0.00     0.260 C 
HETATM   13  N   UNK N   1      22.749  17.340   3.905  0.00  0.00    -0.320 N 
HETATM   14  H   UNK N   1      23.403  17.121   3.203  0.00  0.00     0.169 HD
HETATM   15  O   UNK N   1      22.333  17.372   6.102  0.00  0.00    -0.267 OA
BRANCH  13  16
HETATM   16  C   UNK N   1      21.523  17.954   3.502  0.00  0.00     0.066 A 
HETATM   17  C   UNK N   1      20.388  17.208   3.151  0.00  0.00     0.119 A 
HETATM   18  N   UNK N   1      19.257  17.831   2.737  0.00  0.00    -0.360 N 
HETATM   19  C   UNK N   1      19.206  19.186   2.654  0.00  0.00     0.180 A 
ATOM     20  HN  UNK N   1      18.437  17.279   2.487  1.00  0.00     0.166 HD
HETATM   21  N   UNK N   1      20.294  19.931   2.984  0.00  0.00    -0.360 N 
HETATM   22  C   UNK N   1      21.446  19.341   3.399  0.00  0.00     0.119 A 
ATOM     23  HN  UNK N   1      20.245  20.948   2.919  1.00  0.00     0.166 HD
ENDBRANCH  13  16
ENDBRANCH   1  12
BRANCH  10  24
HETATM   24  N   UNK N   1      29.103  16.847   4.922  0.00  0.00    -0.340 N 
HETATM   25  H   UNK N   1      29.571  16.542   4.111  0.00  0.00     0.167 HD
BRANCH  24  26
HETATM   26  C   UNK N   1      29.873  17.111   6.094  0.00  0.00     0.034 A 
HETATM   27  C   UNK N   1      31.277  17.054   6.074  0.00  0.00     0.029 A 
HETATM   28  C   UNK N   1      32.020  17.308   7.224  0.00  0.00     0.003 A 
HETATM   29  C   UNK N   1      31.367  17.622   8.414  0.00  0.00     0.016 A 
HETATM   30  C   UNK N   1      29.969  17.692   8.455  0.00  0.00     0.050 A 
HETATM   31  C   UNK N   1      29.225  17.440   7.290  0.00  0.00     0.045 A 
BRANCH  30  32
HETATM   32  C   UNK N   1      29.292  18.021   9.751  0.00  0.00     0.417 C 
HETATM   33  F   UNK N   1      29.411  16.948  10.616  0.00  0.00    -0.166 F 
HETATM   34  F   UNK N   1      27.950  18.295   9.560  0.00  0.00    -0.166 F 
HETATM   35  F   UNK N   1      29.899  19.128  10.320  0.00  0.00    -0.166 F 
ENDBRANCH  30  32
ENDBRANCH  24  26
ENDBRANCH  10  24
TORSDOF 5
ENDMDL
