REMARK  5 active torsions:
REMARK  status: ('A' for Active; 'I' for Inactive)
REMARK    1  A    between atoms: C_1  and  C_2 
REMARK    2  A    between atoms: C_10  and  N_11 
REMARK    3  A    between atoms: C_12  and  N_11 
REMARK    4  A    between atoms: C_12  and  C_13 
REMARK    5  A    between atoms: C_12  and  C_16 
REMARK       I    between atoms: C_13  and  N_14 
ROOT
HETATM    1  C   UNK N   1      -0.899  -0.090  -0.395  0.00  0.00     0.210 C 
ENDROOT
BRANCH   1   2
HETATM    2  N   UNK N   1       0.327   0.502   0.159  0.00  0.00    -0.372 N 
HETATM    3  H   UNK N   1       0.244   1.354   0.644  0.00  0.00     0.161 HD
BRANCH   2   4
HETATM    4  C   UNK N   1       1.644  -0.076   0.043  0.00  0.00     0.043 A 
HETATM    5  C   UNK N   1       2.825   0.711   0.183  0.00  0.00     0.036 A 
HETATM    6  C   UNK N   1       4.080   0.085   0.054  0.00  0.00     0.018 A 
HETATM    7  C   UNK N   1       4.186  -1.284  -0.181  0.00  0.00     0.008 A 
HETATM    8  C   UNK N   1       3.037  -2.054  -0.308  0.00  0.00    -0.060 A 
HETATM    9  C   UNK N   1       3.139  -3.519  -0.534  0.00  0.00     0.048 C 
HETATM   10  C   UNK N   1       1.786  -1.452  -0.209  0.00  0.00     0.037 A 
BRANCH   5  11
HETATM   11  C   UNK N   1       2.811   2.174   0.448  0.00  0.00     0.158 C 
HETATM   12  C   UNK N   1       4.084   2.961   0.441  0.00  0.00     0.097 C 
HETATM   13  O   UNK N   1       1.768   2.757   0.684  0.00  0.00    -0.293 OA
ENDBRANCH   5  11
ENDBRANCH   2   4
ENDBRANCH   1   2
BRANCH   1  14
HETATM   14  C   UNK N   1      -1.002  -1.524   0.061  0.00  0.00     0.242 C 
HETATM   15  N   UNK N   1      -0.984  -1.816   1.381  0.00  0.00    -0.368 N 
HETATM   16  H   UNK N   1      -1.162  -1.934   2.343  0.00  0.00     0.159 HD
HETATM   17  H   UNK N   1      -0.103  -2.256   1.381  0.00  0.00     0.159 HD
HETATM   18  O   UNK N   1      -1.030  -2.426  -0.758  0.00  0.00    -0.271 OA
ENDBRANCH   1  14
BRANCH   1  19
HETATM   19  C   UNK N   1      -2.157   0.775  -0.087  0.00  0.00     0.008 A 
HETATM   20  C   UNK N   1      -3.420   0.247   0.388  0.00  0.00     0.021 A 
HETATM   21 Br   UNK N   1      -3.900  -1.600   0.643  0.00  0.00    -0.050 Br
HETATM   22  C   UNK N   1      -4.492   1.109   0.626  0.00  0.00     0.020 A 
HETATM   23  C   UNK N   1      -4.387   2.472   0.416  0.00  0.00     0.003 A 
HETATM   24  C   UNK N   1      -3.209   2.998  -0.085  0.00  0.00     0.020 A 
HETATM   25  C   UNK N   1      -2.109   2.180  -0.348  0.00  0.00     0.021 A 
HETATM   26 Br   UNK N   1      -0.602   3.069  -1.122  0.00  0.00    -0.050 Br
ENDBRANCH   1  19
TORSDOF 5
