MODEL 1
REMARK VINA RESULT:      -6.5      0.000      0.000
REMARK  5 active torsions:
REMARK  status: ('A' for Active; 'I' for Inactive)
REMARK    1  A    between atoms: C_1  and  C_2 
REMARK    2  A    between atoms: C_10  and  N_11 
REMARK    3  A    between atoms: C_12  and  N_11 
REMARK    4  A    between atoms: C_12  and  C_13 
REMARK    5  A    between atoms: C_12  and  C_16 
REMARK       I    between atoms: C_13  and  N_14 
ROOT
HETATM    1  C   UNK N   1      29.800  16.560   5.885  0.00  0.00     0.210 C 
ENDROOT
BRANCH   1   2
HETATM    2  N   UNK N   1      29.348  17.236   4.661  0.00  0.00    -0.372 N 
HETATM    3  H   UNK N   1      29.866  17.086   3.838  0.00  0.00     0.161 HD
BRANCH   2   4
HETATM    4  C   UNK N   1      28.199  18.106   4.578  0.00  0.00     0.043 A 
HETATM    5  C   UNK N   1      27.044  17.753   3.820  0.00  0.00     0.036 A 
HETATM    6  C   UNK N   1      25.958  18.649   3.778  0.00  0.00     0.018 A 
HETATM    7  C   UNK N   1      25.984  19.853   4.479  0.00  0.00     0.008 A 
HETATM    8  C   UNK N   1      27.105  20.193   5.225  0.00  0.00    -0.060 A 
HETATM    9  C   UNK N   1      27.133  21.463   5.997  0.00  0.00     0.048 C 
HETATM   10  C   UNK N   1      28.199  19.334   5.261  0.00  0.00     0.037 A 
BRANCH   5  11
HETATM   11  C   UNK N   1      26.919  16.486   3.052  0.00  0.00     0.158 C 
HETATM   12  C   UNK N   1      25.575  15.879   2.799  0.00  0.00     0.097 C 
HETATM   13  O   UNK N   1      27.906  15.915   2.624  0.00  0.00    -0.293 OA
ENDBRANCH   5  11
ENDBRANCH   2   4
ENDBRANCH   1   2
BRANCH   1  14
HETATM   14  C   UNK N   1      29.697  15.068   5.690  0.00  0.00     0.242 C 
HETATM   15  N   UNK N   1      28.529  14.519   5.286  0.00  0.00    -0.368 N 
HETATM   16  H   UNK N   1      27.722  14.218   4.808  0.00  0.00     0.159 HD
HETATM   17  H   UNK N   1      28.329  14.060   6.134  0.00  0.00     0.159 HD
HETATM   18  O   UNK N   1      30.642  14.349   5.962  0.00  0.00    -0.271 OA
ENDBRANCH   1  14
BRANCH   1  19
HETATM   19  C   UNK N   1      31.205  17.054   6.341  0.00  0.00     0.008 A 
HETATM   20  C   UNK N   1      32.373  17.110   5.485  0.00  0.00     0.021 A 
HETATM   21 Br   UNK N   1      32.525  16.504   3.663  0.00  0.00    -0.050 Br
HETATM   22  C   UNK N   1      33.592  17.561   5.995  0.00  0.00     0.020 A 
HETATM   23  C   UNK N   1      33.724  17.959   7.313  0.00  0.00     0.003 A 
HETATM   24  C   UNK N   1      32.638  17.868   8.166  0.00  0.00     0.020 A 
HETATM   25  C   UNK N   1      31.399  17.417   7.710  0.00  0.00     0.021 A 
HETATM   26 Br   UNK N   1      30.043  17.272   9.052  0.00  0.00    -0.050 Br
ENDBRANCH   1  19
TORSDOF 5
ENDMDL
MODEL 2
REMARK VINA RESULT:      -6.5     11.029     13.192
REMARK  5 active torsions:
REMARK  status: ('A' for Active; 'I' for Inactive)
REMARK    1  A    between atoms: C_1  and  C_2 
REMARK    2  A    between atoms: C_10  and  N_11 
REMARK    3  A    between atoms: C_12  and  N_11 
REMARK    4  A    between atoms: C_12  and  C_13 
REMARK    5  A    between atoms: C_12  and  C_16 
REMARK       I    between atoms: C_13  and  N_14 
ROOT
HETATM    1  C   UNK N   1      28.376  23.936  -4.300  0.00  0.00     0.210 C 
ENDROOT
BRANCH   1   2
HETATM    2  N   UNK N   1      29.751  23.417  -4.336  0.00  0.00    -0.372 N 
HETATM    3  H   UNK N   1      30.452  23.953  -3.901  0.00  0.00     0.161 HD
BRANCH   2   4
HETATM    4  C   UNK N   1      30.147  22.180  -4.963  0.00  0.00     0.043 A 
HETATM    5  C   UNK N   1      31.149  21.338  -4.397  0.00  0.00     0.036 A 
HETATM    6  C   UNK N   1      31.492  20.145  -5.063  0.00  0.00     0.018 A 
HETATM    7  C   UNK N   1      30.855  19.764  -6.242  0.00  0.00     0.008 A 
HETATM    8  C   UNK N   1      29.871  20.578  -6.789  0.00  0.00    -0.060 A 
HETATM    9  C   UNK N   1      29.168  20.170  -8.033  0.00  0.00     0.048 C 
HETATM   10  C   UNK N   1      29.534  21.774  -6.162  0.00  0.00     0.037 A 
BRANCH   5  11
HETATM   11  C   UNK N   1      31.872  21.653  -3.137  0.00  0.00     0.158 C 
HETATM   12  C   UNK N   1      33.258  21.138  -2.906  0.00  0.00     0.097 C 
HETATM   13  O   UNK N   1      31.350  22.328  -2.268  0.00  0.00    -0.293 OA
ENDBRANCH   5  11
ENDBRANCH   2   4
ENDBRANCH   1   2
BRANCH   1  14
HETATM   14  C   UNK N   1      27.855  23.852  -2.887  0.00  0.00     0.242 C 
HETATM   15  N   UNK N   1      28.548  23.165  -1.951  0.00  0.00    -0.368 N 
HETATM   16  H   UNK N   1      29.195  22.823  -1.291  0.00  0.00     0.159 HD
HETATM   17  H   UNK N   1      27.897  22.432  -1.852  0.00  0.00     0.159 HD
HETATM   18  O   UNK N   1      26.776  24.341  -2.602  0.00  0.00    -0.271 OA
ENDBRANCH   1  14
BRANCH   1  19
HETATM   19  C   UNK N   1      28.267  25.350  -4.943  0.00  0.00     0.008 A 
HETATM   20  C   UNK N   1      29.199  26.434  -4.704  0.00  0.00     0.021 A 
HETATM   21 Br   UNK N   1      30.692  26.454  -3.489  0.00  0.00    -0.050 Br
HETATM   22  C   UNK N   1      29.006  27.670  -5.325  0.00  0.00     0.020 A 
HETATM   23  C   UNK N   1      27.935  27.898  -6.170  0.00  0.00     0.003 A 
HETATM   24  C   UNK N   1      27.002  26.897  -6.377  0.00  0.00     0.020 A 
HETATM   25  C   UNK N   1      27.142  25.645  -5.775  0.00  0.00     0.021 A 
HETATM   26 Br   UNK N   1      25.709  24.421  -6.103  0.00  0.00    -0.050 Br
ENDBRANCH   1  19
TORSDOF 5
ENDMDL
MODEL 3
REMARK VINA RESULT:      -6.5     11.042     12.233
REMARK  5 active torsions:
REMARK  status: ('A' for Active; 'I' for Inactive)
REMARK    1  A    between atoms: C_1  and  C_2 
REMARK    2  A    between atoms: C_10  and  N_11 
REMARK    3  A    between atoms: C_12  and  N_11 
REMARK    4  A    between atoms: C_12  and  C_13 
REMARK    5  A    between atoms: C_12  and  C_16 
REMARK       I    between atoms: C_13  and  N_14 
ROOT
HETATM    1  C   UNK N   1      29.558  24.103  -3.411  0.00  0.00     0.210 C 
ENDROOT
BRANCH   1   2
HETATM    2  N   UNK N   1      28.427  23.691  -4.254  0.00  0.00    -0.372 N 
HETATM    3  H   UNK N   1      28.393  22.752  -4.546  0.00  0.00     0.161 HD
BRANCH   2   4
HETATM    4  C   UNK N   1      27.361  24.563  -4.684  0.00  0.00     0.043 A 
HETATM    5  C   UNK N   1      26.540  24.249  -5.807  0.00  0.00     0.036 A 
HETATM    6  C   UNK N   1      25.519  25.147  -6.177  0.00  0.00     0.018 A 
HETATM    7  C   UNK N   1      25.285  26.314  -5.455  0.00  0.00     0.008 A 
HETATM    8  C   UNK N   1      26.077  26.617  -4.355  0.00  0.00    -0.060 A 
HETATM    9  C   UNK N   1      25.820  27.848  -3.563  0.00  0.00     0.048 C 
HETATM   10  C   UNK N   1      27.108  25.757  -3.986  0.00  0.00     0.037 A 
BRANCH   5  11
HETATM   11  C   UNK N   1      26.706  23.021  -6.629  0.00  0.00     0.158 C 
HETATM   12  C   UNK N   1      25.510  22.269  -7.123  0.00  0.00     0.097 C 
HETATM   13  O   UNK N   1      27.814  22.600  -6.908  0.00  0.00    -0.293 OA
ENDBRANCH   5  11
ENDBRANCH   2   4
ENDBRANCH   1   2
BRANCH   1  14
HETATM   14  C   UNK N   1      29.554  23.282  -2.146  0.00  0.00     0.242 C 
HETATM   15  N   UNK N   1      28.381  22.882  -1.604  0.00  0.00    -0.368 N 
HETATM   16  H   UNK N   1      27.516  22.466  -1.382  0.00  0.00     0.159 HD
HETATM   17  H   UNK N   1      28.433  23.454  -0.805  0.00  0.00     0.159 HD
HETATM   18  O   UNK N   1      30.601  23.037  -1.572  0.00  0.00    -0.271 OA
ENDBRANCH   1  14
BRANCH   1  19
HETATM   19  C   UNK N   1      30.907  24.079  -4.189  0.00  0.00     0.008 A 
HETATM   20  C   UNK N   1      31.511  22.887  -4.748  0.00  0.00     0.021 A 
HETATM   21 Br   UNK N   1      30.895  21.070  -4.584  0.00  0.00    -0.050 Br
HETATM   22  C   UNK N   1      32.730  22.972  -5.422  0.00  0.00     0.020 A 
HETATM   23  C   UNK N   1      33.393  24.177  -5.573  0.00  0.00     0.003 A 
HETATM   24  C   UNK N   1      32.864  25.324  -5.007  0.00  0.00     0.020 A 
HETATM   25  C   UNK N   1      31.652  25.293  -4.315  0.00  0.00     0.021 A 
HETATM   26 Br   UNK N   1      31.126  26.953  -3.524  0.00  0.00    -0.050 Br
ENDBRANCH   1  19
TORSDOF 5
ENDMDL
MODEL 4
REMARK VINA RESULT:      -6.4      5.527      8.362
REMARK  5 active torsions:
REMARK  status: ('A' for Active; 'I' for Inactive)
REMARK    1  A    between atoms: C_1  and  C_2 
REMARK    2  A    between atoms: C_10  and  N_11 
REMARK    3  A    between atoms: C_12  and  N_11 
REMARK    4  A    between atoms: C_12  and  C_13 
REMARK    5  A    between atoms: C_12  and  C_16 
REMARK       I    between atoms: C_13  and  N_14 
ROOT
HETATM    1  C   UNK N   1      23.036  16.177   4.796  0.00  0.00     0.210 C 
ENDROOT
BRANCH   1   2
HETATM    2  N   UNK N   1      22.877  17.623   5.009  0.00  0.00    -0.372 N 
HETATM    3  H   UNK N   1      22.245  17.916   5.704  0.00  0.00     0.161 HD
BRANCH   2   4
HETATM    4  C   UNK N   1      23.580  18.645   4.272  0.00  0.00     0.043 A 
HETATM    5  C   UNK N   1      22.890  19.613   3.485  0.00  0.00     0.036 A 
HETATM    6  C   UNK N   1      23.638  20.581   2.786  0.00  0.00     0.018 A 
HETATM    7  C   UNK N   1      25.028  20.623   2.871  0.00  0.00     0.008 A 
HETATM    8  C   UNK N   1      25.701  19.687   3.645  0.00  0.00    -0.060 A 
HETATM    9  C   UNK N   1      27.181  19.738   3.763  0.00  0.00     0.048 C 
HETATM   10  C   UNK N   1      24.984  18.706   4.324  0.00  0.00     0.037 A 
BRANCH   5  11
HETATM   11  C   UNK N   1      21.411  19.656   3.345  0.00  0.00     0.158 C 
HETATM   12  C   UNK N   1      20.760  19.339   2.035  0.00  0.00     0.097 C 
HETATM   13  O   UNK N   1      20.702  19.956   4.289  0.00  0.00    -0.293 OA
ENDBRANCH   5  11
ENDBRANCH   2   4
ENDBRANCH   1   2
BRANCH   1  14
HETATM   14  C   UNK N   1      22.579  15.445   6.033  0.00  0.00     0.242 C 
HETATM   15  N   UNK N   1      22.649  14.096   6.084  0.00  0.00    -0.368 N 
HETATM   16  H   UNK N   1      22.911  13.147   6.125  0.00  0.00     0.159 HD
HETATM   17  H   UNK N   1      21.677  13.938   6.068  0.00  0.00     0.159 HD
HETATM   18  O   UNK N   1      22.081  16.060   6.959  0.00  0.00    -0.271 OA
ENDBRANCH   1  14
BRANCH   1  19
HETATM   19  C   UNK N   1      22.354  15.702   3.479  0.00  0.00     0.008 A 
HETATM   20  C   UNK N   1      20.936  15.807   3.204  0.00  0.00     0.021 A 
HETATM   21 Br   UNK N   1      19.552  16.428   4.390  0.00  0.00    -0.050 Br
HETATM   22  C   UNK N   1      20.423  15.341   1.992  0.00  0.00     0.020 A 
HETATM   23  C   UNK N   1      21.237  14.770   1.031  0.00  0.00     0.003 A 
HETATM   24  C   UNK N   1      22.588  14.611   1.287  0.00  0.00     0.020 A 
HETATM   25  C   UNK N   1      23.152  15.052   2.486  0.00  0.00     0.021 A 
HETATM   26 Br   UNK N   1      25.013  14.665   2.699  0.00  0.00    -0.050 Br
ENDBRANCH   1  19
TORSDOF 5
ENDMDL
MODEL 5
REMARK VINA RESULT:      -6.3     12.244     14.761
REMARK  5 active torsions:
REMARK  status: ('A' for Active; 'I' for Inactive)
REMARK    1  A    between atoms: C_1  and  C_2 
REMARK    2  A    between atoms: C_10  and  N_11 
REMARK    3  A    between atoms: C_12  and  N_11 
REMARK    4  A    between atoms: C_12  and  C_13 
REMARK    5  A    between atoms: C_12  and  C_16 
REMARK       I    between atoms: C_13  and  N_14 
ROOT
HETATM    1  C   UNK N   1      26.665  23.774  -6.150  0.00  0.00     0.210 C 
ENDROOT
BRANCH   1   2
HETATM    2  N   UNK N   1      28.118  23.808  -5.932  0.00  0.00    -0.372 N 
HETATM    3  H   UNK N   1      28.542  24.688  -5.811  0.00  0.00     0.161 HD
BRANCH   2   4
HETATM    4  C   UNK N   1      28.969  22.644  -5.882  0.00  0.00     0.043 A 
HETATM    5  C   UNK N   1      29.868  22.416  -4.798  0.00  0.00     0.036 A 
HETATM    6  C   UNK N   1      30.674  21.261  -4.813  0.00  0.00     0.018 A 
HETATM    7  C   UNK N   1      30.590  20.333  -5.847  0.00  0.00     0.008 A 
HETATM    8  C   UNK N   1      29.708  20.548  -6.899  0.00  0.00    -0.060 A 
HETATM    9  C   UNK N   1      29.593  19.551  -7.995  0.00  0.00     0.048 C 
HETATM   10  C   UNK N   1      28.920  21.695  -6.917  0.00  0.00     0.037 A 
BRANCH   5  11
HETATM   11  C   UNK N   1      30.016  23.343  -3.645  0.00  0.00     0.158 C 
HETATM   12  C   UNK N   1      30.486  22.837  -2.317  0.00  0.00     0.097 C 
HETATM   13  O   UNK N   1      29.751  24.527  -3.755  0.00  0.00    -0.293 OA
ENDBRANCH   5  11
ENDBRANCH   2   4
ENDBRANCH   1   2
BRANCH   1  14
HETATM   14  C   UNK N   1      25.975  24.398  -4.962  0.00  0.00     0.242 C 
HETATM   15  N   UNK N   1      26.608  24.459  -3.769  0.00  0.00    -0.368 N 
HETATM   16  H   UNK N   1      27.194  24.646  -2.999  0.00  0.00     0.159 HD
HETATM   17  H   UNK N   1      26.031  23.808  -3.308  0.00  0.00     0.159 HD
HETATM   18  O   UNK N   1      24.823  24.782  -5.056  0.00  0.00    -0.271 OA
ENDBRANCH   1  14
BRANCH   1  19
HETATM   19  C   UNK N   1      26.265  24.391  -7.523  0.00  0.00     0.008 A 
HETATM   20  C   UNK N   1      26.442  25.785  -7.879  0.00  0.00     0.021 A 
HETATM   21 Br   UNK N   1      27.082  27.212  -6.758  0.00  0.00    -0.050 Br
HETATM   22  C   UNK N   1      26.041  26.240  -9.136  0.00  0.00     0.020 A 
HETATM   23  C   UNK N   1      25.467  25.391 -10.066  0.00  0.00     0.003 A 
HETATM   24  C   UNK N   1      25.240  24.067  -9.735  0.00  0.00     0.020 A 
HETATM   25  C   UNK N   1      25.615  23.562  -8.489  0.00  0.00     0.021 A 
HETATM   26 Br   UNK N   1      25.139  21.735  -8.176  0.00  0.00    -0.050 Br
ENDBRANCH   1  19
TORSDOF 5
ENDMDL
MODEL 6
REMARK VINA RESULT:      -6.2      6.611      9.149
REMARK  5 active torsions:
REMARK  status: ('A' for Active; 'I' for Inactive)
REMARK    1  A    between atoms: C_1  and  C_2 
REMARK    2  A    between atoms: C_10  and  N_11 
REMARK    3  A    between atoms: C_12  and  N_11 
REMARK    4  A    between atoms: C_12  and  C_13 
REMARK    5  A    between atoms: C_12  and  C_16 
REMARK       I    between atoms: C_13  and  N_14 
ROOT
HETATM    1  C   UNK N   1      21.803  17.021   4.383  0.00  0.00     0.210 C 
ENDROOT
BRANCH   1   2
HETATM    2  N   UNK N   1      21.272  17.240   5.736  0.00  0.00    -0.372 N 
HETATM    3  H   UNK N   1      20.866  18.115   5.931  0.00  0.00     0.161 HD
BRANCH   2   4
HETATM    4  C   UNK N   1      21.303  16.265   6.799  0.00  0.00     0.043 A 
HETATM    5  C   UNK N   1      20.681  16.507   8.059  0.00  0.00     0.036 A 
HETATM    6  C   UNK N   1      20.752  15.515   9.056  0.00  0.00     0.018 A 
HETATM    7  C   UNK N   1      21.393  14.300   8.824  0.00  0.00     0.008 A 
HETATM    8  C   UNK N   1      21.990  14.058   7.594  0.00  0.00    -0.060 A 
HETATM    9  C   UNK N   1      22.654  12.755   7.327  0.00  0.00     0.048 C 
HETATM   10  C   UNK N   1      21.954  15.034   6.603  0.00  0.00     0.037 A 
BRANCH   5  11
HETATM   11  C   UNK N   1      19.964  17.766   8.394  0.00  0.00     0.158 C 
HETATM   12  C   UNK N   1      18.671  17.729   9.145  0.00  0.00     0.097 C 
HETATM   13  O   UNK N   1      20.410  18.848   8.056  0.00  0.00    -0.293 OA
ENDBRANCH   5  11
ENDBRANCH   2   4
ENDBRANCH   1   2
BRANCH   1  14
HETATM   14  C   UNK N   1      20.651  16.833   3.427  0.00  0.00     0.242 C 
HETATM   15  N   UNK N   1      19.380  16.859   3.888  0.00  0.00    -0.368 N 
HETATM   16  H   UNK N   1      18.494  17.085   4.256  0.00  0.00     0.159 HD
HETATM   17  H   UNK N   1      19.192  15.904   3.736  0.00  0.00     0.159 HD
HETATM   18  O   UNK N   1      20.864  16.588   2.253  0.00  0.00    -0.271 OA
ENDBRANCH   1  14
BRANCH   1  19
HETATM   19  C   UNK N   1      22.812  18.131   3.964  0.00  0.00     0.008 A 
HETATM   20  C   UNK N   1      22.435  19.460   3.526  0.00  0.00     0.021 A 
HETATM   21 Br   UNK N   1      20.658  20.145   3.243  0.00  0.00    -0.050 Br
HETATM   22  C   UNK N   1      23.420  20.381   3.163  0.00  0.00     0.020 A 
HETATM   23  C   UNK N   1      24.764  20.059   3.205  0.00  0.00     0.003 A 
HETATM   24  C   UNK N   1      25.151  18.781   3.571  0.00  0.00     0.020 A 
HETATM   25  C   UNK N   1      24.207  17.820   3.936  0.00  0.00     0.021 A 
HETATM   26 Br   UNK N   1      24.920  16.087   4.321  0.00  0.00    -0.050 Br
ENDBRANCH   1  19
TORSDOF 5
ENDMDL
MODEL 7
REMARK VINA RESULT:      -6.2     14.190     16.985
REMARK  5 active torsions:
REMARK  status: ('A' for Active; 'I' for Inactive)
REMARK    1  A    between atoms: C_1  and  C_2 
REMARK    2  A    between atoms: C_10  and  N_11 
REMARK    3  A    between atoms: C_12  and  N_11 
REMARK    4  A    between atoms: C_12  and  C_13 
REMARK    5  A    between atoms: C_12  and  C_16 
REMARK       I    between atoms: C_13  and  N_14 
ROOT
HETATM    1  C   UNK N   1      35.319   9.547  19.799  0.00  0.00     0.210 C 
ENDROOT
BRANCH   1   2
HETATM    2  N   UNK N   1      35.139  10.926  19.322  0.00  0.00    -0.372 N 
HETATM    3  H   UNK N   1      35.038  11.634  19.998  0.00  0.00     0.161 HD
BRANCH   2   4
HETATM    4  C   UNK N   1      35.099  11.316  17.933  0.00  0.00     0.043 A 
HETATM    5  C   UNK N   1      35.157  12.685  17.536  0.00  0.00     0.036 A 
HETATM    6  C   UNK N   1      35.109  12.998  16.163  0.00  0.00     0.018 A 
HETATM    7  C   UNK N   1      35.032  12.000  15.195  0.00  0.00     0.008 A 
HETATM    8  C   UNK N   1      34.984  10.666  15.579  0.00  0.00    -0.060 A 
HETATM    9  C   UNK N   1      34.927   9.593  14.554  0.00  0.00     0.048 C 
HETATM   10  C   UNK N   1      35.005  10.334  16.931  0.00  0.00     0.037 A 
BRANCH   5  11
HETATM   11  C   UNK N   1      35.254  13.816  18.495  0.00  0.00     0.158 C 
HETATM   12  C   UNK N   1      35.839  15.127  18.071  0.00  0.00     0.097 C 
HETATM   13  O   UNK N   1      34.869  13.696  19.645  0.00  0.00    -0.293 OA
ENDBRANCH   5  11
ENDBRANCH   2   4
ENDBRANCH   1   2
BRANCH   1  14
HETATM   14  C   UNK N   1      36.203   9.562  21.021  0.00  0.00     0.242 C 
HETATM   15  N   UNK N   1      36.778  10.717  21.425  0.00  0.00    -0.368 N 
HETATM   16  H   UNK N   1      36.996  11.614  21.769  0.00  0.00     0.159 HD
HETATM   17  H   UNK N   1      37.702  10.460  21.202  0.00  0.00     0.159 HD
HETATM   18  O   UNK N   1      36.457   8.522  21.604  0.00  0.00    -0.271 OA
ENDBRANCH   1  14
BRANCH   1  19
HETATM   19  C   UNK N   1      33.959   8.814  19.997  0.00  0.00     0.008 A 
HETATM   20  C   UNK N   1      32.914   9.253  20.900  0.00  0.00     0.021 A 
HETATM   21 Br   UNK N   1      32.970  10.731  22.132  0.00  0.00    -0.050 Br
HETATM   22  C   UNK N   1      31.733   8.518  21.010  0.00  0.00     0.020 A 
HETATM   23  C   UNK N   1      31.525   7.364  20.277  0.00  0.00     0.003 A 
HETATM   24  C   UNK N   1      32.526   6.894  19.444  0.00  0.00     0.020 A 
HETATM   25  C   UNK N   1      33.730   7.585  19.303  0.00  0.00     0.021 A 
HETATM   26 Br   UNK N   1      35.028   6.737  18.181  0.00  0.00    -0.050 Br
ENDBRANCH   1  19
TORSDOF 5
ENDMDL
MODEL 8
REMARK VINA RESULT:      -6.1     11.959     13.559
REMARK  5 active torsions:
REMARK  status: ('A' for Active; 'I' for Inactive)
REMARK    1  A    between atoms: C_1  and  C_2 
REMARK    2  A    between atoms: C_10  and  N_11 
REMARK    3  A    between atoms: C_12  and  N_11 
REMARK    4  A    between atoms: C_12  and  C_13 
REMARK    5  A    between atoms: C_12  and  C_16 
REMARK       I    between atoms: C_13  and  N_14 
ROOT
HETATM    1  C   UNK N   1      28.317  24.317  -4.613  0.00  0.00     0.210 C 
ENDROOT
BRANCH   1   2
HETATM    2  N   UNK N   1      28.254  25.285  -5.717  0.00  0.00    -0.372 N 
HETATM    3  H   UNK N   1      28.207  24.931  -6.634  0.00  0.00     0.161 HD
BRANCH   2   4
HETATM    4  C   UNK N   1      28.258  26.719  -5.554  0.00  0.00     0.043 A 
HETATM    5  C   UNK N   1      27.106  27.510  -5.838  0.00  0.00     0.036 A 
HETATM    6  C   UNK N   1      27.177  28.905  -5.661  0.00  0.00     0.018 A 
HETATM    7  C   UNK N   1      28.338  29.518  -5.193  0.00  0.00     0.008 A 
HETATM    8  C   UNK N   1      29.458  28.748  -4.906  0.00  0.00    -0.060 A 
HETATM    9  C   UNK N   1      30.692  29.388  -4.383  0.00  0.00     0.048 C 
HETATM   10  C   UNK N   1      29.417  27.370  -5.097  0.00  0.00     0.037 A 
BRANCH   5  11
HETATM   11  C   UNK N   1      25.821  26.944  -6.328  0.00  0.00     0.158 C 
HETATM   12  C   UNK N   1      24.533  27.274  -5.641  0.00  0.00     0.097 C 
HETATM   13  O   UNK N   1      25.792  26.197  -7.289  0.00  0.00    -0.293 OA
ENDBRANCH   5  11
ENDBRANCH   2   4
ENDBRANCH   1   2
BRANCH   1  14
HETATM   14  C   UNK N   1      26.924  24.081  -4.086  0.00  0.00     0.242 C 
HETATM   15  N   UNK N   1      25.889  23.955  -4.947  0.00  0.00    -0.368 N 
HETATM   16  H   UNK N   1      25.229  23.680  -5.625  0.00  0.00     0.159 HD
HETATM   17  H   UNK N   1      25.448  24.803  -4.708  0.00  0.00     0.159 HD
HETATM   18  O   UNK N   1      26.717  24.074  -2.885  0.00  0.00    -0.271 OA
ENDBRANCH   1  14
BRANCH   1  19
HETATM   19  C   UNK N   1      29.081  23.020  -5.016  0.00  0.00     0.008 A 
HETATM   20  C   UNK N   1      28.933  22.341  -6.287  0.00  0.00     0.021 A 
HETATM   21 Br   UNK N   1      27.716  22.773  -7.715  0.00  0.00    -0.050 Br
HETATM   22  C   UNK N   1      29.659  21.177  -6.546  0.00  0.00     0.020 A 
HETATM   23  C   UNK N   1      30.526  20.641  -5.612  0.00  0.00     0.003 A 
HETATM   24  C   UNK N   1      30.650  21.240  -4.371  0.00  0.00     0.020 A 
HETATM   25  C   UNK N   1      29.941  22.400  -4.056  0.00  0.00     0.021 A 
HETATM   26 Br   UNK N   1      30.169  23.032  -2.265  0.00  0.00    -0.050 Br
ENDBRANCH   1  19
TORSDOF 5
ENDMDL
MODEL 9
REMARK VINA RESULT:      -6.1      2.908      5.867
REMARK  5 active torsions:
REMARK  status: ('A' for Active; 'I' for Inactive)
REMARK    1  A    between atoms: C_1  and  C_2 
REMARK    2  A    between atoms: C_10  and  N_11 
REMARK    3  A    between atoms: C_12  and  N_11 
REMARK    4  A    between atoms: C_12  and  C_13 
REMARK    5  A    between atoms: C_12  and  C_16 
REMARK       I    between atoms: C_13  and  N_14 
ROOT
HETATM    1  C   UNK N   1      30.855  16.737   4.108  0.00  0.00     0.210 C 
ENDROOT
BRANCH   1   2
HETATM    2  N   UNK N   1      31.261  16.233   5.428  0.00  0.00    -0.372 N 
HETATM    3  H   UNK N   1      31.683  15.345   5.467  0.00  0.00     0.161 HD
BRANCH   2   4
HETATM    4  C   UNK N   1      31.084  16.945   6.670  0.00  0.00     0.043 A 
HETATM    5  C   UNK N   1      32.194  17.447   7.412  0.00  0.00     0.036 A 
HETATM    6  C   UNK N   1      31.952  18.130   8.620  0.00  0.00     0.018 A 
HETATM    7  C   UNK N   1      30.656  18.344   9.085  0.00  0.00     0.008 A 
HETATM    8  C   UNK N   1      29.574  17.865   8.358  0.00  0.00    -0.060 A 
HETATM    9  C   UNK N   1      28.187  18.109   8.832  0.00  0.00     0.048 C 
HETATM   10  C   UNK N   1      29.791  17.165   7.174  0.00  0.00     0.037 A 
BRANCH   5  11
HETATM   11  C   UNK N   1      33.609  17.279   6.989  0.00  0.00     0.158 C 
HETATM   12  C   UNK N   1      34.533  16.388   7.759  0.00  0.00     0.097 C 
HETATM   13  O   UNK N   1      34.045  17.869   6.017  0.00  0.00    -0.293 OA
ENDBRANCH   5  11
ENDBRANCH   2   4
ENDBRANCH   1   2
BRANCH   1  14
HETATM   14  C   UNK N   1      32.047  16.712   3.184  0.00  0.00     0.242 C 
HETATM   15  N   UNK N   1      33.247  16.286   3.641  0.00  0.00    -0.368 N 
HETATM   16  H   UNK N   1      34.025  15.786   3.980  0.00  0.00     0.159 HD
HETATM   17  H   UNK N   1      33.692  17.164   3.606  0.00  0.00     0.159 HD
HETATM   18  O   UNK N   1      31.950  17.140   2.048  0.00  0.00    -0.271 OA
ENDBRANCH   1  14
BRANCH   1  19
HETATM   19  C   UNK N   1      29.600  15.996   3.559  0.00  0.00     0.008 A 
HETATM   20  C   UNK N   1      29.616  14.662   2.996  0.00  0.00     0.021 A 
HETATM   21 Br   UNK N   1      31.147  13.538   2.678  0.00  0.00    -0.050 Br
HETATM   22  C   UNK N   1      28.434  14.090   2.522  0.00  0.00     0.020 A 
HETATM   23  C   UNK N   1      27.229  14.768   2.571  0.00  0.00     0.003 A 
HETATM   24  C   UNK N   1      27.193  16.063   3.058  0.00  0.00     0.020 A 
HETATM   25  C   UNK N   1      28.347  16.686   3.536  0.00  0.00     0.021 A 
HETATM   26 Br   UNK N   1      28.122  18.505   4.083  0.00  0.00    -0.050 Br
ENDBRANCH   1  19
TORSDOF 5
ENDMDL
