MODEL 1
REMARK VINA RESULT:      -7.9      0.000      0.000
REMARK  8 active torsions:
REMARK  status: ('A' for Active; 'I' for Inactive)
REMARK    1  A    between atoms: C_2  and  C_1 
REMARK       I    between atoms: C_1  and  N_9 
REMARK    2  A    between atoms: C_5  and  C_6 
REMARK    3  A    between atoms: C_6  and  N_15 
REMARK    4  A    between atoms: C_10  and  C_14 
REMARK    5  A    between atoms: C_14  and  N_18 
REMARK       I    between atoms: N_15  and  C_16 
REMARK       I    between atoms: C_16  and  N_19 
REMARK    6  A    between atoms: N_19  and  C_20 
REMARK    7  A    between atoms: C_23  and  C_26 
REMARK    8  A    between atoms: C_26  and  O_28 
ROOT
HETATM    1  C   UNK N   1      35.646  15.057   9.555  0.00  0.00     0.170 C 
HETATM    2  C   UNK N   1      34.693  13.951   9.954  0.00  0.00     0.036 C 
HETATM    3  C   UNK N   1      35.591  13.067  10.771  0.00  0.00     0.029 C 
HETATM    4  C   UNK N   1      36.442  14.069  11.520  0.00  0.00     0.095 C 
HETATM    5  N   UNK N   1      36.550  15.264  10.685  0.00  0.00    -0.404 N 
HETATM    6  H   UNK N   1      37.139  16.080  10.858  0.00  0.00     0.154 HD
ENDROOT
BRANCH   4   7
HETATM    7  C   UNK N   1      35.744  14.426  12.826  0.00  0.00     0.149 C 
BRANCH   7   8
HETATM    8  N   UNK N   1      36.692  14.849  13.829  0.00  0.00    -0.341 N 
HETATM    9  C   UNK N   1      36.755  14.261  15.046  0.00  0.00     0.320 C 
HETATM   10  O   UNK N   1      37.536  14.698  15.876  0.00  0.00    -0.247 OA
HETATM   11  N   UNK N   1      35.952  13.197  15.333  0.00  0.00    -0.309 N 
HETATM   12  H   UNK N   1      35.422  12.821  14.592  0.00  0.00     0.170 HD
HETATM   13  H   UNK N   1      37.310  15.586  13.622  0.00  0.00     0.164 HD
BRANCH  11  14
HETATM   14  C   UNK N   1      35.810  12.581  16.607  0.00  0.00     0.036 A 
HETATM   15  C   UNK N   1      36.154  11.232  16.751  0.00  0.00     0.030 A 
HETATM   16  C   UNK N   1      35.947  10.576  17.968  0.00  0.00     0.020 A 
HETATM   17  C   UNK N   1      35.377  11.262  19.051  0.00  0.00     0.039 A 
HETATM   18  C   UNK N   1      35.037  12.612  18.907  0.00  0.00     0.020 A 
HETATM   19  C   UNK N   1      35.252  13.267  17.696  0.00  0.00     0.030 A 
BRANCH  17  20
HETATM   20  C   UNK N   1      35.100  10.570  20.324  0.00  0.00     0.292 C 
HETATM   21  O   UNK N   1      36.026  10.232  21.051  0.00  0.00    -0.259 OA
BRANCH  20  22
HETATM   22  O   UNK N   1      33.817  10.292  20.666  0.00  0.00    -0.323 OA
HETATM   23  C   UNK N   1      33.308  10.566  21.913  0.00  0.00     0.213 C 
ENDBRANCH  20  22
ENDBRANCH  17  20
ENDBRANCH  11  14
ENDBRANCH   7   8
ENDBRANCH   4   7
BRANCH   1  24
HETATM   24  C   UNK N   1      34.927  16.333   9.171  0.00  0.00     0.242 C 
HETATM   25  O   UNK N   1      34.803  17.220  10.007  0.00  0.00    -0.271 OA
HETATM   26  N   UNK N   1      34.454  16.525   7.901  0.00  0.00    -0.344 N 
HETATM   27  C   UNK N   1      33.855  17.761   7.460  0.00  0.00     0.104 C 
HETATM   28  C   UNK N   1      34.602  15.536   6.869  0.00  0.00     0.126 C 
HETATM   29  C   UNK N   1      33.479  17.511   6.008  0.00  0.00     0.028 C 
HETATM   30  C   UNK N   1      34.214  16.244   5.586  0.00  0.00     0.022 C 
BRANCH  27  31
HETATM   31  C   UNK N   1      32.606  18.112   8.264  0.00  0.00     0.136 C 
BRANCH  31  32
HETATM   32  N   UNK N   1      31.535  17.174   7.967  0.00  0.00    -0.428 N 
HETATM   33  H   UNK N   1      30.596  17.329   8.334  0.00  0.00     0.149 HD
HETATM   34  H   UNK N   1      31.724  16.356   7.387  0.00  0.00     0.149 HD
ENDBRANCH  31  32
ENDBRANCH  27  31
ENDBRANCH   1  24
TORSDOF 8
ENDMDL
MODEL 2
REMARK VINA RESULT:      -7.5      3.513     10.888
REMARK  8 active torsions:
REMARK  status: ('A' for Active; 'I' for Inactive)
REMARK    1  A    between atoms: C_2  and  C_1 
REMARK       I    between atoms: C_1  and  N_9 
REMARK    2  A    between atoms: C_5  and  C_6 
REMARK    3  A    between atoms: C_6  and  N_15 
REMARK    4  A    between atoms: C_10  and  C_14 
REMARK    5  A    between atoms: C_14  and  N_18 
REMARK       I    between atoms: N_15  and  C_16 
REMARK       I    between atoms: C_16  and  N_19 
REMARK    6  A    between atoms: N_19  and  C_20 
REMARK    7  A    between atoms: C_23  and  C_26 
REMARK    8  A    between atoms: C_26  and  O_28 
ROOT
HETATM    1  C   UNK N   1      35.391  13.154  11.419  0.00  0.00     0.170 C 
HETATM    2  C   UNK N   1      36.686  13.903  11.187  0.00  0.00     0.036 C 
HETATM    3  C   UNK N   1      36.445  14.499   9.830  0.00  0.00     0.029 C 
HETATM    4  C   UNK N   1      34.983  14.884   9.898  0.00  0.00     0.095 C 
HETATM    5  N   UNK N   1      34.326  13.955  10.816  0.00  0.00    -0.404 N 
HETATM    6  H   UNK N   1      33.325  13.881  11.000  0.00  0.00     0.154 HD
ENDROOT
BRANCH   4   7
HETATM    7  C   UNK N   1      34.874  16.300  10.449  0.00  0.00     0.149 C 
BRANCH   7   8
HETATM    8  N   UNK N   1      34.980  17.282   9.396  0.00  0.00    -0.341 N 
HETATM    9  C   UNK N   1      33.896  17.714   8.710  0.00  0.00     0.320 C 
HETATM   10  O   UNK N   1      34.053  18.502   7.790  0.00  0.00    -0.247 OA
HETATM   11  N   UNK N   1      32.653  17.270   9.047  0.00  0.00    -0.309 N 
HETATM   12  H   UNK N   1      32.577  16.722   9.862  0.00  0.00     0.170 HD
HETATM   13  H   UNK N   1      35.865  17.648   9.171  0.00  0.00     0.164 HD
BRANCH  11  14
HETATM   14  C   UNK N   1      31.454  17.525   8.325  0.00  0.00     0.036 A 
HETATM   15  C   UNK N   1      30.479  18.351   8.897  0.00  0.00     0.030 A 
HETATM   16  C   UNK N   1      29.256  18.553   8.251  0.00  0.00     0.020 A 
HETATM   17  C   UNK N   1      28.990  17.916   7.030  0.00  0.00     0.039 A 
HETATM   18  C   UNK N   1      29.966  17.094   6.456  0.00  0.00     0.020 A 
HETATM   19  C   UNK N   1      31.189  16.900   7.098  0.00  0.00     0.030 A 
BRANCH  17  20
HETATM   20  C   UNK N   1      27.684  18.074   6.363  0.00  0.00     0.292 C 
HETATM   21  O   UNK N   1      27.008  17.088   6.098  0.00  0.00    -0.259 OA
BRANCH  20  22
HETATM   22  O   UNK N   1      27.254  19.316   6.025  0.00  0.00    -0.323 OA
HETATM   23  C   UNK N   1      27.812  20.036   4.996  0.00  0.00     0.213 C 
ENDBRANCH  20  22
ENDBRANCH  17  20
ENDBRANCH  11  14
ENDBRANCH   7   8
ENDBRANCH   4   7
BRANCH   1  24
HETATM   24  C   UNK N   1      35.129  12.886  12.886  0.00  0.00     0.242 C 
HETATM   25  O   UNK N   1      34.884  13.829  13.628  0.00  0.00    -0.271 OA
HETATM   26  N   UNK N   1      35.122  11.611  13.382  0.00  0.00    -0.344 N 
HETATM   27  C   UNK N   1      34.777  11.297  14.747  0.00  0.00     0.104 C 
HETATM   28  C   UNK N   1      35.367  10.462  12.553  0.00  0.00     0.126 C 
HETATM   29  C   UNK N   1      34.913   9.785  14.842  0.00  0.00     0.028 C 
HETATM   30  C   UNK N   1      34.988   9.270  13.410  0.00  0.00     0.022 C 
BRANCH  27  31
HETATM   31  C   UNK N   1      35.720  11.964  15.744  0.00  0.00     0.136 C 
BRANCH  31  32
HETATM   32  N   UNK N   1      34.996  12.930  16.555  0.00  0.00    -0.428 N 
HETATM   33  H   UNK N   1      34.267  12.621  17.198  0.00  0.00     0.149 HD
HETATM   34  H   UNK N   1      35.218  13.923  16.479  0.00  0.00     0.149 HD
ENDBRANCH  31  32
ENDBRANCH  27  31
ENDBRANCH   1  24
TORSDOF 8
ENDMDL
MODEL 3
REMARK VINA RESULT:      -7.5      7.124     11.629
REMARK  8 active torsions:
REMARK  status: ('A' for Active; 'I' for Inactive)
REMARK    1  A    between atoms: C_2  and  C_1 
REMARK       I    between atoms: C_1  and  N_9 
REMARK    2  A    between atoms: C_5  and  C_6 
REMARK    3  A    between atoms: C_6  and  N_15 
REMARK    4  A    between atoms: C_10  and  C_14 
REMARK    5  A    between atoms: C_14  and  N_18 
REMARK       I    between atoms: N_15  and  C_16 
REMARK       I    between atoms: C_16  and  N_19 
REMARK    6  A    between atoms: N_19  and  C_20 
REMARK    7  A    between atoms: C_23  and  C_26 
REMARK    8  A    between atoms: C_26  and  O_28 
ROOT
HETATM    1  C   UNK N   1      25.576  19.509   4.638  0.00  0.00     0.170 C 
HETATM    2  C   UNK N   1      26.724  18.830   3.925  0.00  0.00     0.036 C 
HETATM    3  C   UNK N   1      27.907  19.512   4.549  0.00  0.00     0.029 C 
HETATM    4  C   UNK N   1      27.476  19.653   5.993  0.00  0.00     0.095 C 
HETATM    5  N   UNK N   1      26.018  19.759   6.008  0.00  0.00    -0.404 N 
HETATM    6  H   UNK N   1      25.428  19.967   6.815  0.00  0.00     0.154 HD
ENDROOT
BRANCH   4   7
HETATM    7  C   UNK N   1      27.899  18.403   6.755  0.00  0.00     0.149 C 
BRANCH   7   8
HETATM    8  N   UNK N   1      28.279  18.719   8.112  0.00  0.00    -0.341 N 
HETATM    9  C   UNK N   1      29.498  18.398   8.606  0.00  0.00     0.320 C 
HETATM   10  O   UNK N   1      29.744  18.637   9.777  0.00  0.00    -0.247 OA
HETATM   11  N   UNK N   1      30.429  17.814   7.800  0.00  0.00    -0.309 N 
HETATM   12  H   UNK N   1      30.214  17.745   6.841  0.00  0.00     0.170 HD
HETATM   13  H   UNK N   1      27.635  19.182   8.693  0.00  0.00     0.164 HD
BRANCH  11  14
HETATM   14  C   UNK N   1      31.686  17.295   8.220  0.00  0.00     0.036 A 
HETATM   15  C   UNK N   1      31.734  16.025   8.804  0.00  0.00     0.030 A 
HETATM   16  C   UNK N   1      32.939  15.523   9.304  0.00  0.00     0.020 A 
HETATM   17  C   UNK N   1      34.107  16.296   9.239  0.00  0.00     0.039 A 
HETATM   18  C   UNK N   1      34.059  17.565   8.651  0.00  0.00     0.020 A 
HETATM   19  C   UNK N   1      32.858  18.061   8.145  0.00  0.00     0.030 A 
BRANCH  17  20
HETATM   20  C   UNK N   1      35.374  15.804   9.811  0.00  0.00     0.292 C 
HETATM   21  O   UNK N   1      36.071  16.550  10.489  0.00  0.00    -0.259 OA
BRANCH  20  22
HETATM   22  O   UNK N   1      35.770  14.531   9.559  0.00  0.00    -0.323 OA
HETATM   23  C   UNK N   1      37.087  14.191   9.367  0.00  0.00     0.213 C 
ENDBRANCH  20  22
ENDBRANCH  17  20
ENDBRANCH  11  14
ENDBRANCH   7   8
ENDBRANCH   4   7
BRANCH   1  24
HETATM   24  C   UNK N   1      24.303  18.689   4.601  0.00  0.00     0.242 C 
HETATM   25  O   UNK N   1      24.224  17.681   5.292  0.00  0.00    -0.271 OA
HETATM   26  N   UNK N   1      23.232  19.079   3.842  0.00  0.00    -0.344 N 
HETATM   27  C   UNK N   1      21.965  18.390   3.853  0.00  0.00     0.104 C 
HETATM   28  C   UNK N   1      23.253  20.270   3.039  0.00  0.00     0.126 C 
HETATM   29  C   UNK N   1      21.098  19.160   2.870  0.00  0.00     0.028 C 
HETATM   30  C   UNK N   1      21.814  20.479   2.607  0.00  0.00     0.022 C 
BRANCH  27  31
HETATM   31  C   UNK N   1      22.097  16.938   3.400  0.00  0.00     0.136 C 
BRANCH  31  32
HETATM   32  N   UNK N   1      21.694  16.038   4.468  0.00  0.00    -0.428 N 
HETATM   33  H   UNK N   1      21.633  15.033   4.300  0.00  0.00     0.149 HD
HETATM   34  H   UNK N   1      21.471  16.412   5.390  0.00  0.00     0.149 HD
ENDBRANCH  31  32
ENDBRANCH  27  31
ENDBRANCH   1  24
TORSDOF 8
ENDMDL
MODEL 4
REMARK VINA RESULT:      -7.3     20.178     23.478
REMARK  8 active torsions:
REMARK  status: ('A' for Active; 'I' for Inactive)
REMARK    1  A    between atoms: C_2  and  C_1 
REMARK       I    between atoms: C_1  and  N_9 
REMARK    2  A    between atoms: C_5  and  C_6 
REMARK    3  A    between atoms: C_6  and  N_15 
REMARK    4  A    between atoms: C_10  and  C_14 
REMARK    5  A    between atoms: C_14  and  N_18 
REMARK       I    between atoms: N_15  and  C_16 
REMARK       I    between atoms: C_16  and  N_19 
REMARK    6  A    between atoms: N_19  and  C_20 
REMARK    7  A    between atoms: C_23  and  C_26 
REMARK    8  A    between atoms: C_26  and  O_28 
ROOT
HETATM    1  C   UNK N   1      25.861  27.202  -6.483  0.00  0.00     0.170 C 
HETATM    2  C   UNK N   1      27.346  27.488  -6.454  0.00  0.00     0.036 C 
HETATM    3  C   UNK N   1      27.396  28.714  -5.589  0.00  0.00     0.029 C 
HETATM    4  C   UNK N   1      26.342  28.417  -4.544  0.00  0.00     0.095 C 
HETATM    5  N   UNK N   1      25.336  27.557  -5.166  0.00  0.00    -0.404 N 
HETATM    6  H   UNK N   1      24.447  27.264  -4.760  0.00  0.00     0.154 HD
ENDROOT
BRANCH   4   7
HETATM    7  C   UNK N   1      26.996  27.673  -3.386  0.00  0.00     0.149 C 
BRANCH   7   8
HETATM    8  N   UNK N   1      26.336  26.415  -3.131  0.00  0.00    -0.341 N 
HETATM    9  C   UNK N   1      26.952  25.229  -3.346  0.00  0.00     0.320 C 
HETATM   10  O   UNK N   1      26.326  24.195  -3.169  0.00  0.00    -0.247 OA
HETATM   11  N   UNK N   1      28.252  25.198  -3.755  0.00  0.00    -0.309 N 
HETATM   12  H   UNK N   1      28.737  26.056  -3.776  0.00  0.00     0.170 HD
HETATM   13  H   UNK N   1      25.412  26.419  -2.792  0.00  0.00     0.164 HD
BRANCH  11  14
HETATM   14  C   UNK N   1      28.972  24.038  -4.155  0.00  0.00     0.036 A 
HETATM   15  C   UNK N   1      28.948  23.655  -5.500  0.00  0.00     0.030 A 
HETATM   16  C   UNK N   1      29.575  22.474  -5.909  0.00  0.00     0.020 A 
HETATM   17  C   UNK N   1      30.218  21.655  -4.970  0.00  0.00     0.039 A 
HETATM   18  C   UNK N   1      30.245  22.041  -3.625  0.00  0.00     0.020 A 
HETATM   19  C   UNK N   1      29.627  23.223  -3.220  0.00  0.00     0.030 A 
BRANCH  17  20
HETATM   20  C   UNK N   1      30.836  20.379  -5.377  0.00  0.00     0.292 C 
HETATM   21  O   UNK N   1      30.581  19.896  -6.473  0.00  0.00    -0.259 OA
BRANCH  20  22
HETATM   22  O   UNK N   1      31.665  19.736  -4.517  0.00  0.00    -0.323 OA
HETATM   23  C   UNK N   1      33.031  19.733  -4.669  0.00  0.00     0.213 C 
ENDBRANCH  20  22
ENDBRANCH  17  20
ENDBRANCH  11  14
ENDBRANCH   7   8
ENDBRANCH   4   7
BRANCH   1  24
HETATM   24  C   UNK N   1      25.554  25.762  -6.839  0.00  0.00     0.242 C 
HETATM   25  O   UNK N   1      25.086  25.024  -5.981  0.00  0.00    -0.271 OA
HETATM   26  N   UNK N   1      25.751  25.289  -8.108  0.00  0.00    -0.344 N 
HETATM   27  C   UNK N   1      25.378  23.959  -8.521  0.00  0.00     0.104 C 
HETATM   28  C   UNK N   1      26.262  26.117  -9.166  0.00  0.00     0.126 C 
HETATM   29  C   UNK N   1      25.786  23.879  -9.984  0.00  0.00     0.028 C 
HETATM   30  C   UNK N   1      26.055  25.310 -10.433  0.00  0.00     0.022 C 
BRANCH  27  31
HETATM   31  C   UNK N   1      26.109  22.884  -7.721  0.00  0.00     0.136 C 
BRANCH  31  32
HETATM   32  N   UNK N   1      25.176  22.175  -6.860  0.00  0.00    -0.428 N 
HETATM   33  H   UNK N   1      24.357  21.713  -7.255  0.00  0.00     0.149 HD
HETATM   34  H   UNK N   1      25.341  22.139  -5.854  0.00  0.00     0.149 HD
ENDBRANCH  31  32
ENDBRANCH  27  31
ENDBRANCH   1  24
TORSDOF 8
ENDMDL
MODEL 5
REMARK VINA RESULT:      -7.2      9.446     13.641
REMARK  8 active torsions:
REMARK  status: ('A' for Active; 'I' for Inactive)
REMARK    1  A    between atoms: C_2  and  C_1 
REMARK       I    between atoms: C_1  and  N_9 
REMARK    2  A    between atoms: C_5  and  C_6 
REMARK    3  A    between atoms: C_6  and  N_15 
REMARK    4  A    between atoms: C_10  and  C_14 
REMARK    5  A    between atoms: C_14  and  N_18 
REMARK       I    between atoms: N_15  and  C_16 
REMARK       I    between atoms: C_16  and  N_19 
REMARK    6  A    between atoms: N_19  and  C_20 
REMARK    7  A    between atoms: C_23  and  C_26 
REMARK    8  A    between atoms: C_26  and  O_28 
ROOT
HETATM    1  C   UNK N   1      23.052  15.131   6.040  0.00  0.00     0.170 C 
HETATM    2  C   UNK N   1      23.586  14.448   4.799  0.00  0.00     0.036 C 
HETATM    3  C   UNK N   1      23.711  15.606   3.853  0.00  0.00     0.029 C 
HETATM    4  C   UNK N   1      24.200  16.716   4.759  0.00  0.00     0.095 C 
HETATM    5  N   UNK N   1      23.680  16.449   6.099  0.00  0.00    -0.404 N 
HETATM    6  H   UNK N   1      23.744  17.062   6.913  0.00  0.00     0.154 HD
ENDROOT
BRANCH   4   7
HETATM    7  C   UNK N   1      25.723  16.685   4.793  0.00  0.00     0.149 C 
BRANCH   7   8
HETATM    8  N   UNK N   1      26.249  17.697   5.678  0.00  0.00    -0.341 N 
HETATM    9  C   UNK N   1      27.578  17.845   5.885  0.00  0.00     0.320 C 
HETATM   10  O   UNK N   1      27.964  18.679   6.689  0.00  0.00    -0.247 OA
HETATM   11  N   UNK N   1      28.467  17.070   5.201  0.00  0.00    -0.309 N 
HETATM   12  H   UNK N   1      28.105  16.492   4.489  0.00  0.00     0.170 HD
HETATM   13  H   UNK N   1      25.623  18.296   6.145  0.00  0.00     0.164 HD
BRANCH  11  14
HETATM   14  C   UNK N   1      29.871  17.018   5.424  0.00  0.00     0.036 A 
HETATM   15  C   UNK N   1      30.344  16.623   6.680  0.00  0.00     0.030 A 
HETATM   16  C   UNK N   1      31.715  16.644   6.957  0.00  0.00     0.020 A 
HETATM   17  C   UNK N   1      32.625  17.077   5.981  0.00  0.00     0.039 A 
HETATM   18  C   UNK N   1      32.151  17.468   4.724  0.00  0.00     0.020 A 
HETATM   19  C   UNK N   1      30.785  17.439   4.447  0.00  0.00     0.030 A 
BRANCH  17  20
HETATM   20  C   UNK N   1      34.068  17.158   6.276  0.00  0.00     0.292 C 
HETATM   21  O   UNK N   1      34.814  16.247   5.938  0.00  0.00    -0.259 OA
BRANCH  20  22
HETATM   22  O   UNK N   1      34.553  18.234   6.943  0.00  0.00    -0.323 OA
HETATM   23  C   UNK N   1      34.545  18.319   8.315  0.00  0.00     0.213 C 
ENDBRANCH  20  22
ENDBRANCH  17  20
ENDBRANCH  11  14
ENDBRANCH   7   8
ENDBRANCH   4   7
BRANCH   1  24
HETATM   24  C   UNK N   1      23.308  14.331   7.299  0.00  0.00     0.242 C 
HETATM   25  O   UNK N   1      24.434  13.895   7.509  0.00  0.00    -0.271 OA
HETATM   26  N   UNK N   1      22.317  14.124   8.220  0.00  0.00    -0.344 N 
HETATM   27  C   UNK N   1      22.537  13.458   9.481  0.00  0.00     0.104 C 
HETATM   28  C   UNK N   1      20.987  14.640   8.047  0.00  0.00     0.126 C 
HETATM   29  C   UNK N   1      21.176  13.451  10.157  0.00  0.00     0.028 C 
HETATM   30  C   UNK N   1      20.309  14.441   9.388  0.00  0.00     0.022 C 
BRANCH  27  31
HETATM   31  C   UNK N   1      23.029  12.025   9.294  0.00  0.00     0.136 C 
BRANCH  31  32
HETATM   32  N   UNK N   1      22.739  11.234  10.480  0.00  0.00    -0.428 N 
HETATM   33  H   UNK N   1      21.780  10.960  10.695  0.00  0.00     0.149 HD
HETATM   34  H   UNK N   1      23.498  10.953  11.100  0.00  0.00     0.149 HD
ENDBRANCH  31  32
ENDBRANCH  27  31
ENDBRANCH   1  24
TORSDOF 8
ENDMDL
MODEL 6
REMARK VINA RESULT:      -7.1      1.899      2.171
REMARK  8 active torsions:
REMARK  status: ('A' for Active; 'I' for Inactive)
REMARK    1  A    between atoms: C_2  and  C_1 
REMARK       I    between atoms: C_1  and  N_9 
REMARK    2  A    between atoms: C_5  and  C_6 
REMARK    3  A    between atoms: C_6  and  N_15 
REMARK    4  A    between atoms: C_10  and  C_14 
REMARK    5  A    between atoms: C_14  and  N_18 
REMARK       I    between atoms: N_15  and  C_16 
REMARK       I    between atoms: C_16  and  N_19 
REMARK    6  A    between atoms: N_19  and  C_20 
REMARK    7  A    between atoms: C_23  and  C_26 
REMARK    8  A    between atoms: C_26  and  O_28 
ROOT
HETATM    1  C   UNK N   1      36.334  14.595   9.061  0.00  0.00     0.170 C 
HETATM    2  C   UNK N   1      36.396  13.146   8.629  0.00  0.00     0.036 C 
HETATM    3  C   UNK N   1      37.816  12.795   8.972  0.00  0.00     0.029 C 
HETATM    4  C   UNK N   1      38.028  13.535  10.276  0.00  0.00     0.095 C 
HETATM    5  N   UNK N   1      37.168  14.717  10.255  0.00  0.00    -0.404 N 
HETATM    6  H   UNK N   1      37.153  15.475  10.938  0.00  0.00     0.154 HD
ENDROOT
BRANCH   4   7
HETATM    7  C   UNK N   1      37.612  12.628  11.427  0.00  0.00     0.149 C 
BRANCH   7   8
HETATM    8  N   UNK N   1      36.214  12.795  11.748  0.00  0.00    -0.341 N 
HETATM    9  C   UNK N   1      35.774  12.826  13.028  0.00  0.00     0.320 C 
HETATM   10  O   UNK N   1      34.575  12.911  13.240  0.00  0.00    -0.247 OA
HETATM   11  N   UNK N   1      36.664  12.761  14.058  0.00  0.00    -0.309 N 
HETATM   12  H   UNK N   1      37.621  12.802  13.829  0.00  0.00     0.170 HD
HETATM   13  H   UNK N   1      35.563  12.890  11.016  0.00  0.00     0.164 HD
BRANCH  11  14
HETATM   14  C   UNK N   1      36.333  12.637  15.436  0.00  0.00     0.036 A 
HETATM   15  C   UNK N   1      36.246  11.360  16.001  0.00  0.00     0.030 A 
HETATM   16  C   UNK N   1      35.841  11.201  17.330  0.00  0.00     0.020 A 
HETATM   17  C   UNK N   1      35.503  12.322  18.103  0.00  0.00     0.039 A 
HETATM   18  C   UNK N   1      35.594  13.599  17.538  0.00  0.00     0.020 A 
HETATM   19  C   UNK N   1      36.007  13.756  16.216  0.00  0.00     0.030 A 
BRANCH  17  20
HETATM   20  C   UNK N   1      35.021  12.168  19.488  0.00  0.00     0.292 C 
HETATM   21  O   UNK N   1      34.751  13.158  20.157  0.00  0.00    -0.259 OA
BRANCH  20  22
HETATM   22  O   UNK N   1      34.905  10.925  20.020  0.00  0.00    -0.323 OA
HETATM   23  C   UNK N   1      35.864  10.378  20.838  0.00  0.00     0.213 C 
ENDBRANCH  20  22
ENDBRANCH  17  20
ENDBRANCH  11  14
ENDBRANCH   7   8
ENDBRANCH   4   7
BRANCH   1  24
HETATM   24  C   UNK N   1      34.917  15.065   9.316  0.00  0.00     0.242 C 
HETATM   25  O   UNK N   1      34.401  14.835  10.403  0.00  0.00    -0.271 OA
HETATM   26  N   UNK N   1      34.225  15.773   8.371  0.00  0.00    -0.344 N 
HETATM   27  C   UNK N   1      32.915  16.330   8.604  0.00  0.00     0.104 C 
HETATM   28  C   UNK N   1      34.791  16.104   7.092  0.00  0.00     0.126 C 
HETATM   29  C   UNK N   1      32.546  17.011   7.296  0.00  0.00     0.028 C 
HETATM   30  C   UNK N   1      33.833  17.111   6.486  0.00  0.00     0.022 C 
BRANCH  27  31
HETATM   31  C   UNK N   1      31.886  15.253   8.935  0.00  0.00     0.136 C 
BRANCH  31  32
HETATM   32  N   UNK N   1      31.565  15.281  10.353  0.00  0.00    -0.428 N 
HETATM   33  H   UNK N   1      32.211  15.705  11.020  0.00  0.00     0.149 HD
HETATM   34  H   UNK N   1      30.690  14.874  10.684  0.00  0.00     0.149 HD
ENDBRANCH  31  32
ENDBRANCH  27  31
ENDBRANCH   1  24
TORSDOF 8
ENDMDL
MODEL 7
REMARK VINA RESULT:      -7.0      6.804     13.868
REMARK  8 active torsions:
REMARK  status: ('A' for Active; 'I' for Inactive)
REMARK    1  A    between atoms: C_2  and  C_1 
REMARK       I    between atoms: C_1  and  N_9 
REMARK    2  A    between atoms: C_5  and  C_6 
REMARK    3  A    between atoms: C_6  and  N_15 
REMARK    4  A    between atoms: C_10  and  C_14 
REMARK    5  A    between atoms: C_14  and  N_18 
REMARK       I    between atoms: N_15  and  C_16 
REMARK       I    between atoms: C_16  and  N_19 
REMARK    6  A    between atoms: N_19  and  C_20 
REMARK    7  A    between atoms: C_23  and  C_26 
REMARK    8  A    between atoms: C_26  and  O_28 
ROOT
HETATM    1  C   UNK N   1      32.573  15.057   6.558  0.00  0.00     0.170 C 
HETATM    2  C   UNK N   1      33.267  15.674   5.363  0.00  0.00     0.036 C 
HETATM    3  C   UNK N   1      32.197  15.572   4.314  0.00  0.00     0.029 C 
HETATM    4  C   UNK N   1      30.940  15.879   5.099  0.00  0.00     0.095 C 
HETATM    5  N   UNK N   1      31.166  15.444   6.477  0.00  0.00    -0.404 N 
HETATM    6  H   UNK N   1      30.478  15.417   7.230  0.00  0.00     0.154 HD
ENDROOT
BRANCH   4   7
HETATM    7  C   UNK N   1      30.703  17.384   5.077  0.00  0.00     0.149 C 
BRANCH   7   8
HETATM    8  N   UNK N   1      29.796  17.788   6.125  0.00  0.00    -0.341 N 
HETATM    9  C   UNK N   1      28.522  18.160   5.862  0.00  0.00     0.320 C 
HETATM   10  O   UNK N   1      27.817  18.548   6.780  0.00  0.00    -0.247 OA
HETATM   11  N   UNK N   1      28.042  18.102   4.588  0.00  0.00    -0.309 N 
HETATM   12  H   UNK N   1      28.618  17.681   3.909  0.00  0.00     0.170 HD
HETATM   13  H   UNK N   1      30.113  17.791   7.056  0.00  0.00     0.164 HD
BRANCH  11  14
HETATM   14  C   UNK N   1      26.781  18.596   4.150  0.00  0.00     0.036 A 
HETATM   15  C   UNK N   1      26.690  19.918   3.700  0.00  0.00     0.030 A 
HETATM   16  C   UNK N   1      25.451  20.458   3.343  0.00  0.00     0.020 A 
HETATM   17  C   UNK N   1      24.286  19.683   3.449  0.00  0.00     0.039 A 
HETATM   18  C   UNK N   1      24.379  18.361   3.896  0.00  0.00     0.020 A 
HETATM   19  C   UNK N   1      25.616  17.820   4.243  0.00  0.00     0.030 A 
BRANCH  17  20
HETATM   20  C   UNK N   1      22.965  20.256   3.130  0.00  0.00     0.292 C 
HETATM   21  O   UNK N   1      22.877  21.414   2.741  0.00  0.00    -0.259 OA
BRANCH  20  22
HETATM   22  O   UNK N   1      21.852  19.498   3.296  0.00  0.00    -0.323 OA
HETATM   23  C   UNK N   1      20.584  19.997   3.120  0.00  0.00     0.213 C 
ENDBRANCH  20  22
ENDBRANCH  17  20
ENDBRANCH  11  14
ENDBRANCH   7   8
ENDBRANCH   4   7
BRANCH   1  24
HETATM   24  C   UNK N   1      33.195  15.478   7.873  0.00  0.00     0.242 C 
HETATM   25  O   UNK N   1      33.152  16.657   8.201  0.00  0.00    -0.271 OA
HETATM   26  N   UNK N   1      33.765  14.559   8.713  0.00  0.00    -0.344 N 
HETATM   27  C   UNK N   1      34.277  14.895  10.018  0.00  0.00     0.104 C 
HETATM   28  C   UNK N   1      33.813  13.158   8.399  0.00  0.00     0.126 C 
HETATM   29  C   UNK N   1      34.811  13.584  10.573  0.00  0.00     0.028 C 
HETATM   30  C   UNK N   1      34.249  12.481   9.684  0.00  0.00     0.022 C 
BRANCH  27  31
HETATM   31  C   UNK N   1      35.404  15.922   9.945  0.00  0.00     0.136 C 
BRANCH  31  32
HETATM   32  N   UNK N   1      34.979  17.180  10.539  0.00  0.00    -0.428 N 
HETATM   33  H   UNK N   1      33.986  17.391  10.645  0.00  0.00     0.149 HD
HETATM   34  H   UNK N   1      35.677  17.854  10.852  0.00  0.00     0.149 HD
ENDBRANCH  31  32
ENDBRANCH  27  31
ENDBRANCH   1  24
TORSDOF 8
ENDMDL
MODEL 8
REMARK VINA RESULT:      -6.9      2.982     11.156
REMARK  8 active torsions:
REMARK  status: ('A' for Active; 'I' for Inactive)
REMARK    1  A    between atoms: C_2  and  C_1 
REMARK       I    between atoms: C_1  and  N_9 
REMARK    2  A    between atoms: C_5  and  C_6 
REMARK    3  A    between atoms: C_6  and  N_15 
REMARK    4  A    between atoms: C_10  and  C_14 
REMARK    5  A    between atoms: C_14  and  N_18 
REMARK       I    between atoms: N_15  and  C_16 
REMARK       I    between atoms: C_16  and  N_19 
REMARK    6  A    between atoms: N_19  and  C_20 
REMARK    7  A    between atoms: C_23  and  C_26 
REMARK    8  A    between atoms: C_26  and  O_28 
ROOT
HETATM    1  C   UNK N   1      35.601  12.157  14.043  0.00  0.00     0.170 C 
HETATM    2  C   UNK N   1      36.780  13.042  13.704  0.00  0.00     0.036 C 
HETATM    3  C   UNK N   1      36.725  13.048  12.203  0.00  0.00     0.029 C 
HETATM    4  C   UNK N   1      35.237  13.097  11.932  0.00  0.00     0.095 C 
HETATM    5  N   UNK N   1      34.565  12.434  13.049  0.00  0.00    -0.404 N 
HETATM    6  H   UNK N   1      33.572  12.209  13.119  0.00  0.00     0.154 HD
ENDROOT
BRANCH   4   7
HETATM    7  C   UNK N   1      34.797  14.554  11.872  0.00  0.00     0.149 C 
BRANCH   7   8
HETATM    8  N   UNK N   1      35.378  15.231  10.736  0.00  0.00    -0.341 N 
HETATM    9  C   UNK N   1      34.625  15.647   9.691  0.00  0.00     0.320 C 
HETATM   10  O   UNK N   1      35.176  16.161   8.731  0.00  0.00    -0.247 OA
HETATM   11  N   UNK N   1      33.271  15.488   9.718  0.00  0.00    -0.309 N 
HETATM   12  H   UNK N   1      32.873  15.168  10.560  0.00  0.00     0.170 HD
HETATM   13  H   UNK N   1      36.347  15.395  10.722  0.00  0.00     0.164 HD
BRANCH  11  14
HETATM   14  C   UNK N   1      32.382  15.744   8.638  0.00  0.00     0.036 A 
HETATM   15  C   UNK N   1      32.190  14.754   7.668  0.00  0.00     0.030 A 
HETATM   16  C   UNK N   1      31.388  15.006   6.550  0.00  0.00     0.020 A 
HETATM   17  C   UNK N   1      30.783  16.260   6.384  0.00  0.00     0.039 A 
HETATM   18  C   UNK N   1      30.973  17.248   7.357  0.00  0.00     0.020 A 
HETATM   19  C   UNK N   1      31.765  16.993   8.475  0.00  0.00     0.030 A 
BRANCH  17  20
HETATM   20  C   UNK N   1      29.981  16.560   5.184  0.00  0.00     0.292 C 
HETATM   21  O   UNK N   1      28.983  17.264   5.274  0.00  0.00    -0.259 OA
BRANCH  20  22
HETATM   22  O   UNK N   1      30.344  16.029   3.989  0.00  0.00    -0.323 OA
HETATM   23  C   UNK N   1      31.268  16.626   3.165  0.00  0.00     0.213 C 
ENDBRANCH  20  22
ENDBRANCH  17  20
ENDBRANCH  11  14
ENDBRANCH   7   8
ENDBRANCH   4   7
BRANCH   1  24
HETATM   24  C   UNK N   1      35.096  12.377  15.454  0.00  0.00     0.242 C 
HETATM   25  O   UNK N   1      34.226  13.216  15.650  0.00  0.00    -0.271 OA
HETATM   26  N   UNK N   1      35.566  11.628  16.498  0.00  0.00    -0.344 N 
HETATM   27  C   UNK N   1      35.044  11.728  17.839  0.00  0.00     0.104 C 
HETATM   28  C   UNK N   1      36.561  10.605  16.324  0.00  0.00     0.126 C 
HETATM   29  C   UNK N   1      35.861  10.732  18.647  0.00  0.00     0.028 C 
HETATM   30  C   UNK N   1      36.580   9.847  17.637  0.00  0.00     0.022 C 
BRANCH  27  31
HETATM   31  C   UNK N   1      35.218  13.130  18.418  0.00  0.00     0.136 C 
BRANCH  31  32
HETATM   32  N   UNK N   1      35.361  13.063  19.864  0.00  0.00    -0.428 N 
HETATM   33  H   UNK N   1      35.777  13.841  20.378  0.00  0.00     0.149 HD
HETATM   34  H   UNK N   1      35.045  12.234  20.368  0.00  0.00     0.149 HD
ENDBRANCH  31  32
ENDBRANCH  27  31
ENDBRANCH   1  24
TORSDOF 8
ENDMDL
MODEL 9
REMARK VINA RESULT:      -6.9      1.900      2.505
REMARK  8 active torsions:
REMARK  status: ('A' for Active; 'I' for Inactive)
REMARK    1  A    between atoms: C_2  and  C_1 
REMARK       I    between atoms: C_1  and  N_9 
REMARK    2  A    between atoms: C_5  and  C_6 
REMARK    3  A    between atoms: C_6  and  N_15 
REMARK    4  A    between atoms: C_10  and  C_14 
REMARK    5  A    between atoms: C_14  and  N_18 
REMARK       I    between atoms: N_15  and  C_16 
REMARK       I    between atoms: C_16  and  N_19 
REMARK    6  A    between atoms: N_19  and  C_20 
REMARK    7  A    between atoms: C_23  and  C_26 
REMARK    8  A    between atoms: C_26  and  O_28 
ROOT
HETATM    1  C   UNK N   1      34.190  15.756   9.646  0.00  0.00     0.170 C 
HETATM    2  C   UNK N   1      35.654  15.379   9.577  0.00  0.00     0.036 C 
HETATM    3  C   UNK N   1      36.043  15.435  11.027  0.00  0.00     0.029 C 
HETATM    4  C   UNK N   1      34.821  14.864  11.714  0.00  0.00     0.095 C 
HETATM    5  N   UNK N   1      33.662  15.177  10.880  0.00  0.00    -0.404 N 
HETATM    6  H   UNK N   1      32.681  15.022  11.114  0.00  0.00     0.154 HD
ENDROOT
BRANCH   4   7
HETATM    7  C   UNK N   1      34.977  13.352  11.815  0.00  0.00     0.149 C 
BRANCH   7   8
HETATM    8  N   UNK N   1      36.249  12.994  12.396  0.00  0.00    -0.341 N 
HETATM    9  C   UNK N   1      36.352  12.539  13.667  0.00  0.00     0.320 C 
HETATM   10  O   UNK N   1      37.459  12.307  14.125  0.00  0.00    -0.247 OA
HETATM   11  N   UNK N   1      35.230  12.348  14.417  0.00  0.00    -0.309 N 
HETATM   12  H   UNK N   1      34.362  12.449  13.961  0.00  0.00     0.170 HD
HETATM   13  H   UNK N   1      37.064  13.081  11.853  0.00  0.00     0.164 HD
BRANCH  11  14
HETATM   14  C   UNK N   1      35.200  12.018  15.800  0.00  0.00     0.036 A 
HETATM   15  C   UNK N   1      35.141  13.050  16.743  0.00  0.00     0.030 A 
HETATM   16  C   UNK N   1      35.195  12.762  18.110  0.00  0.00     0.020 A 
HETATM   17  C   UNK N   1      35.326  11.435  18.547  0.00  0.00     0.039 A 
HETATM   18  C   UNK N   1      35.381  10.404  17.603  0.00  0.00     0.020 A 
HETATM   19  C   UNK N   1      35.318  10.692  16.241  0.00  0.00     0.030 A 
BRANCH  17  20
HETATM   20  C   UNK N   1      35.441  11.119  19.983  0.00  0.00     0.292 C 
HETATM   21  O   UNK N   1      36.537  11.140  20.529  0.00  0.00    -0.259 OA
BRANCH  20  22
HETATM   22  O   UNK N   1      34.329  10.781  20.682  0.00  0.00    -0.323 OA
HETATM   23  C   UNK N   1      34.282   9.688  21.514  0.00  0.00     0.213 C 
ENDBRANCH  20  22
ENDBRANCH  17  20
ENDBRANCH  11  14
ENDBRANCH   7   8
ENDBRANCH   4   7
BRANCH   1  24
HETATM   24  C   UNK N   1      33.413  15.293   8.432  0.00  0.00     0.242 C 
HETATM   25  O   UNK N   1      33.737  14.247   7.882  0.00  0.00    -0.271 OA
HETATM   26  N   UNK N   1      32.335  15.999   7.969  0.00  0.00    -0.344 N 
HETATM   27  C   UNK N   1      31.503  15.545   6.882  0.00  0.00     0.104 C 
HETATM   28  C   UNK N   1      31.886  17.212   8.594  0.00  0.00     0.126 C 
HETATM   29  C   UNK N   1      30.456  16.636   6.716  0.00  0.00     0.028 C 
HETATM   30  C   UNK N   1      30.536  17.502   7.968  0.00  0.00     0.022 C 
BRANCH  27  31
HETATM   31  C   UNK N   1      32.291  15.383   5.585  0.00  0.00     0.136 C 
BRANCH  31  32
HETATM   32  N   UNK N   1      32.505  16.679   4.960  0.00  0.00    -0.428 N 
HETATM   33  H   UNK N   1      33.384  16.884   4.485  0.00  0.00     0.149 HD
HETATM   34  H   UNK N   1      31.772  17.387   4.998  0.00  0.00     0.149 HD
ENDBRANCH  31  32
ENDBRANCH  27  31
ENDBRANCH   1  24
TORSDOF 8
ENDMDL
