MODEL 1
REMARK VINA RESULT:      -5.9      0.000      0.000
REMARK  13 active torsions:
REMARK  status: ('A' for Active; 'I' for Inactive)
REMARK    1  A    between atoms: C_3  and  C_10 
REMARK    2  A    between atoms: C_6  and  N_7 
REMARK    3  A    between atoms: C_10  and  N_11 
REMARK    4  A    between atoms: N_11  and  C_12 
REMARK    5  A    between atoms: N_11  and  C_17 
REMARK    6  A    between atoms: C_12  and  P_13 
REMARK    7  A    between atoms: P_13  and  O_15 
REMARK    8  A    between atoms: P_13  and  O_16 
REMARK    9  A    between atoms: C_17  and  C_18 
REMARK   10  A    between atoms: C_18  and  C_19 
REMARK   11  A    between atoms: C_19  and  C_20 
REMARK   12  A    between atoms: C_20  and  C_21 
REMARK   13  A    between atoms: C_21  and  O_22 
ROOT
HETATM    1  N   UNK N   1      26.124  24.448  -7.722  0.00  0.00     0.103 N 
ENDROOT
BRANCH   1   2
HETATM    2  C   UNK N   1      26.102  25.854  -8.136  0.00  0.00     0.311 C 
BRANCH   2   3
HETATM    3  C   UNK N   1      26.171  26.871  -7.023  0.00  0.00    -0.030 A 
HETATM    4  C   UNK N   1      27.258  27.742  -6.869  0.00  0.00     0.011 A 
HETATM    5  C   UNK N   1      27.341  28.587  -5.766  0.00  0.00     0.037 A 
HETATM    6  C   UNK N   1      26.324  28.590  -4.804  0.00  0.00     0.102 A 
HETATM    7  C   UNK N   1      25.213  27.749  -4.977  0.00  0.00     0.037 A 
HETATM    8  C   UNK N   1      25.143  26.890  -6.078  0.00  0.00     0.011 A 
BRANCH   6   9
HETATM    9  N   UNK N   1      26.435  29.419  -3.656  0.00  0.00    -0.116 N 
HETATM   10  O   UNK N   1      26.726  28.947  -2.597  0.00  0.00    -0.532 OA
HETATM   11  O   UNK N   1      26.270  30.719  -3.761  0.00  0.00    -0.532 OA
ENDBRANCH   6   9
ENDBRANCH   2   3
ENDBRANCH   1   2
BRANCH   1  12
HETATM   12  C   UNK N   1      25.227  23.677  -8.581  0.00  0.00     0.396 C 
BRANCH  12  13
HETATM   13  P   UNK N   1      25.602  21.846  -8.479  0.00  0.00     0.264 P 
HETATM   14  O   UNK N   1      25.355  21.504  -9.961  0.00  0.00    -0.652 OA
BRANCH  13  15
HETATM   15  O   UNK N   1      23.902  21.945  -8.138  0.00  0.00    -0.328 OA
HETATM   16  H   UNK N   1      23.221  21.265  -8.009  0.00  0.00     0.220 HD
ENDBRANCH  13  15
BRANCH  13  17
HETATM   17  O   UNK N   1      25.323  20.256  -7.832  0.00  0.00    -0.328 OA
HETATM   18  H   UNK N   1      24.967  20.063  -6.950  0.00  0.00     0.220 HD
ENDBRANCH  13  17
ENDBRANCH  12  13
ENDBRANCH   1  12
BRANCH   1  19
HETATM   19  C   UNK N   1      27.490  24.012  -8.009  0.00  0.00     0.273 C 
BRANCH  19  20
HETATM   20  C   UNK N   1      28.381  24.114  -6.784  0.00  0.00     0.031 C 
BRANCH  20  21
HETATM   21  C   UNK N   1      27.584  23.795  -5.536  0.00  0.00     0.012 C 
BRANCH  21  22
HETATM   22  C   UNK N   1      27.928  24.802  -4.459  0.00  0.00     0.110 C 
BRANCH  22  23
HETATM   23  C   UNK N   1      26.943  24.733  -3.344  0.00  0.00     0.139 C 
HETATM   24  O   UNK N   1      26.560  23.652  -2.928  0.00  0.00    -0.650 OA
BRANCH  23  25
HETATM   25  O   UNK N   1      26.489  25.869  -2.783  0.00  0.00    -0.776 OA
HETATM   26  H   UNK N   1      26.961  26.343  -2.127  0.00  0.00     0.167 HD
ENDBRANCH  23  25
ENDBRANCH  22  23
ENDBRANCH  21  22
ENDBRANCH  20  21
ENDBRANCH  19  20
ENDBRANCH   1  19
TORSDOF 13
ENDMDL
MODEL 2
REMARK VINA RESULT:      -5.9     12.695     15.332
REMARK  13 active torsions:
REMARK  status: ('A' for Active; 'I' for Inactive)
REMARK    1  A    between atoms: C_3  and  C_10 
REMARK    2  A    between atoms: C_6  and  N_7 
REMARK    3  A    between atoms: C_10  and  N_11 
REMARK    4  A    between atoms: N_11  and  C_12 
REMARK    5  A    between atoms: N_11  and  C_17 
REMARK    6  A    between atoms: C_12  and  P_13 
REMARK    7  A    between atoms: P_13  and  O_15 
REMARK    8  A    between atoms: P_13  and  O_16 
REMARK    9  A    between atoms: C_17  and  C_18 
REMARK   10  A    between atoms: C_18  and  C_19 
REMARK   11  A    between atoms: C_19  and  C_20 
REMARK   12  A    between atoms: C_20  and  C_21 
REMARK   13  A    between atoms: C_21  and  O_22 
ROOT
HETATM    1  N   UNK N   1      29.250  17.500   6.344  0.00  0.00     0.103 N 
ENDROOT
BRANCH   1   2
HETATM    2  C   UNK N   1      28.688  17.105   5.049  0.00  0.00     0.311 C 
BRANCH   2   3
HETATM    3  C   UNK N   1      27.571  17.973   4.522  0.00  0.00    -0.030 A 
HETATM    4  C   UNK N   1      26.325  17.448   4.151  0.00  0.00     0.011 A 
HETATM    5  C   UNK N   1      25.359  18.260   3.562  0.00  0.00     0.037 A 
HETATM    6  C   UNK N   1      25.617  19.620   3.351  0.00  0.00     0.102 A 
HETATM    7  C   UNK N   1      26.849  20.157   3.760  0.00  0.00     0.037 A 
HETATM    8  C   UNK N   1      27.821  19.334   4.336  0.00  0.00     0.011 A 
BRANCH   6   9
HETATM    9  N   UNK N   1      24.648  20.435   2.707  0.00  0.00    -0.116 N 
HETATM   10  O   UNK N   1      24.689  20.599   1.523  0.00  0.00    -0.532 OA
HETATM   11  O   UNK N   1      23.667  20.969   3.400  0.00  0.00    -0.532 OA
ENDBRANCH   6   9
ENDBRANCH   2   3
ENDBRANCH   1   2
BRANCH   1  12
HETATM   12  C   UNK N   1      28.231  17.345   7.381  0.00  0.00     0.396 C 
BRANCH  12  13
HETATM   13  P   UNK N   1      28.958  17.607   9.086  0.00  0.00     0.264 P 
HETATM   14  O   UNK N   1      27.868  16.869   9.888  0.00  0.00    -0.652 OA
BRANCH  13  15
HETATM   15  O   UNK N   1      27.948  18.998   8.844  0.00  0.00    -0.328 OA
HETATM   16  H   UNK N   1      28.049  19.791   8.292  0.00  0.00     0.220 HD
ENDBRANCH  13  15
BRANCH  13  17
HETATM   17  O   UNK N   1      29.528  18.630  10.371  0.00  0.00    -0.328 OA
HETATM   18  H   UNK N   1      29.567  19.599  10.342  0.00  0.00     0.220 HD
ENDBRANCH  13  17
ENDBRANCH  12  13
ENDBRANCH   1  12
BRANCH   1  19
HETATM   19  C   UNK N   1      30.293  16.507   6.599  0.00  0.00     0.273 C 
BRANCH  19  20
HETATM   20  C   UNK N   1      31.667  17.026   6.215  0.00  0.00     0.031 C 
BRANCH  20  21
HETATM   21  C   UNK N   1      32.577  17.029   7.426  0.00  0.00     0.012 C 
BRANCH  21  22
HETATM   22  C   UNK N   1      33.760  17.932   7.152  0.00  0.00     0.110 C 
BRANCH  22  23
HETATM   23  C   UNK N   1      34.506  18.214   8.412  0.00  0.00     0.139 C 
HETATM   24  O   UNK N   1      34.370  17.487   9.382  0.00  0.00    -0.650 OA
BRANCH  23  25
HETATM   25  O   UNK N   1      35.345  19.264   8.470  0.00  0.00    -0.776 OA
HETATM   26  H   UNK N   1      35.470  19.780   9.242  0.00  0.00     0.167 HD
ENDBRANCH  23  25
ENDBRANCH  22  23
ENDBRANCH  21  22
ENDBRANCH  20  21
ENDBRANCH  19  20
ENDBRANCH   1  19
TORSDOF 13
ENDMDL
MODEL 3
REMARK VINA RESULT:      -5.8      2.220      4.496
REMARK  13 active torsions:
REMARK  status: ('A' for Active; 'I' for Inactive)
REMARK    1  A    between atoms: C_3  and  C_10 
REMARK    2  A    between atoms: C_6  and  N_7 
REMARK    3  A    between atoms: C_10  and  N_11 
REMARK    4  A    between atoms: N_11  and  C_12 
REMARK    5  A    between atoms: N_11  and  C_17 
REMARK    6  A    between atoms: C_12  and  P_13 
REMARK    7  A    between atoms: P_13  and  O_15 
REMARK    8  A    between atoms: P_13  and  O_16 
REMARK    9  A    between atoms: C_17  and  C_18 
REMARK   10  A    between atoms: C_18  and  C_19 
REMARK   11  A    between atoms: C_19  and  C_20 
REMARK   12  A    between atoms: C_20  and  C_21 
REMARK   13  A    between atoms: C_21  and  O_22 
ROOT
HETATM    1  N   UNK N   1      26.248  24.649  -7.333  0.00  0.00     0.103 N 
ENDROOT
BRANCH   1   2
HETATM    2  C   UNK N   1      25.883  24.254  -5.969  0.00  0.00     0.311 C 
BRANCH   2   3
HETATM    3  C   UNK N   1      27.029  23.876  -5.062  0.00  0.00    -0.030 A 
HETATM    4  C   UNK N   1      26.977  24.056  -3.673  0.00  0.00     0.011 A 
HETATM    5  C   UNK N   1      28.094  23.803  -2.881  0.00  0.00     0.037 A 
HETATM    6  C   UNK N   1      29.281  23.346  -3.465  0.00  0.00     0.102 A 
HETATM    7  C   UNK N   1      29.323  23.124  -4.851  0.00  0.00     0.037 A 
HETATM    8  C   UNK N   1      28.204  23.395  -5.644  0.00  0.00     0.011 A 
BRANCH   6   9
HETATM    9  N   UNK N   1      30.433  23.134  -2.661  0.00  0.00    -0.116 N 
HETATM   10  O   UNK N   1      31.515  23.068  -3.164  0.00  0.00    -0.532 OA
HETATM   11  O   UNK N   1      30.322  23.065  -1.353  0.00  0.00    -0.532 OA
ENDBRANCH   6   9
ENDBRANCH   2   3
ENDBRANCH   1   2
BRANCH   1  12
HETATM   12  C   UNK N   1      25.339  24.007  -8.281  0.00  0.00     0.396 C 
BRANCH  12  13
HETATM   13  P   UNK N   1      25.734  22.187  -8.468  0.00  0.00     0.264 P 
HETATM   14  O   UNK N   1      25.606  22.107 -10.002  0.00  0.00    -0.652 OA
BRANCH  13  15
HETATM   15  O   UNK N   1      24.013  22.220  -8.247  0.00  0.00    -0.328 OA
HETATM   16  H   UNK N   1      23.456  22.210  -7.451  0.00  0.00     0.220 HD
ENDBRANCH  13  15
BRANCH  13  17
HETATM   17  O   UNK N   1      25.433  20.508  -8.130  0.00  0.00    -0.328 OA
HETATM   18  H   UNK N   1      25.166  20.148  -7.270  0.00  0.00     0.220 HD
ENDBRANCH  13  17
ENDBRANCH  12  13
ENDBRANCH   1  12
BRANCH   1  19
HETATM   19  C   UNK N   1      25.984  26.086  -7.372  0.00  0.00     0.273 C 
BRANCH  19  20
HETATM   20  C   UNK N   1      27.185  26.891  -6.909  0.00  0.00     0.031 C 
BRANCH  20  21
HETATM   21  C   UNK N   1      26.728  28.069  -6.074  0.00  0.00     0.012 C 
BRANCH  21  22
HETATM   22  C   UNK N   1      25.624  27.615  -5.142  0.00  0.00     0.110 C 
BRANCH  22  23
HETATM   23  C   UNK N   1      25.774  28.252  -3.803  0.00  0.00     0.139 C 
HETATM   24  O   UNK N   1      25.784  27.565  -2.795  0.00  0.00    -0.650 OA
BRANCH  23  25
HETATM   25  O   UNK N   1      25.917  29.586  -3.711  0.00  0.00    -0.776 OA
HETATM   26  H   UNK N   1      26.750  30.010  -3.644  0.00  0.00     0.167 HD
ENDBRANCH  23  25
ENDBRANCH  22  23
ENDBRANCH  21  22
ENDBRANCH  20  21
ENDBRANCH  19  20
ENDBRANCH   1  19
TORSDOF 13
ENDMDL
MODEL 4
REMARK VINA RESULT:      -5.6      1.862      2.135
REMARK  13 active torsions:
REMARK  status: ('A' for Active; 'I' for Inactive)
REMARK    1  A    between atoms: C_3  and  C_10 
REMARK    2  A    between atoms: C_6  and  N_7 
REMARK    3  A    between atoms: C_10  and  N_11 
REMARK    4  A    between atoms: N_11  and  C_12 
REMARK    5  A    between atoms: N_11  and  C_17 
REMARK    6  A    between atoms: C_12  and  P_13 
REMARK    7  A    between atoms: P_13  and  O_15 
REMARK    8  A    between atoms: P_13  and  O_16 
REMARK    9  A    between atoms: C_17  and  C_18 
REMARK   10  A    between atoms: C_18  and  C_19 
REMARK   11  A    between atoms: C_19  and  C_20 
REMARK   12  A    between atoms: C_20  and  C_21 
REMARK   13  A    between atoms: C_21  and  O_22 
ROOT
HETATM    1  N   UNK N   1      26.809  23.825  -5.993  0.00  0.00     0.103 N 
ENDROOT
BRANCH   1   2
HETATM    2  C   UNK N   1      26.642  25.128  -6.645  0.00  0.00     0.311 C 
BRANCH   2   3
HETATM    3  C   UNK N   1      26.607  26.325  -5.727  0.00  0.00    -0.030 A 
HETATM    4  C   UNK N   1      26.772  27.636  -6.197  0.00  0.00     0.011 A 
HETATM    5  C   UNK N   1      26.848  28.705  -5.308  0.00  0.00     0.037 A 
HETATM    6  C   UNK N   1      26.742  28.483  -3.931  0.00  0.00     0.102 A 
HETATM    7  C   UNK N   1      26.535  27.176  -3.459  0.00  0.00     0.037 A 
HETATM    8  C   UNK N   1      26.475  26.105  -4.354  0.00  0.00     0.011 A 
BRANCH   6   9
HETATM    9  N   UNK N   1      26.868  29.570  -3.025  0.00  0.00    -0.116 N 
HETATM   10  O   UNK N   1      26.384  30.631  -3.285  0.00  0.00    -0.532 OA
HETATM   11  O   UNK N   1      27.471  29.401  -1.869  0.00  0.00    -0.532 OA
ENDBRANCH   6   9
ENDBRANCH   2   3
ENDBRANCH   1   2
BRANCH   1  12
HETATM   12  C   UNK N   1      25.579  23.049  -6.143  0.00  0.00     0.396 C 
BRANCH  12  13
HETATM   13  P   UNK N   1      25.510  22.210  -7.815  0.00  0.00     0.264 P 
HETATM   14  O   UNK N   1      24.512  23.174  -8.486  0.00  0.00    -0.652 OA
BRANCH  13  15
HETATM   15  O   UNK N   1      24.259  21.425  -6.902  0.00  0.00    -0.328 OA
HETATM   16  H   UNK N   1      23.355  21.156  -7.130  0.00  0.00     0.220 HD
ENDBRANCH  13  15
BRANCH  13  17
HETATM   17  O   UNK N   1      25.206  20.830  -8.830  0.00  0.00    -0.328 OA
HETATM   18  H   UNK N   1      24.426  20.710  -9.393  0.00  0.00     0.220 HD
ENDBRANCH  13  17
ENDBRANCH  12  13
ENDBRANCH   1  12
BRANCH   1  19
HETATM   19  C   UNK N   1      27.847  23.162  -6.780  0.00  0.00     0.273 C 
BRANCH  19  20
HETATM   20  C   UNK N   1      28.952  22.607  -5.898  0.00  0.00     0.031 C 
BRANCH  20  21
HETATM   21  C   UNK N   1      28.990  23.357  -4.583  0.00  0.00     0.012 C 
BRANCH  21  22
HETATM   22  C   UNK N   1      29.823  22.572  -3.591  0.00  0.00     0.110 C 
BRANCH  22  23
HETATM   23  C   UNK N   1      29.450  22.933  -2.194  0.00  0.00     0.139 C 
HETATM   24  O   UNK N   1      30.316  23.086  -1.348  0.00  0.00    -0.650 OA
BRANCH  23  25
HETATM   25  O   UNK N   1      28.156  23.108  -1.872  0.00  0.00    -0.776 OA
HETATM   26  H   UNK N   1      27.493  22.468  -2.041  0.00  0.00     0.167 HD
ENDBRANCH  23  25
ENDBRANCH  22  23
ENDBRANCH  21  22
ENDBRANCH  20  21
ENDBRANCH  19  20
ENDBRANCH   1  19
TORSDOF 13
ENDMDL
MODEL 5
REMARK VINA RESULT:      -5.5     13.184     15.736
REMARK  13 active torsions:
REMARK  status: ('A' for Active; 'I' for Inactive)
REMARK    1  A    between atoms: C_3  and  C_10 
REMARK    2  A    between atoms: C_6  and  N_7 
REMARK    3  A    between atoms: C_10  and  N_11 
REMARK    4  A    between atoms: N_11  and  C_12 
REMARK    5  A    between atoms: N_11  and  C_17 
REMARK    6  A    between atoms: C_12  and  P_13 
REMARK    7  A    between atoms: P_13  and  O_15 
REMARK    8  A    between atoms: P_13  and  O_16 
REMARK    9  A    between atoms: C_17  and  C_18 
REMARK   10  A    between atoms: C_18  and  C_19 
REMARK   11  A    between atoms: C_19  and  C_20 
REMARK   12  A    between atoms: C_20  and  C_21 
REMARK   13  A    between atoms: C_21  and  O_22 
ROOT
HETATM    1  N   UNK N   1      21.494  17.463   4.422  0.00  0.00     0.103 N 
ENDROOT
BRANCH   1   2
HETATM    2  C   UNK N   1      21.539  17.875   5.828  0.00  0.00     0.311 C 
BRANCH   2   3
HETATM    3  C   UNK N   1      21.273  16.791   6.843  0.00  0.00    -0.030 A 
HETATM    4  C   UNK N   1      20.288  16.916   7.833  0.00  0.00     0.011 A 
HETATM    5  C   UNK N   1      20.148  15.945   8.821  0.00  0.00     0.037 A 
HETATM    6  C   UNK N   1      20.981  14.821   8.826  0.00  0.00     0.102 A 
HETATM    7  C   UNK N   1      21.940  14.672   7.811  0.00  0.00     0.037 A 
HETATM    8  C   UNK N   1      22.087  15.657   6.830  0.00  0.00     0.011 A 
BRANCH   6   9
HETATM    9  N   UNK N   1      20.866  13.857   9.863  0.00  0.00    -0.116 N 
HETATM   10  O   UNK N   1      19.789  13.518  10.255  0.00  0.00    -0.532 OA
HETATM   11  O   UNK N   1      21.943  13.290  10.362  0.00  0.00    -0.532 OA
ENDBRANCH   6   9
ENDBRANCH   2   3
ENDBRANCH   1   2
BRANCH   1  12
HETATM   12  C   UNK N   1      20.268  17.973   3.808  0.00  0.00     0.396 C 
BRANCH  12  13
HETATM   13  P   UNK N   1      20.614  19.490   2.769  0.00  0.00     0.264 P 
HETATM   14  O   UNK N   1      20.247  20.550   3.827  0.00  0.00    -0.652 OA
BRANCH  13  15
HETATM   15  O   UNK N   1      18.949  19.129   2.439  0.00  0.00    -0.328 OA
HETATM   16  H   UNK N   1      18.402  18.346   2.617  0.00  0.00     0.220 HD
ENDBRANCH  13  15
BRANCH  13  17
HETATM   17  O   UNK N   1      20.356  20.480   1.362  0.00  0.00    -0.328 OA
HETATM   18  H   UNK N   1      21.055  20.865   0.811  0.00  0.00     0.220 HD
ENDBRANCH  13  17
ENDBRANCH  12  13
ENDBRANCH   1  12
BRANCH   1  19
HETATM   19  C   UNK N   1      22.619  18.165   3.806  0.00  0.00     0.273 C 
BRANCH  19  20
HETATM   20  C   UNK N   1      23.907  17.947   4.581  0.00  0.00     0.031 C 
BRANCH  20  21
HETATM   21  C   UNK N   1      24.746  19.208   4.554  0.00  0.00     0.012 C 
BRANCH  21  22
HETATM   22  C   UNK N   1      25.520  19.258   3.254  0.00  0.00     0.110 C 
BRANCH  22  23
HETATM   23  C   UNK N   1      25.282  20.551   2.553  0.00  0.00     0.139 C 
HETATM   24  O   UNK N   1      26.224  21.244   2.205  0.00  0.00    -0.650 OA
BRANCH  23  25
HETATM   25  O   UNK N   1      24.023  20.945   2.288  0.00  0.00    -0.776 OA
HETATM   26  H   UNK N   1      23.816  21.758   1.871  0.00  0.00     0.167 HD
ENDBRANCH  23  25
ENDBRANCH  22  23
ENDBRANCH  21  22
ENDBRANCH  20  21
ENDBRANCH  19  20
ENDBRANCH   1  19
TORSDOF 13
ENDMDL
MODEL 6
REMARK VINA RESULT:      -5.4     13.230     15.748
REMARK  13 active torsions:
REMARK  status: ('A' for Active; 'I' for Inactive)
REMARK    1  A    between atoms: C_3  and  C_10 
REMARK    2  A    between atoms: C_6  and  N_7 
REMARK    3  A    between atoms: C_10  and  N_11 
REMARK    4  A    between atoms: N_11  and  C_12 
REMARK    5  A    between atoms: N_11  and  C_17 
REMARK    6  A    between atoms: C_12  and  P_13 
REMARK    7  A    between atoms: P_13  and  O_15 
REMARK    8  A    between atoms: P_13  and  O_16 
REMARK    9  A    between atoms: C_17  and  C_18 
REMARK   10  A    between atoms: C_18  and  C_19 
REMARK   11  A    between atoms: C_19  and  C_20 
REMARK   12  A    between atoms: C_20  and  C_21 
REMARK   13  A    between atoms: C_21  and  O_22 
ROOT
HETATM    1  N   UNK N   1      21.900  17.813   4.314  0.00  0.00     0.103 N 
ENDROOT
BRANCH   1   2
HETATM    2  C   UNK N   1      21.801  18.219   5.719  0.00  0.00     0.311 C 
BRANCH   2   3
HETATM    3  C   UNK N   1      21.410  17.134   6.693  0.00  0.00    -0.030 A 
HETATM    4  C   UNK N   1      20.405  17.316   7.654  0.00  0.00     0.011 A 
HETATM    5  C   UNK N   1      20.150  16.335   8.609  0.00  0.00     0.037 A 
HETATM    6  C   UNK N   1      20.885  15.145   8.608  0.00  0.00     0.102 A 
HETATM    7  C   UNK N   1      21.864  14.942   7.622  0.00  0.00     0.037 A 
HETATM    8  C   UNK N   1      22.127  15.936   6.675  0.00  0.00     0.011 A 
BRANCH   6   9
HETATM    9  N   UNK N   1      20.654  14.167   9.613  0.00  0.00    -0.116 N 
HETATM   10  O   UNK N   1      21.575  13.643  10.166  0.00  0.00    -0.532 OA
HETATM   11  O   UNK N   1      19.427  13.873   9.980  0.00  0.00    -0.532 OA
ENDBRANCH   6   9
ENDBRANCH   2   3
ENDBRANCH   1   2
BRANCH   1  12
HETATM   12  C   UNK N   1      20.737  18.313   3.584  0.00  0.00     0.396 C 
BRANCH  12  13
HETATM   13  P   UNK N   1      21.082  19.992   2.833  0.00  0.00     0.264 P 
HETATM   14  O   UNK N   1      20.233  20.832   3.808  0.00  0.00    -0.652 OA
BRANCH  13  15
HETATM   15  O   UNK N   1      19.682  19.431   1.973  0.00  0.00    -0.328 OA
HETATM   16  H   UNK N   1      18.738  19.419   2.199  0.00  0.00     0.220 HD
ENDBRANCH  13  15
BRANCH  13  17
HETATM   17  O   UNK N   1      21.066  21.112   1.501  0.00  0.00    -0.328 OA
HETATM   18  H   UNK N   1      20.701  22.010   1.528  0.00  0.00     0.220 HD
ENDBRANCH  13  17
ENDBRANCH  12  13
ENDBRANCH   1  12
BRANCH   1  19
HETATM   19  C   UNK N   1      23.074  18.529   3.816  0.00  0.00     0.273 C 
BRANCH  19  20
HETATM   20  C   UNK N   1      24.213  18.504   4.819  0.00  0.00     0.031 C 
BRANCH  20  21
HETATM   21  C   UNK N   1      25.118  19.700   4.606  0.00  0.00     0.012 C 
BRANCH  21  22
HETATM   22  C   UNK N   1      26.439  19.449   5.302  0.00  0.00     0.110 C 
BRANCH  22  23
HETATM   23  C   UNK N   1      26.758  20.565   6.237  0.00  0.00     0.139 C 
HETATM   24  O   UNK N   1      27.652  21.352   5.972  0.00  0.00    -0.650 OA
BRANCH  23  25
HETATM   25  O   UNK N   1      26.043  20.713   7.368  0.00  0.00    -0.776 OA
HETATM   26  H   UNK N   1      25.489  21.450   7.532  0.00  0.00     0.167 HD
ENDBRANCH  23  25
ENDBRANCH  22  23
ENDBRANCH  21  22
ENDBRANCH  20  21
ENDBRANCH  19  20
ENDBRANCH   1  19
TORSDOF 13
ENDMDL
MODEL 7
REMARK VINA RESULT:      -5.4     12.012     14.697
REMARK  13 active torsions:
REMARK  status: ('A' for Active; 'I' for Inactive)
REMARK    1  A    between atoms: C_3  and  C_10 
REMARK    2  A    between atoms: C_6  and  N_7 
REMARK    3  A    between atoms: C_10  and  N_11 
REMARK    4  A    between atoms: N_11  and  C_12 
REMARK    5  A    between atoms: N_11  and  C_17 
REMARK    6  A    between atoms: C_12  and  P_13 
REMARK    7  A    between atoms: P_13  and  O_15 
REMARK    8  A    between atoms: P_13  and  O_16 
REMARK    9  A    between atoms: C_17  and  C_18 
REMARK   10  A    between atoms: C_18  and  C_19 
REMARK   11  A    between atoms: C_19  and  C_20 
REMARK   12  A    between atoms: C_20  and  C_21 
REMARK   13  A    between atoms: C_21  and  O_22 
ROOT
HETATM    1  N   UNK N   1      27.844  17.530   5.463  0.00  0.00     0.103 N 
ENDROOT
BRANCH   1   2
HETATM    2  C   UNK N   1      28.299  17.191   6.815  0.00  0.00     0.311 C 
BRANCH   2   3
HETATM    3  C   UNK N   1      29.786  17.283   7.054  0.00  0.00    -0.030 A 
HETATM    4  C   UNK N   1      30.325  17.676   8.287  0.00  0.00     0.011 A 
HETATM    5  C   UNK N   1      31.697  17.859   8.436  0.00  0.00     0.037 A 
HETATM    6  C   UNK N   1      32.559  17.633   7.357  0.00  0.00     0.102 A 
HETATM    7  C   UNK N   1      32.026  17.197   6.133  0.00  0.00     0.037 A 
HETATM    8  C   UNK N   1      30.646  17.030   5.983  0.00  0.00     0.011 A 
BRANCH   6   9
HETATM    9  N   UNK N   1      33.953  17.866   7.500  0.00  0.00    -0.116 N 
HETATM   10  O   UNK N   1      34.694  17.668   6.583  0.00  0.00    -0.532 OA
HETATM   11  O   UNK N   1      34.430  18.353   8.623  0.00  0.00    -0.532 OA
ENDBRANCH   6   9
ENDBRANCH   2   3
ENDBRANCH   1   2
BRANCH   1  12
HETATM   12  C   UNK N   1      26.775  16.614   5.069  0.00  0.00     0.396 C 
BRANCH  12  13
HETATM   13  P   UNK N   1      27.206  15.713   3.487  0.00  0.00     0.264 P 
HETATM   14  O   UNK N   1      28.403  16.591   3.071  0.00  0.00    -0.652 OA
BRANCH  13  15
HETATM   15  O   UNK N   1      26.053  16.910   2.985  0.00  0.00    -0.328 OA
HETATM   16  H   UNK N   1      25.652  17.109   2.124  0.00  0.00     0.220 HD
ENDBRANCH  13  15
BRANCH  13  17
HETATM   17  O   UNK N   1      26.807  15.113   1.903  0.00  0.00    -0.328 OA
HETATM   18  H   UNK N   1      26.190  14.389   1.717  0.00  0.00     0.220 HD
ENDBRANCH  13  17
ENDBRANCH  12  13
ENDBRANCH   1  12
BRANCH   1  19
HETATM   19  C   UNK N   1      27.255  18.860   5.606  0.00  0.00     0.273 C 
BRANCH  19  20
HETATM   20  C   UNK N   1      27.926  19.872   4.694  0.00  0.00     0.031 C 
BRANCH  20  21
HETATM   21  C   UNK N   1      26.965  20.306   3.606  0.00  0.00     0.012 C 
BRANCH  21  22
HETATM   22  C   UNK N   1      25.552  20.246   4.144  0.00  0.00     0.110 C 
BRANCH  22  23
HETATM   23  C   UNK N   1      24.566  20.495   3.055  0.00  0.00     0.139 C 
HETATM   24  O   UNK N   1      24.950  20.796   1.936  0.00  0.00    -0.650 OA
BRANCH  23  25
HETATM   25  O   UNK N   1      23.250  20.368   3.303  0.00  0.00    -0.776 OA
HETATM   26  H   UNK N   1      22.691  21.094   3.496  0.00  0.00     0.167 HD
ENDBRANCH  23  25
ENDBRANCH  22  23
ENDBRANCH  21  22
ENDBRANCH  20  21
ENDBRANCH  19  20
ENDBRANCH   1  19
TORSDOF 13
ENDMDL
MODEL 8
REMARK VINA RESULT:      -5.3     13.867     16.038
REMARK  13 active torsions:
REMARK  status: ('A' for Active; 'I' for Inactive)
REMARK    1  A    between atoms: C_3  and  C_10 
REMARK    2  A    between atoms: C_6  and  N_7 
REMARK    3  A    between atoms: C_10  and  N_11 
REMARK    4  A    between atoms: N_11  and  C_12 
REMARK    5  A    between atoms: N_11  and  C_17 
REMARK    6  A    between atoms: C_12  and  P_13 
REMARK    7  A    between atoms: P_13  and  O_15 
REMARK    8  A    between atoms: P_13  and  O_16 
REMARK    9  A    between atoms: C_17  and  C_18 
REMARK   10  A    between atoms: C_18  and  C_19 
REMARK   11  A    between atoms: C_19  and  C_20 
REMARK   12  A    between atoms: C_20  and  C_21 
REMARK   13  A    between atoms: C_21  and  O_22 
ROOT
HETATM    1  N   UNK N   1      30.090  17.063   4.243  0.00  0.00     0.103 N 
ENDROOT
BRANCH   1   2
HETATM    2  C   UNK N   1      30.353  16.192   5.392  0.00  0.00     0.311 C 
BRANCH   2   3
HETATM    3  C   UNK N   1      31.507  16.595   6.277  0.00  0.00    -0.030 A 
HETATM    4  C   UNK N   1      31.436  16.538   7.676  0.00  0.00     0.011 A 
HETATM    5  C   UNK N   1      32.478  17.026   8.461  0.00  0.00     0.037 A 
HETATM    6  C   UNK N   1      33.621  17.563   7.858  0.00  0.00     0.102 A 
HETATM    7  C   UNK N   1      33.713  17.583   6.456  0.00  0.00     0.037 A 
HETATM    8  C   UNK N   1      32.658  17.107   5.673  0.00  0.00     0.011 A 
BRANCH   6   9
HETATM    9  N   UNK N   1      34.661  18.103   8.661  0.00  0.00    -0.116 N 
HETATM   10  O   UNK N   1      35.073  17.493   9.603  0.00  0.00    -0.532 OA
HETATM   11  O   UNK N   1      35.214  19.252   8.343  0.00  0.00    -0.532 OA
ENDBRANCH   6   9
ENDBRANCH   2   3
ENDBRANCH   1   2
BRANCH   1  12
HETATM   12  C   UNK N   1      30.150  16.274   3.015  0.00  0.00     0.396 C 
BRANCH  12  13
HETATM   13  P   UNK N   1      29.743  14.477   3.346  0.00  0.00     0.264 P 
HETATM   14  O   UNK N   1      30.944  13.856   2.606  0.00  0.00    -0.652 OA
BRANCH  13  15
HETATM   15  O   UNK N   1      28.911  14.827   1.864  0.00  0.00    -0.328 OA
HETATM   16  H   UNK N   1      29.226  14.990   0.960  0.00  0.00     0.220 HD
ENDBRANCH  13  15
BRANCH  13  17
HETATM   17  O   UNK N   1      28.685  13.100   3.253  0.00  0.00    -0.328 OA
HETATM   18  H   UNK N   1      27.949  12.916   3.857  0.00  0.00     0.220 HD
ENDBRANCH  13  17
ENDBRANCH  12  13
ENDBRANCH   1  12
BRANCH   1  19
HETATM   19  C   UNK N   1      28.704  17.489   4.427  0.00  0.00     0.273 C 
BRANCH  19  20
HETATM   20  C   UNK N   1      28.594  18.631   5.421  0.00  0.00     0.031 C 
BRANCH  20  21
HETATM   21  C   UNK N   1      27.925  18.149   6.692  0.00  0.00     0.012 C 
BRANCH  21  22
HETATM   22  C   UNK N   1      28.276  19.093   7.822  0.00  0.00     0.110 C 
BRANCH  22  23
HETATM   23  C   UNK N   1      28.423  18.345   9.103  0.00  0.00     0.139 C 
HETATM   24  O   UNK N   1      29.370  18.568   9.839  0.00  0.00    -0.650 OA
BRANCH  23  25
HETATM   25  O   UNK N   1      27.498  17.433   9.453  0.00  0.00    -0.776 OA
HETATM   26  H   UNK N   1      27.455  16.575   9.081  0.00  0.00     0.167 HD
ENDBRANCH  23  25
ENDBRANCH  22  23
ENDBRANCH  21  22
ENDBRANCH  20  21
ENDBRANCH  19  20
ENDBRANCH   1  19
TORSDOF 13
ENDMDL
MODEL 9
REMARK VINA RESULT:      -5.3     14.201     16.322
REMARK  13 active torsions:
REMARK  status: ('A' for Active; 'I' for Inactive)
REMARK    1  A    between atoms: C_3  and  C_10 
REMARK    2  A    between atoms: C_6  and  N_7 
REMARK    3  A    between atoms: C_10  and  N_11 
REMARK    4  A    between atoms: N_11  and  C_12 
REMARK    5  A    between atoms: N_11  and  C_17 
REMARK    6  A    between atoms: C_12  and  P_13 
REMARK    7  A    between atoms: P_13  and  O_15 
REMARK    8  A    between atoms: P_13  and  O_16 
REMARK    9  A    between atoms: C_17  and  C_18 
REMARK   10  A    between atoms: C_18  and  C_19 
REMARK   11  A    between atoms: C_19  and  C_20 
REMARK   12  A    between atoms: C_20  and  C_21 
REMARK   13  A    between atoms: C_21  and  O_22 
ROOT
HETATM    1  N   UNK N   1      29.448  18.155   7.381  0.00  0.00     0.103 N 
ENDROOT
BRANCH   1   2
HETATM    2  C   UNK N   1      29.067  17.193   6.343  0.00  0.00     0.311 C 
BRANCH   2   3
HETATM    3  C   UNK N   1      30.194  16.657   5.494  0.00  0.00    -0.030 A 
HETATM    4  C   UNK N   1      30.548  15.300   5.486  0.00  0.00     0.011 A 
HETATM    5  C   UNK N   1      31.664  14.862   4.779  0.00  0.00     0.037 A 
HETATM    6  C   UNK N   1      32.438  15.772   4.050  0.00  0.00     0.102 A 
HETATM    7  C   UNK N   1      32.061  17.125   4.021  0.00  0.00     0.037 A 
HETATM    8  C   UNK N   1      30.949  17.563   4.745  0.00  0.00     0.011 A 
BRANCH   6   9
HETATM    9  N   UNK N   1      33.603  15.328   3.368  0.00  0.00    -0.116 N 
HETATM   10  O   UNK N   1      34.398  14.631   3.925  0.00  0.00    -0.532 OA
HETATM   11  O   UNK N   1      33.787  15.636   2.103  0.00  0.00    -0.532 OA
ENDBRANCH   6   9
ENDBRANCH   2   3
ENDBRANCH   1   2
BRANCH   1  12
HETATM   12  C   UNK N   1      28.369  19.124   7.561  0.00  0.00     0.396 C 
BRANCH  12  13
HETATM   13  P   UNK N   1      27.243  19.165   6.066  0.00  0.00     0.264 P 
HETATM   14  O   UNK N   1      27.927  20.332   5.327  0.00  0.00    -0.652 OA
BRANCH  13  15
HETATM   15  O   UNK N   1      26.473  20.231   7.199  0.00  0.00    -0.328 OA
HETATM   16  H   UNK N   1      26.823  20.901   7.809  0.00  0.00     0.220 HD
ENDBRANCH  13  15
BRANCH  13  17
HETATM   17  O   UNK N   1      25.675  19.320   5.329  0.00  0.00    -0.328 OA
HETATM   18  H   UNK N   1      25.090  20.089   5.411  0.00  0.00     0.220 HD
ENDBRANCH  13  17
ENDBRANCH  12  13
ENDBRANCH   1  12
BRANCH   1  19
HETATM   19  C   UNK N   1      29.527  17.352   8.601  0.00  0.00     0.273 C 
BRANCH  19  20
HETATM   20  C   UNK N   1      30.944  16.878   8.870  0.00  0.00     0.031 C 
BRANCH  20  21
HETATM   21  C   UNK N   1      31.933  17.963   8.499  0.00  0.00     0.012 C 
BRANCH  21  22
HETATM   22  C   UNK N   1      33.339  17.418   8.640  0.00  0.00     0.110 C 
BRANCH  22  23
HETATM   23  C   UNK N   1      34.295  18.222   7.827  0.00  0.00     0.139 C 
HETATM   24  O   UNK N   1      34.985  19.077   8.358  0.00  0.00    -0.650 OA
BRANCH  23  25
HETATM   25  O   UNK N   1      34.410  17.988   6.507  0.00  0.00    -0.776 OA
HETATM   26  H   UNK N   1      33.675  17.851   5.944  0.00  0.00     0.167 HD
ENDBRANCH  23  25
ENDBRANCH  22  23
ENDBRANCH  21  22
ENDBRANCH  20  21
ENDBRANCH  19  20
ENDBRANCH   1  19
TORSDOF 13
ENDMDL
