MODEL 1
REMARK VINA RESULT:      -6.7      0.000      0.000
REMARK  4 active torsions:
REMARK  status: ('A' for Active; 'I' for Inactive)
REMARK    1  A    between atoms: C_1  and  C_14 
REMARK    2  A    between atoms: C_11  and  C_7 
REMARK       I    between atoms: C_11  and  N_12 
REMARK    3  A    between atoms: N_17  and  C_20 
REMARK    4  A    between atoms: C_21  and  C_20 
ROOT
HETATM    1  C   UNK N   1      26.992  18.819   5.345  0.00  0.00     0.086 A 
HETATM    2  N   UNK N   1      27.315  18.705   6.656  0.00  0.00    -0.343 N 
HETATM    3  C   UNK N   1      28.545  18.179   6.650  0.00  0.00     0.076 A 
HETATM    4  C   UNK N   1      28.944  17.975   5.365  0.00  0.00     0.061 A 
HETATM    5  N   UNK N   1      27.973  18.359   4.519  0.00  0.00    -0.344 N 
ATOM      6  HN  UNK N   1      27.971  18.316   3.500  1.00  0.00     0.167 HD
HETATM    7  C   UNK N   1      29.340  17.840   7.747  0.00  0.00     0.060 A 
HETATM    8  C   UNK N   1      30.604  17.274   7.471  0.00  0.00     0.019 A 
HETATM    9  C   UNK N   1      31.023  17.066   6.135  0.00  0.00     0.003 A 
HETATM   10  C   UNK N   1      30.182  17.416   5.058  0.00  0.00     0.032 A 
HETATM   11  H   UNK N   1      26.767  18.953   7.436  0.00  0.00     0.167 HD
ENDROOT
BRANCH   1  12
HETATM   12  C   UNK N   1      25.626  19.233   4.895  0.00  0.00     0.057 C 
HETATM   13  C   UNK N   1      25.685  19.957   3.556  0.00  0.00     0.042 C 
HETATM   14  C   UNK N   1      24.305  20.517   3.249  0.00  0.00     0.273 C 
HETATM   15  N   UNK N   1      23.307  19.449   3.188  0.00  0.00     0.088 N 
HETATM   16  C   UNK N   1      23.247  18.743   4.476  0.00  0.00     0.273 C 
HETATM   17  C   UNK N   1      24.600  18.111   4.824  0.00  0.00     0.042 C 
BRANCH  15  18
HETATM   18  C   UNK N   1      22.038  20.133   2.990  0.00  0.00     0.272 C 
BRANCH  18  19
HETATM   19  C   UNK N   1      20.910  19.427   3.716  0.00  0.00     0.026 C 
HETATM   20  C   UNK N   1      19.989  18.795   2.694  0.00  0.00     0.007 C 
ENDBRANCH  18  19
ENDBRANCH  15  18
ENDBRANCH   1  12
BRANCH   7  21
HETATM   21  C   UNK N   1      28.883  18.048   9.143  0.00  0.00     0.251 C 
HETATM   22  N   UNK N   1      29.707  18.603  10.055  0.00  0.00    -0.366 N 
HETATM   23  H   UNK N   1      29.393  18.753  10.975  0.00  0.00     0.159 HD
HETATM   24  H   UNK N   1      30.622  18.858   9.798  0.00  0.00     0.159 HD
HETATM   25  O   UNK N   1      27.757  17.712   9.483  0.00  0.00    -0.268 OA
ENDBRANCH   7  21
TORSDOF 4
ENDMDL
MODEL 2
REMARK VINA RESULT:      -6.6      8.351     12.286
REMARK  4 active torsions:
REMARK  status: ('A' for Active; 'I' for Inactive)
REMARK    1  A    between atoms: C_1  and  C_14 
REMARK    2  A    between atoms: C_11  and  C_7 
REMARK       I    between atoms: C_11  and  N_12 
REMARK    3  A    between atoms: N_17  and  C_20 
REMARK    4  A    between atoms: C_21  and  C_20 
ROOT
HETATM    1  C   UNK N   1      35.132  13.351  12.326  0.00  0.00     0.086 A 
HETATM    2  N   UNK N   1      35.469  13.732  13.581  0.00  0.00    -0.343 N 
HETATM    3  C   UNK N   1      35.147  12.682  14.344  0.00  0.00     0.076 A 
HETATM    4  C   UNK N   1      34.622  11.699  13.563  0.00  0.00     0.061 A 
HETATM    5  N   UNK N   1      34.589  12.103  12.282  0.00  0.00    -0.344 N 
ATOM      6  HN  UNK N   1      34.239  11.595  11.470  1.00  0.00     0.167 HD
HETATM    7  C   UNK N   1      35.274  12.555  15.729  0.00  0.00     0.060 A 
HETATM    8  C   UNK N   1      34.838  11.341  16.303  0.00  0.00     0.019 A 
HETATM    9  C   UNK N   1      34.297  10.315  15.491  0.00  0.00     0.003 A 
HETATM   10  C   UNK N   1      34.180  10.491  14.097  0.00  0.00     0.032 A 
HETATM   11  H   UNK N   1      35.861  14.590  13.867  0.00  0.00     0.167 HD
ENDROOT
BRANCH   1  12
HETATM   12  C   UNK N   1      35.190  14.295  11.165  0.00  0.00     0.057 C 
HETATM   13  C   UNK N   1      34.146  13.939  10.115  0.00  0.00     0.042 C 
HETATM   14  C   UNK N   1      34.381  14.804   8.887  0.00  0.00     0.273 C 
HETATM   15  N   UNK N   1      34.280  16.225   9.219  0.00  0.00     0.088 N 
HETATM   16  C   UNK N   1      35.283  16.576  10.235  0.00  0.00     0.273 C 
HETATM   17  C   UNK N   1      35.073  15.769  11.522  0.00  0.00     0.042 C 
BRANCH  15  18
HETATM   18  C   UNK N   1      34.623  16.923   7.989  0.00  0.00     0.272 C 
BRANCH  18  19
HETATM   19  C   UNK N   1      33.928  18.268   7.904  0.00  0.00     0.026 C 
HETATM   20  C   UNK N   1      32.453  18.076   8.186  0.00  0.00     0.007 C 
ENDBRANCH  18  19
ENDBRANCH  15  18
ENDBRANCH   1  12
BRANCH   7  21
HETATM   21  C   UNK N   1      35.828  13.644  16.571  0.00  0.00     0.251 C 
HETATM   22  N   UNK N   1      35.335  13.869  17.805  0.00  0.00    -0.366 N 
HETATM   23  H   UNK N   1      35.717  14.582  18.365  0.00  0.00     0.159 HD
HETATM   24  H   UNK N   1      34.593  13.320  18.145  0.00  0.00     0.159 HD
HETATM   25  O   UNK N   1      36.733  14.352  16.151  0.00  0.00    -0.268 OA
ENDBRANCH   7  21
TORSDOF 4
ENDMDL
MODEL 3
REMARK VINA RESULT:      -6.5      4.935     10.522
REMARK  4 active torsions:
REMARK  status: ('A' for Active; 'I' for Inactive)
REMARK    1  A    between atoms: C_1  and  C_14 
REMARK    2  A    between atoms: C_11  and  C_7 
REMARK       I    between atoms: C_11  and  N_12 
REMARK    3  A    between atoms: N_17  and  C_20 
REMARK    4  A    between atoms: C_21  and  C_20 
ROOT
HETATM    1  C   UNK N   1      32.402  15.663   8.939  0.00  0.00     0.086 A 
HETATM    2  N   UNK N   1      31.390  16.488   9.301  0.00  0.00    -0.343 N 
HETATM    3  C   UNK N   1      30.782  16.794   8.150  0.00  0.00     0.076 A 
HETATM    4  C   UNK N   1      31.422  16.172   7.122  0.00  0.00     0.061 A 
HETATM    5  N   UNK N   1      32.460  15.461   7.593  0.00  0.00    -0.344 N 
ATOM      6  HN  UNK N   1      33.132  14.902   7.068  1.00  0.00     0.167 HD
HETATM    7  C   UNK N   1      29.682  17.630   7.955  0.00  0.00     0.060 A 
HETATM    8  C   UNK N   1      29.241  17.808   6.625  0.00  0.00     0.019 A 
HETATM    9  C   UNK N   1      29.902  17.158   5.555  0.00  0.00     0.003 A 
HETATM   10  C   UNK N   1      31.014  16.328   5.799  0.00  0.00     0.032 A 
HETATM   11  H   UNK N   1      31.157  16.793  10.208  0.00  0.00     0.167 HD
ENDROOT
BRANCH   1  12
HETATM   12  C   UNK N   1      33.436  15.196   9.915  0.00  0.00     0.057 C 
HETATM   13  C   UNK N   1      33.942  13.805   9.555  0.00  0.00     0.042 C 
HETATM   14  C   UNK N   1      34.838  13.310  10.679  0.00  0.00     0.273 C 
HETATM   15  N   UNK N   1      35.974  14.210  10.880  0.00  0.00     0.088 N 
HETATM   16  C   UNK N   1      35.493  15.556  11.224  0.00  0.00     0.273 C 
HETATM   17  C   UNK N   1      34.618  16.135  10.106  0.00  0.00     0.042 C 
BRANCH  15  18
HETATM   18  C   UNK N   1      36.678  13.674  12.035  0.00  0.00     0.272 C 
BRANCH  18  19
HETATM   19  C   UNK N   1      35.777  13.616  13.253  0.00  0.00     0.026 C 
HETATM   20  C   UNK N   1      36.570  14.043  14.470  0.00  0.00     0.007 C 
ENDBRANCH  18  19
ENDBRANCH  15  18
ENDBRANCH   1  12
BRANCH   7  21
HETATM   21  C   UNK N   1      29.008  18.319   9.083  0.00  0.00     0.251 C 
HETATM   22  N   UNK N   1      27.667  18.453   9.096  0.00  0.00    -0.366 N 
HETATM   23  H   UNK N   1      27.224  18.897   9.855  0.00  0.00     0.159 HD
HETATM   24  H   UNK N   1      27.131  18.107   8.347  0.00  0.00     0.159 HD
HETATM   25  O   UNK N   1      29.663  18.778  10.008  0.00  0.00    -0.268 OA
ENDBRANCH   7  21
TORSDOF 4
ENDMDL
MODEL 4
REMARK VINA RESULT:      -6.4      2.197      7.511
REMARK  4 active torsions:
REMARK  status: ('A' for Active; 'I' for Inactive)
REMARK    1  A    between atoms: C_1  and  C_14 
REMARK    2  A    between atoms: C_11  and  C_7 
REMARK       I    between atoms: C_11  and  N_12 
REMARK    3  A    between atoms: N_17  and  C_20 
REMARK    4  A    between atoms: C_21  and  C_20 
ROOT
HETATM    1  C   UNK N   1      27.835  18.649   4.790  0.00  0.00     0.086 A 
HETATM    2  N   UNK N   1      26.623  18.127   5.096  0.00  0.00    -0.343 N 
HETATM    3  C   UNK N   1      25.760  18.843   4.368  0.00  0.00     0.076 A 
HETATM    4  C   UNK N   1      26.440  19.778   3.649  0.00  0.00     0.061 A 
HETATM    5  N   UNK N   1      27.755  19.685   3.910  0.00  0.00    -0.344 N 
ATOM      6  HN  UNK N   1      28.514  20.255   3.536  1.00  0.00     0.167 HD
HETATM    7  C   UNK N   1      24.370  18.726   4.323  0.00  0.00     0.060 A 
HETATM    8  C   UNK N   1      23.678  19.625   3.482  0.00  0.00     0.019 A 
HETATM    9  C   UNK N   1      24.385  20.594   2.729  0.00  0.00     0.003 A 
HETATM   10  C   UNK N   1      25.789  20.681   2.812  0.00  0.00     0.032 A 
HETATM   11  H   UNK N   1      26.424  17.388   5.716  0.00  0.00     0.167 HD
ENDROOT
BRANCH   1  12
HETATM   12  C   UNK N   1      29.084  18.233   5.503  0.00  0.00     0.057 C 
HETATM   13  C   UNK N   1      28.772  17.717   6.902  0.00  0.00     0.042 C 
HETATM   14  C   UNK N   1      30.083  17.495   7.638  0.00  0.00     0.273 C 
HETATM   15  N   UNK N   1      30.923  16.526   6.934  0.00  0.00     0.088 N 
HETATM   16  C   UNK N   1      31.225  17.014   5.580  0.00  0.00     0.273 C 
HETATM   17  C   UNK N   1      29.943  17.216   4.765  0.00  0.00     0.042 C 
BRANCH  15  18
HETATM   18  C   UNK N   1      32.168  16.489   7.687  0.00  0.00     0.272 C 
BRANCH  18  19
HETATM   19  C   UNK N   1      32.493  17.845   8.283  0.00  0.00     0.026 C 
HETATM   20  C   UNK N   1      33.917  18.210   7.922  0.00  0.00     0.007 C 
ENDBRANCH  18  19
ENDBRANCH  15  18
ENDBRANCH   1  12
BRANCH   7  21
HETATM   21  C   UNK N   1      23.639  17.716   5.129  0.00  0.00     0.251 C 
HETATM   22  N   UNK N   1      22.581  18.081   5.881  0.00  0.00    -0.366 N 
HETATM   23  H   UNK N   1      22.091  17.404   6.401  0.00  0.00     0.159 HD
HETATM   24  H   UNK N   1      22.301  19.023   5.910  0.00  0.00     0.159 HD
HETATM   25  O   UNK N   1      23.993  16.546   5.124  0.00  0.00    -0.268 OA
ENDBRANCH   7  21
TORSDOF 4
ENDMDL
MODEL 5
REMARK VINA RESULT:      -6.4     11.028     13.750
REMARK  4 active torsions:
REMARK  status: ('A' for Active; 'I' for Inactive)
REMARK    1  A    between atoms: C_1  and  C_14 
REMARK    2  A    between atoms: C_11  and  C_7 
REMARK       I    between atoms: C_11  and  N_12 
REMARK    3  A    between atoms: N_17  and  C_20 
REMARK    4  A    between atoms: C_21  and  C_20 
ROOT
HETATM    1  C   UNK N   1      28.074  24.047  -4.632  0.00  0.00     0.086 A 
HETATM    2  N   UNK N   1      27.551  25.101  -3.960  0.00  0.00    -0.343 N 
HETATM    3  C   UNK N   1      26.729  25.682  -4.842  0.00  0.00     0.076 A 
HETATM    4  C   UNK N   1      26.766  24.995  -6.016  0.00  0.00     0.061 A 
HETATM    5  N   UNK N   1      27.621  23.963  -5.914  0.00  0.00    -0.344 N 
ATOM      6  HN  UNK N   1      27.872  23.278  -6.628  1.00  0.00     0.167 HD
HETATM    7  C   UNK N   1      25.950  26.826  -4.664  0.00  0.00     0.060 A 
HETATM    8  C   UNK N   1      25.177  27.251  -5.767  0.00  0.00     0.019 A 
HETATM    9  C   UNK N   1      25.210  26.534  -6.988  0.00  0.00     0.003 A 
HETATM   10  C   UNK N   1      26.019  25.388  -7.124  0.00  0.00     0.032 A 
HETATM   11  H   UNK N   1      27.736  25.377  -3.033  0.00  0.00     0.167 HD
ENDROOT
BRANCH   1  12
HETATM   12  C   UNK N   1      29.167  23.201  -4.058  0.00  0.00     0.057 C 
HETATM   13  C   UNK N   1      30.053  22.628  -5.157  0.00  0.00     0.042 C 
HETATM   14  C   UNK N   1      31.016  21.632  -4.532  0.00  0.00     0.273 C 
HETATM   15  N   UNK N   1      31.848  22.274  -3.514  0.00  0.00     0.088 N 
HETATM   16  C   UNK N   1      31.000  22.833  -2.452  0.00  0.00     0.273 C 
HETATM   17  C   UNK N   1      30.033  23.884  -3.010  0.00  0.00     0.042 C 
BRANCH  15  18
HETATM   18  C   UNK N   1      32.638  21.196  -2.940  0.00  0.00     0.272 C 
BRANCH  18  19
HETATM   19  C   UNK N   1      33.911  20.961  -3.729  0.00  0.00     0.026 C 
HETATM   20  C   UNK N   1      34.056  19.479  -3.996  0.00  0.00     0.007 C 
ENDBRANCH  18  19
ENDBRANCH  15  18
ENDBRANCH   1  12
BRANCH   7  21
HETATM   21  C   UNK N   1      25.935  27.578  -3.385  0.00  0.00     0.251 C 
HETATM   22  N   UNK N   1      25.871  28.924  -3.387  0.00  0.00    -0.366 N 
HETATM   23  H   UNK N   1      25.846  29.417  -2.535  0.00  0.00     0.159 HD
HETATM   24  H   UNK N   1      25.849  29.414  -4.240  0.00  0.00     0.159 HD
HETATM   25  O   UNK N   1      25.989  26.984  -2.317  0.00  0.00    -0.268 OA
ENDBRANCH   7  21
TORSDOF 4
ENDMDL
MODEL 6
REMARK VINA RESULT:      -6.4     10.778     12.279
REMARK  4 active torsions:
REMARK  status: ('A' for Active; 'I' for Inactive)
REMARK    1  A    between atoms: C_1  and  C_14 
REMARK    2  A    between atoms: C_11  and  C_7 
REMARK       I    between atoms: C_11  and  N_12 
REMARK    3  A    between atoms: N_17  and  C_20 
REMARK    4  A    between atoms: C_21  and  C_20 
ROOT
HETATM    1  C   UNK N   1      29.060  23.916  -4.953  0.00  0.00     0.086 A 
HETATM    2  N   UNK N   1      29.979  23.410  -4.097  0.00  0.00    -0.343 N 
HETATM    3  C   UNK N   1      30.351  22.252  -4.656  0.00  0.00     0.076 A 
HETATM    4  C   UNK N   1      29.662  22.068  -5.815  0.00  0.00     0.061 A 
HETATM    5  N   UNK N   1      28.827  23.101  -6.019  0.00  0.00    -0.344 N 
ATOM      6  HN  UNK N   1      28.175  23.241  -6.790  1.00  0.00     0.167 HD
HETATM    7  C   UNK N   1      31.269  21.320  -4.170  0.00  0.00     0.060 A 
HETATM    8  C   UNK N   1      31.470  20.156  -4.945  0.00  0.00     0.019 A 
HETATM    9  C   UNK N   1      30.758  19.965  -6.154  0.00  0.00     0.003 A 
HETATM   10  C   UNK N   1      29.834  20.931  -6.601  0.00  0.00     0.032 A 
HETATM   11  H   UNK N   1      30.301  23.805  -3.254  0.00  0.00     0.167 HD
ENDROOT
BRANCH   1  12
HETATM   12  C   UNK N   1      28.270  25.147  -4.635  0.00  0.00     0.057 C 
HETATM   13  C   UNK N   1      27.762  25.818  -5.906  0.00  0.00     0.042 C 
HETATM   14  C   UNK N   1      27.139  27.153  -5.531  0.00  0.00     0.273 C 
HETATM   15  N   UNK N   1      26.030  26.971  -4.595  0.00  0.00     0.088 N 
HETATM   16  C   UNK N   1      26.511  26.320  -3.367  0.00  0.00     0.273 C 
HETATM   17  C   UNK N   1      27.112  24.942  -3.669  0.00  0.00     0.042 C 
BRANCH  15  18
HETATM   18  C   UNK N   1      25.602  28.319  -4.252  0.00  0.00     0.272 C 
BRANCH  18  19
HETATM   19  C   UNK N   1      26.742  29.310  -4.384  0.00  0.00     0.026 C 
HETATM   20  C   UNK N   1      26.379  30.576  -3.638  0.00  0.00     0.007 C 
ENDBRANCH  18  19
ENDBRANCH  15  18
ENDBRANCH   1  12
BRANCH   7  21
HETATM   21  C   UNK N   1      31.997  21.524  -2.893  0.00  0.00     0.251 C 
HETATM   22  N   UNK N   1      33.149  20.866  -2.653  0.00  0.00    -0.366 N 
HETATM   23  H   UNK N   1      33.636  21.018  -1.811  0.00  0.00     0.159 HD
HETATM   24  H   UNK N   1      33.502  20.235  -3.319  0.00  0.00     0.159 HD
HETATM   25  O   UNK N   1      31.556  22.286  -2.044  0.00  0.00    -0.268 OA
ENDBRANCH   7  21
TORSDOF 4
ENDMDL
MODEL 7
REMARK VINA RESULT:      -6.4     11.133     15.529
REMARK  4 active torsions:
REMARK  status: ('A' for Active; 'I' for Inactive)
REMARK    1  A    between atoms: C_1  and  C_14 
REMARK    2  A    between atoms: C_11  and  C_7 
REMARK       I    between atoms: C_11  and  N_12 
REMARK    3  A    between atoms: N_17  and  C_20 
REMARK    4  A    between atoms: C_21  and  C_20 
ROOT
HETATM    1  C   UNK N   1      36.699  12.611  13.720  0.00  0.00     0.086 A 
HETATM    2  N   UNK N   1      35.928  13.550  13.123  0.00  0.00    -0.343 N 
HETATM    3  C   UNK N   1      36.482  13.718  11.917  0.00  0.00     0.076 A 
HETATM    4  C   UNK N   1      37.565  12.902  11.799  0.00  0.00     0.061 A 
HETATM    5  N   UNK N   1      37.732  12.200  12.933  0.00  0.00    -0.344 N 
ATOM      6  HN  UNK N   1      38.461  11.521  13.152  1.00  0.00     0.167 HD
HETATM    7  C   UNK N   1      36.084  14.591  10.903  0.00  0.00     0.060 A 
HETATM    8  C   UNK N   1      36.857  14.593   9.720  0.00  0.00     0.019 A 
HETATM    9  C   UNK N   1      37.981  13.740   9.594  0.00  0.00     0.003 A 
HETATM   10  C   UNK N   1      38.349  12.881  10.649  0.00  0.00     0.032 A 
HETATM   11  H   UNK N   1      35.138  14.008  13.494  0.00  0.00     0.167 HD
ENDROOT
BRANCH   1  12
HETATM   12  C   UNK N   1      36.518  12.227  15.155  0.00  0.00     0.057 C 
HETATM   13  C   UNK N   1      35.284  12.893  15.751  0.00  0.00     0.042 C 
HETATM   14  C   UNK N   1      35.264  12.621  17.246  0.00  0.00     0.273 C 
HETATM   15  N   UNK N   1      35.226  11.184  17.519  0.00  0.00     0.088 N 
HETATM   16  C   UNK N   1      36.411  10.533  16.943  0.00  0.00     0.273 C 
HETATM   17  C   UNK N   1      36.469  10.729  15.424  0.00  0.00     0.042 C 
BRANCH  15  18
HETATM   18  C   UNK N   1      35.310  11.075  18.967  0.00  0.00     0.272 C 
BRANCH  18  19
HETATM   19  C   UNK N   1      36.499  10.234  19.389  0.00  0.00     0.026 C 
HETATM   20  C   UNK N   1      36.828  10.541  20.835  0.00  0.00     0.007 C 
ENDBRANCH  18  19
ENDBRANCH  15  18
ENDBRANCH   1  12
BRANCH   7  21
HETATM   21  C   UNK N   1      34.914  15.491  11.053  0.00  0.00     0.251 C 
HETATM   22  N   UNK N   1      35.063  16.826  10.944  0.00  0.00    -0.366 N 
HETATM   23  H   UNK N   1      34.281  17.417  11.029  0.00  0.00     0.159 HD
HETATM   24  H   UNK N   1      35.954  17.209  10.779  0.00  0.00     0.159 HD
HETATM   25  O   UNK N   1      33.805  15.031  11.284  0.00  0.00    -0.268 OA
ENDBRANCH   7  21
TORSDOF 4
ENDMDL
MODEL 8
REMARK VINA RESULT:      -6.4      7.984     12.425
REMARK  4 active torsions:
REMARK  status: ('A' for Active; 'I' for Inactive)
REMARK    1  A    between atoms: C_1  and  C_14 
REMARK    2  A    between atoms: C_11  and  C_7 
REMARK       I    between atoms: C_11  and  N_12 
REMARK    3  A    between atoms: N_17  and  C_20 
REMARK    4  A    between atoms: C_21  and  C_20 
ROOT
HETATM    1  C   UNK N   1      34.665  15.381  10.622  0.00  0.00     0.086 A 
HETATM    2  N   UNK N   1      34.039  14.722   9.618  0.00  0.00    -0.343 N 
HETATM    3  C   UNK N   1      33.818  15.662   8.691  0.00  0.00     0.076 A 
HETATM    4  C   UNK N   1      34.295  16.856   9.136  0.00  0.00     0.061 A 
HETATM    5  N   UNK N   1      34.824  16.708  10.363  0.00  0.00    -0.344 N 
ATOM      6  HN  UNK N   1      35.245  17.421  10.958  1.00  0.00     0.167 HD
HETATM    7  C   UNK N   1      33.183  15.519   7.457  0.00  0.00     0.060 A 
HETATM    8  C   UNK N   1      33.055  16.680   6.664  0.00  0.00     0.019 A 
HETATM    9  C   UNK N   1      33.555  17.923   7.123  0.00  0.00     0.003 A 
HETATM   10  C   UNK N   1      34.183  18.021   8.381  0.00  0.00     0.032 A 
HETATM   11  H   UNK N   1      33.799  13.767   9.579  0.00  0.00     0.167 HD
ENDROOT
BRANCH   1  12
HETATM   12  C   UNK N   1      34.967  14.728  11.935  0.00  0.00     0.057 C 
HETATM   13  C   UNK N   1      34.912  13.210  11.820  0.00  0.00     0.042 C 
HETATM   14  C   UNK N   1      35.034  12.615  13.213  0.00  0.00     0.273 C 
HETATM   15  N   UNK N   1      36.291  13.015  13.847  0.00  0.00     0.088 N 
HETATM   16  C   UNK N   1      36.353  14.480  13.958  0.00  0.00     0.273 C 
HETATM   17  C   UNK N   1      36.282  15.144  12.578  0.00  0.00     0.042 C 
BRANCH  15  18
HETATM   18  C   UNK N   1      36.226  12.464  15.192  0.00  0.00     0.272 C 
BRANCH  18  19
HETATM   19  C   UNK N   1      34.920  12.823  15.874  0.00  0.00     0.026 C 
HETATM   20  C   UNK N   1      35.147  12.880  17.369  0.00  0.00     0.007 C 
ENDBRANCH  18  19
ENDBRANCH  15  18
ENDBRANCH   1  12
BRANCH   7  21
HETATM   21  C   UNK N   1      32.648  14.214   6.994  0.00  0.00     0.251 C 
HETATM   22  N   UNK N   1      31.463  14.151   6.353  0.00  0.00    -0.366 N 
HETATM   23  H   UNK N   1      31.122  13.285   6.034  0.00  0.00     0.159 HD
HETATM   24  H   UNK N   1      30.942  14.972   6.205  0.00  0.00     0.159 HD
HETATM   25  O   UNK N   1      33.273  13.182   7.195  0.00  0.00    -0.268 OA
ENDBRANCH   7  21
TORSDOF 4
ENDMDL
MODEL 9
REMARK VINA RESULT:      -6.2      4.257      6.815
REMARK  4 active torsions:
REMARK  status: ('A' for Active; 'I' for Inactive)
REMARK    1  A    between atoms: C_1  and  C_14 
REMARK    2  A    between atoms: C_11  and  C_7 
REMARK       I    between atoms: C_11  and  N_12 
REMARK    3  A    between atoms: N_17  and  C_20 
REMARK    4  A    between atoms: C_21  and  C_20 
ROOT
HETATM    1  C   UNK N   1      32.018  16.313   8.309  0.00  0.00     0.086 A 
HETATM    2  N   UNK N   1      33.092  16.567   9.095  0.00  0.00    -0.343 N 
HETATM    3  C   UNK N   1      33.753  15.405   9.138  0.00  0.00     0.076 A 
HETATM    4  C   UNK N   1      33.085  14.476   8.402  0.00  0.00     0.061 A 
HETATM    5  N   UNK N   1      31.975  15.022   7.877  0.00  0.00    -0.344 N 
ATOM      6  HN  UNK N   1      31.268  14.576   7.293  1.00  0.00     0.167 HD
HETATM    7  C   UNK N   1      34.929  15.112   9.830  0.00  0.00     0.060 A 
HETATM    8  C   UNK N   1      35.418  13.790   9.731  0.00  0.00     0.019 A 
HETATM    9  C   UNK N   1      34.727  12.824   8.960  0.00  0.00     0.003 A 
HETATM   10  C   UNK N   1      33.537  13.164   8.285  0.00  0.00     0.032 A 
HETATM   11  H   UNK N   1      33.330  17.415   9.535  0.00  0.00     0.167 HD
ENDROOT
BRANCH   1  12
HETATM   12  C   UNK N   1      30.922  17.313   8.112  0.00  0.00     0.057 C 
HETATM   13  C   UNK N   1      30.082  16.975   6.887  0.00  0.00     0.042 C 
HETATM   14  C   UNK N   1      29.117  18.121   6.630  0.00  0.00     0.273 C 
HETATM   15  N   UNK N   1      28.241  18.337   7.782  0.00  0.00     0.088 N 
HETATM   16  C   UNK N   1      29.045  18.661   8.970  0.00  0.00     0.273 C 
HETATM   17  C   UNK N   1      30.011  17.521   9.313  0.00  0.00     0.042 C 
BRANCH  15  18
HETATM   18  C   UNK N   1      27.452  19.510   7.438  0.00  0.00     0.272 C 
BRANCH  18  19
HETATM   19  C   UNK N   1      27.696  19.940   6.005  0.00  0.00     0.026 C 
HETATM   20  C   UNK N   1      27.220  21.366   5.833  0.00  0.00     0.007 C 
ENDBRANCH  18  19
ENDBRANCH  15  18
ENDBRANCH   1  12
BRANCH   7  21
HETATM   21  C   UNK N   1      35.636  16.129  10.648  0.00  0.00     0.251 C 
HETATM   22  N   UNK N   1      36.385  15.754  11.704  0.00  0.00    -0.366 N 
HETATM   23  H   UNK N   1      36.864  16.432  12.233  0.00  0.00     0.159 HD
HETATM   24  H   UNK N   1      36.452  14.802  11.945  0.00  0.00     0.159 HD
HETATM   25  O   UNK N   1      35.540  17.317  10.376  0.00  0.00    -0.268 OA
ENDBRANCH   7  21
TORSDOF 4
ENDMDL
