REMARK  4 active torsions:
REMARK  status: ('A' for Active; 'I' for Inactive)
REMARK    1  A    between atoms: C_1  and  C_14 
REMARK    2  A    between atoms: C_11  and  C_7 
REMARK       I    between atoms: C_11  and  N_12 
REMARK    3  A    between atoms: N_17  and  C_20 
REMARK    4  A    between atoms: C_21  and  C_20 
ROOT
HETATM    1  C   UNK N   1       1.617   0.432  -0.114  0.00  0.00     0.086 A 
HETATM    2  N   UNK N   1       2.296  -0.739  -0.068  0.00  0.00    -0.343 N 
HETATM    3  C   UNK N   1       3.582  -0.375  -0.008  0.00  0.00     0.076 A 
HETATM    4  C   UNK N   1       3.669   0.983  -0.026  0.00  0.00     0.061 A 
HETATM    5  N   UNK N   1       2.439   1.518  -0.107  0.00  0.00    -0.344 N 
ATOM      6  HN  UNK N   1       2.182   2.504  -0.152  1.00  0.00     0.167 HD
HETATM    7  C   UNK N   1       4.707  -1.200   0.039  0.00  0.00     0.060 A 
HETATM    8  C   UNK N   1       5.967  -0.563   0.076  0.00  0.00     0.019 A 
HETATM    9  C   UNK N   1       6.059   0.850   0.063  0.00  0.00     0.003 A 
HETATM   10  C   UNK N   1       4.895   1.643   0.007  0.00  0.00     0.032 A 
HETATM   11  H   UNK N   1       1.926  -1.652  -0.078  0.00  0.00     0.167 HD
ENDROOT
BRANCH   1  12
HETATM   12  C   UNK N   1       0.138   0.486  -0.337  0.00  0.00     0.057 C 
HETATM   13  C   UNK N   1      -0.544  -0.769   0.193  0.00  0.00     0.042 C 
HETATM   14  C   UNK N   1      -2.003  -0.742  -0.232  0.00  0.00     0.273 C 
HETATM   15  N   UNK N   1      -2.681   0.444   0.292  0.00  0.00     0.088 N 
HETATM   16  C   UNK N   1      -2.026   1.660  -0.212  0.00  0.00     0.273 C 
HETATM   17  C   UNK N   1      -0.557   1.719   0.223  0.00  0.00     0.042 C 
BRANCH  15  18
HETATM   18  C   UNK N   1      -4.022   0.389  -0.270  0.00  0.00     0.272 C 
BRANCH  18  19
HETATM   19  C   UNK N   1      -4.961   1.340   0.446  0.00  0.00     0.026 C 
HETATM   20  C   UNK N   1      -6.368   1.118  -0.066  0.00  0.00     0.007 C 
ENDBRANCH  18  19
ENDBRANCH  15  18
ENDBRANCH   1  12
BRANCH   7  21
HETATM   21  C   UNK N   1       4.598  -2.680   0.036  0.00  0.00     0.251 C 
HETATM   22  N   UNK N   1       5.708  -3.445   0.055  0.00  0.00    -0.366 N 
HETATM   23  H   UNK N   1       5.629  -4.426   0.069  0.00  0.00     0.159 HD
HETATM   24  H   UNK N   1       6.596  -3.022   0.055  0.00  0.00     0.159 HD
HETATM   25  O   UNK N   1       3.501  -3.220   0.009  0.00  0.00    -0.268 OA
ENDBRANCH   7  21
TORSDOF 4
