REMARK  4 active torsions:
REMARK  status: ('A' for Active; 'I' for Inactive)
REMARK    1  A    between atoms: C_1  and  C_2 
REMARK    2  A    between atoms: C_1  and  O_13 
REMARK    3  A    between atoms: C_2  and  C_3 
REMARK    4  A    between atoms: C_6  and  N_7 
ROOT
HETATM    1  C   UNK N   1       0.504   0.636  -0.000  0.00  0.00    -0.048 A 
HETATM    2  C   UNK N   1       0.528  -0.763  -0.000  0.00  0.00     0.010 A 
HETATM    3  C   UNK N   1      -0.652  -1.497  -0.000  0.00  0.00     0.036 A 
HETATM    4  C   UNK N   1      -1.887  -0.846  -0.000  0.00  0.00     0.102 A 
HETATM    5  C   UNK N   1      -1.925   0.560   0.000  0.00  0.00     0.036 A 
HETATM    6  C   UNK N   1      -0.732   1.296   0.000  0.00  0.00     0.010 A 
ENDROOT
BRANCH   1   7
HETATM    7  C   UNK N   1       1.770   1.454  -0.000  0.00  0.00     0.148 C 
BRANCH   7   8
HETATM    8  C   UNK N   1       3.097   0.725   0.000  0.00  0.00     0.143 C 
HETATM    9  O   UNK N   1       4.127   1.375   0.000  0.00  0.00    -0.650 OA
BRANCH   8  10
HETATM   10  O   UNK N   1       3.175  -0.621   0.000  0.00  0.00    -0.776 OA
HETATM   11  H   UNK N   1       2.392  -1.135   0.000  0.00  0.00     0.167 HD
ENDBRANCH   8  10
ENDBRANCH   7   8
ENDBRANCH   1   7
BRANCH   4  12
HETATM   12  N   UNK N   1      -3.084  -1.611   0.000  0.00  0.00    -0.116 N 
HETATM   13  O   UNK N   1      -4.148  -1.072   0.000  0.00  0.00    -0.532 OA
HETATM   14  O   UNK N   1      -3.023  -2.927  -0.000  0.00  0.00    -0.532 OA
ENDBRANCH   4  12
TORSDOF 4
