MODEL 1
REMARK VINA RESULT:      -5.5      0.000      0.000
REMARK  4 active torsions:
REMARK  status: ('A' for Active; 'I' for Inactive)
REMARK    1  A    between atoms: C_1  and  C_2 
REMARK    2  A    between atoms: C_1  and  O_13 
REMARK    3  A    between atoms: C_2  and  C_3 
REMARK    4  A    between atoms: C_6  and  N_7 
ROOT
HETATM    1  C   UNK N   1      29.970  17.260   7.414  0.00  0.00    -0.048 A 
HETATM    2  C   UNK N   1      30.629  16.862   6.246  0.00  0.00     0.010 A 
HETATM    3  C   UNK N   1      32.009  16.983   6.128  0.00  0.00     0.036 A 
HETATM    4  C   UNK N   1      32.762  17.507   7.180  0.00  0.00     0.102 A 
HETATM    5  C   UNK N   1      32.112  17.911   8.360  0.00  0.00     0.036 A 
HETATM    6  C   UNK N   1      30.720  17.787   8.474  0.00  0.00     0.010 A 
ENDROOT
BRANCH   1   7
HETATM    7  C   UNK N   1      28.475  17.139   7.566  0.00  0.00     0.148 C 
BRANCH   7   8
HETATM    8  C   UNK N   1      27.839  17.641   8.844  0.00  0.00     0.143 C 
HETATM    9  O   UNK N   1      27.640  16.854   9.752  0.00  0.00    -0.650 OA
BRANCH   8  10
HETATM   10  O   UNK N   1      27.486  18.932   9.010  0.00  0.00    -0.776 OA
HETATM   11  H   UNK N   1      26.982  19.367   8.352  0.00  0.00     0.167 HD
ENDBRANCH   8  10
ENDBRANCH   7   8
ENDBRANCH   1   7
BRANCH   4  12
HETATM   12  N   UNK N   1      34.172  17.625   7.044  0.00  0.00    -0.116 N 
HETATM   13  O   UNK N   1      34.777  16.877   6.339  0.00  0.00    -0.532 OA
HETATM   14  O   UNK N   1      34.819  18.565   7.700  0.00  0.00    -0.532 OA
ENDBRANCH   4  12
TORSDOF 4
ENDMDL
MODEL 2
REMARK VINA RESULT:      -5.4      9.722     11.132
REMARK  4 active torsions:
REMARK  status: ('A' for Active; 'I' for Inactive)
REMARK    1  A    between atoms: C_1  and  C_2 
REMARK    2  A    between atoms: C_1  and  O_13 
REMARK    3  A    between atoms: C_2  and  C_3 
REMARK    4  A    between atoms: C_6  and  N_7 
ROOT
HETATM    1  C   UNK N   1      22.105  12.727  10.204  0.00  0.00    -0.048 A 
HETATM    2  C   UNK N   1      20.783  13.094  10.481  0.00  0.00     0.010 A 
HETATM    3  C   UNK N   1      20.164  14.118   9.775  0.00  0.00     0.036 A 
HETATM    4  C   UNK N   1      20.855  14.801   8.773  0.00  0.00     0.102 A 
HETATM    5  C   UNK N   1      22.184  14.443   8.485  0.00  0.00     0.036 A 
HETATM    6  C   UNK N   1      22.805  13.409   9.200  0.00  0.00     0.010 A 
ENDROOT
BRANCH   1   7
HETATM    7  C   UNK N   1      22.798  11.620  10.956  0.00  0.00     0.148 C 
BRANCH   7   8
HETATM    8  C   UNK N   1      23.863  11.993  11.966  0.00  0.00     0.143 C 
HETATM    9  O   UNK N   1      23.569  12.029  13.147  0.00  0.00    -0.650 OA
BRANCH   8  10
HETATM   10  O   UNK N   1      25.127  12.286  11.599  0.00  0.00    -0.776 OA
HETATM   11  H   UNK N   1      25.394  13.180  11.514  0.00  0.00     0.167 HD
ENDBRANCH   8  10
ENDBRANCH   7   8
ENDBRANCH   1   7
BRANCH   4  12
HETATM   12  N   UNK N   1      20.208  15.846   8.061  0.00  0.00    -0.116 N 
HETATM   13  O   UNK N   1      19.225  15.626   7.422  0.00  0.00    -0.532 OA
HETATM   14  O   UNK N   1      20.694  17.070   8.103  0.00  0.00    -0.532 OA
ENDBRANCH   4  12
TORSDOF 4
ENDMDL
MODEL 3
REMARK VINA RESULT:      -5.3      2.575      3.146
REMARK  4 active torsions:
REMARK  status: ('A' for Active; 'I' for Inactive)
REMARK    1  A    between atoms: C_1  and  C_2 
REMARK    2  A    between atoms: C_1  and  O_13 
REMARK    3  A    between atoms: C_2  and  C_3 
REMARK    4  A    between atoms: C_6  and  N_7 
ROOT
HETATM    1  C   UNK N   1      31.399  17.027   6.398  0.00  0.00    -0.048 A 
HETATM    2  C   UNK N   1      32.672  17.088   5.821  0.00  0.00     0.010 A 
HETATM    3  C   UNK N   1      33.773  17.497   6.563  0.00  0.00     0.036 A 
HETATM    4  C   UNK N   1      33.626  17.856   7.904  0.00  0.00     0.102 A 
HETATM    5  C   UNK N   1      32.352  17.799   8.496  0.00  0.00     0.036 A 
HETATM    6  C   UNK N   1      31.244  17.385   7.744  0.00  0.00     0.010 A 
ENDROOT
BRANCH   1   7
HETATM    7  C   UNK N   1      30.189  16.586   5.614  0.00  0.00     0.148 C 
BRANCH   7   8
HETATM    8  C   UNK N   1      29.612  17.538   4.588  0.00  0.00     0.143 C 
HETATM    9  O   UNK N   1      28.975  18.503   4.972  0.00  0.00    -0.650 OA
BRANCH   8  10
HETATM   10  O   UNK N   1      29.780  17.352   3.264  0.00  0.00    -0.776 OA
HETATM   11  H   UNK N   1      29.886  18.090   2.697  0.00  0.00     0.167 HD
ENDBRANCH   8  10
ENDBRANCH   7   8
ENDBRANCH   1   7
BRANCH   4  12
HETATM   12  N   UNK N   1      34.762  18.272   8.648  0.00  0.00    -0.116 N 
HETATM   13  O   UNK N   1      35.317  19.295   8.387  0.00  0.00    -0.532 OA
HETATM   14  O   UNK N   1      35.210  17.525   9.637  0.00  0.00    -0.532 OA
ENDBRANCH   4  12
TORSDOF 4
ENDMDL
MODEL 4
REMARK VINA RESULT:      -5.2      2.267      5.363
REMARK  4 active torsions:
REMARK  status: ('A' for Active; 'I' for Inactive)
REMARK    1  A    between atoms: C_1  and  C_2 
REMARK    2  A    between atoms: C_1  and  O_13 
REMARK    3  A    between atoms: C_2  and  C_3 
REMARK    4  A    between atoms: C_6  and  N_7 
ROOT
HETATM    1  C   UNK N   1      31.985  17.433   8.200  0.00  0.00    -0.048 A 
HETATM    2  C   UNK N   1      31.581  16.600   7.151  0.00  0.00     0.010 A 
HETATM    3  C   UNK N   1      30.264  16.600   6.706  0.00  0.00     0.036 A 
HETATM    4  C   UNK N   1      29.319  17.436   7.302  0.00  0.00     0.102 A 
HETATM    5  C   UNK N   1      29.712  18.278   8.358  0.00  0.00     0.036 A 
HETATM    6  C   UNK N   1      31.041  18.275   8.803  0.00  0.00     0.010 A 
ENDROOT
BRANCH   1   7
HETATM    7  C   UNK N   1      33.406  17.451   8.700  0.00  0.00     0.148 C 
BRANCH   7   8
HETATM    8  C   UNK N   1      34.430  18.258   7.929  0.00  0.00     0.143 C 
HETATM    9  O   UNK N   1      34.525  18.094   6.726  0.00  0.00    -0.650 OA
BRANCH   8  10
HETATM   10  O   UNK N   1      35.239  19.152   8.532  0.00  0.00    -0.776 OA
HETATM   11  H   UNK N   1      36.111  18.907   8.770  0.00  0.00     0.167 HD
ENDBRANCH   8  10
ENDBRANCH   7   8
ENDBRANCH   1   7
BRANCH   4  12
HETATM   12  N   UNK N   1      27.977  17.424   6.835  0.00  0.00    -0.116 N 
HETATM   13  O   UNK N   1      27.475  18.417   6.407  0.00  0.00    -0.532 OA
HETATM   14  O   UNK N   1      27.278  16.308   6.875  0.00  0.00    -0.532 OA
ENDBRANCH   4  12
TORSDOF 4
ENDMDL
MODEL 5
REMARK VINA RESULT:      -5.1     15.779     16.646
REMARK  4 active torsions:
REMARK  status: ('A' for Active; 'I' for Inactive)
REMARK    1  A    between atoms: C_1  and  C_2 
REMARK    2  A    between atoms: C_1  and  O_13 
REMARK    3  A    between atoms: C_2  and  C_3 
REMARK    4  A    between atoms: C_6  and  N_7 
ROOT
HETATM    1  C   UNK N   1      26.010  24.034  -6.049  0.00  0.00    -0.048 A 
HETATM    2  C   UNK N   1      25.637  25.200  -6.727  0.00  0.00     0.010 A 
HETATM    3  C   UNK N   1      25.586  26.423  -6.069  0.00  0.00     0.036 A 
HETATM    4  C   UNK N   1      25.907  26.508  -4.713  0.00  0.00     0.102 A 
HETATM    5  C   UNK N   1      26.283  25.344  -4.020  0.00  0.00     0.036 A 
HETATM    6  C   UNK N   1      26.334  24.112  -4.688  0.00  0.00     0.010 A 
ENDROOT
BRANCH   1   7
HETATM    7  C   UNK N   1      26.073  22.697  -6.740  0.00  0.00     0.148 C 
BRANCH   7   8
HETATM    8  C   UNK N   1      24.788  22.103  -7.277  0.00  0.00     0.143 C 
HETATM    9  O   UNK N   1      24.179  21.300  -6.594  0.00  0.00    -0.650 OA
BRANCH   8  10
HETATM   10  O   UNK N   1      24.296  22.436  -8.488  0.00  0.00    -0.776 OA
HETATM   11  H   UNK N   1      24.612  23.200  -8.927  0.00  0.00     0.167 HD
ENDBRANCH   8  10
ENDBRANCH   7   8
ENDBRANCH   1   7
BRANCH   4  12
HETATM   12  N   UNK N   1      25.849  27.766  -4.055  0.00  0.00    -0.116 N 
HETATM   13  O   UNK N   1      26.128  28.768  -4.639  0.00  0.00    -0.532 OA
HETATM   14  O   UNK N   1      25.485  27.830  -2.791  0.00  0.00    -0.532 OA
ENDBRANCH   4  12
TORSDOF 4
ENDMDL
MODEL 6
REMARK VINA RESULT:      -5.1     13.392     14.527
REMARK  4 active torsions:
REMARK  status: ('A' for Active; 'I' for Inactive)
REMARK    1  A    between atoms: C_1  and  C_2 
REMARK    2  A    between atoms: C_1  and  O_13 
REMARK    3  A    between atoms: C_2  and  C_3 
REMARK    4  A    between atoms: C_6  and  N_7 
ROOT
HETATM    1  C   UNK N   1      28.910  24.175  -3.777  0.00  0.00    -0.048 A 
HETATM    2  C   UNK N   1      29.260  25.498  -4.067  0.00  0.00     0.010 A 
HETATM    3  C   UNK N   1      28.297  26.500  -4.103  0.00  0.00     0.036 A 
HETATM    4  C   UNK N   1      26.957  26.199  -3.850  0.00  0.00     0.102 A 
HETATM    5  C   UNK N   1      26.592  24.872  -3.558  0.00  0.00     0.036 A 
HETATM    6  C   UNK N   1      27.567  23.866  -3.522  0.00  0.00     0.010 A 
ENDROOT
BRANCH   1   7
HETATM    7  C   UNK N   1      29.936  23.072  -3.732  0.00  0.00     0.148 C 
BRANCH   7   8
HETATM    8  C   UNK N   1      30.616  22.776  -2.412  0.00  0.00     0.143 C 
HETATM    9  O   UNK N   1      31.693  22.209  -2.417  0.00  0.00    -0.650 OA
BRANCH   8  10
HETATM   10  O   UNK N   1      30.066  23.121  -1.230  0.00  0.00    -0.776 OA
HETATM   11  H   UNK N   1      29.686  22.464  -0.681  0.00  0.00     0.167 HD
ENDBRANCH   8  10
ENDBRANCH   7   8
ENDBRANCH   1   7
BRANCH   4  12
HETATM   12  N   UNK N   1      25.985  27.234  -3.892  0.00  0.00    -0.116 N 
HETATM   13  O   UNK N   1      25.553  27.618  -4.935  0.00  0.00    -0.532 OA
HETATM   14  O   UNK N   1      25.554  27.776  -2.771  0.00  0.00    -0.532 OA
ENDBRANCH   4  12
TORSDOF 4
ENDMDL
MODEL 7
REMARK VINA RESULT:      -5.0     13.385     14.110
REMARK  4 active torsions:
REMARK  status: ('A' for Active; 'I' for Inactive)
REMARK    1  A    between atoms: C_1  and  C_2 
REMARK    2  A    between atoms: C_1  and  O_13 
REMARK    3  A    between atoms: C_2  and  C_3 
REMARK    4  A    between atoms: C_6  and  N_7 
ROOT
HETATM    1  C   UNK N   1      28.293  23.103  -5.809  0.00  0.00    -0.048 A 
HETATM    2  C   UNK N   1      29.331  22.165  -5.769  0.00  0.00     0.010 A 
HETATM    3  C   UNK N   1      30.108  22.010  -4.628  0.00  0.00     0.036 A 
HETATM    4  C   UNK N   1      29.864  22.791  -3.497  0.00  0.00     0.102 A 
HETATM    5  C   UNK N   1      28.824  23.737  -3.524  0.00  0.00     0.036 A 
HETATM    6  C   UNK N   1      28.042  23.891  -4.678  0.00  0.00     0.010 A 
ENDROOT
BRANCH   1   7
HETATM    7  C   UNK N   1      27.436  23.290  -7.035  0.00  0.00     0.148 C 
BRANCH   7   8
HETATM    8  C   UNK N   1      25.943  23.455  -6.850  0.00  0.00     0.143 C 
HETATM    9  O   UNK N   1      25.430  24.526  -7.122  0.00  0.00    -0.650 OA
BRANCH   8  10
HETATM   10  O   UNK N   1      25.162  22.455  -6.394  0.00  0.00    -0.776 OA
HETATM   11  H   UNK N   1      25.000  21.706  -6.932  0.00  0.00     0.167 HD
ENDBRANCH   8  10
ENDBRANCH   7   8
ENDBRANCH   1   7
BRANCH   4  12
HETATM   12  N   UNK N   1      30.668  22.620  -2.338  0.00  0.00    -0.116 N 
HETATM   13  O   UNK N   1      30.321  23.066  -1.288  0.00  0.00    -0.532 OA
HETATM   14  O   UNK N   1      31.807  21.963  -2.419  0.00  0.00    -0.532 OA
ENDBRANCH   4  12
TORSDOF 4
ENDMDL
MODEL 8
REMARK VINA RESULT:      -4.9     13.774     14.379
REMARK  4 active torsions:
REMARK  status: ('A' for Active; 'I' for Inactive)
REMARK    1  A    between atoms: C_1  and  C_2 
REMARK    2  A    between atoms: C_1  and  O_13 
REMARK    3  A    between atoms: C_2  and  C_3 
REMARK    4  A    between atoms: C_6  and  N_7 
ROOT
HETATM    1  C   UNK N   1      27.801  26.210  -4.309  0.00  0.00    -0.048 A 
HETATM    2  C   UNK N   1      29.199  26.173  -4.264  0.00  0.00     0.010 A 
HETATM    3  C   UNK N   1      29.867  25.088  -3.709  0.00  0.00     0.036 A 
HETATM    4  C   UNK N   1      29.150  24.011  -3.185  0.00  0.00     0.102 A 
HETATM    5  C   UNK N   1      27.744  24.036  -3.224  0.00  0.00     0.036 A 
HETATM    6  C   UNK N   1      27.075  25.132  -3.785  0.00  0.00     0.010 A 
ENDROOT
BRANCH   1   7
HETATM    7  C   UNK N   1      27.054  27.375  -4.905  0.00  0.00     0.148 C 
BRANCH   7   8
HETATM    8  C   UNK N   1      25.631  27.624  -4.452  0.00  0.00     0.143 C 
HETATM    9  O   UNK N   1      24.716  27.361  -5.212  0.00  0.00    -0.650 OA
BRANCH   8  10
HETATM   10  O   UNK N   1      25.344  28.128  -3.235  0.00  0.00    -0.776 OA
HETATM   11  H   UNK N   1      24.528  28.564  -3.090  0.00  0.00     0.167 HD
ENDBRANCH   8  10
ENDBRANCH   7   8
ENDBRANCH   1   7
BRANCH   4  12
HETATM   12  N   UNK N   1      29.848  22.910  -2.622  0.00  0.00    -0.116 N 
HETATM   13  O   UNK N   1      29.946  21.883  -3.221  0.00  0.00    -0.532 OA
HETATM   14  O   UNK N   1      30.393  23.018  -1.427  0.00  0.00    -0.532 OA
ENDBRANCH   4  12
TORSDOF 4
ENDMDL
MODEL 9
REMARK VINA RESULT:      -4.9     10.885     12.116
REMARK  4 active torsions:
REMARK  status: ('A' for Active; 'I' for Inactive)
REMARK    1  A    between atoms: C_1  and  C_2 
REMARK    2  A    between atoms: C_1  and  O_13 
REMARK    3  A    between atoms: C_2  and  C_3 
REMARK    4  A    between atoms: C_6  and  N_7 
ROOT
HETATM    1  C   UNK N   1      35.994  12.360  15.722  0.00  0.00    -0.048 A 
HETATM    2  C   UNK N   1      35.571  13.520  16.379  0.00  0.00     0.010 A 
HETATM    3  C   UNK N   1      35.220  13.491  17.724  0.00  0.00     0.036 A 
HETATM    4  C   UNK N   1      35.286  12.296  18.443  0.00  0.00     0.102 A 
HETATM    5  C   UNK N   1      35.710  11.123  17.794  0.00  0.00     0.036 A 
HETATM    6  C   UNK N   1      36.062  11.157  16.438  0.00  0.00     0.010 A 
ENDROOT
BRANCH   1   7
HETATM    7  C   UNK N   1      36.379  12.366  14.264  0.00  0.00     0.148 C 
BRANCH   7   8
HETATM    8  C   UNK N   1      35.946  13.540  13.411  0.00  0.00     0.143 C 
HETATM    9  O   UNK N   1      34.816  13.554  12.958  0.00  0.00    -0.650 OA
BRANCH   8  10
HETATM   10  O   UNK N   1      36.772  14.569  13.138  0.00  0.00    -0.776 OA
HETATM   11  H   UNK N   1      36.540  15.438  13.401  0.00  0.00     0.167 HD
ENDBRANCH   8  10
ENDBRANCH   7   8
ENDBRANCH   1   7
BRANCH   4  12
HETATM   12  N   UNK N   1      34.925  12.284  19.817  0.00  0.00    -0.116 N 
HETATM   13  O   UNK N   1      34.898  11.260  20.428  0.00  0.00    -0.532 OA
HETATM   14  O   UNK N   1      34.615  13.410  20.426  0.00  0.00    -0.532 OA
ENDBRANCH   4  12
TORSDOF 4
ENDMDL
