MODEL 1
REMARK VINA RESULT:      -6.5      0.000      0.000
REMARK  5 active torsions:
REMARK  status: ('A' for Active; 'I' for Inactive)
REMARK    1  A    between atoms: C_1  and  C_2 
REMARK       I    between atoms: C_1  and  N_4 
REMARK    2  A    between atoms: C_2  and  C_5 
REMARK    3  A    between atoms: C_2  and  N_13 
REMARK    4  A    between atoms: N_13  and  C_14 
REMARK    5  A    between atoms: C_15  and  C_20 
ROOT
HETATM    1  C   UNK N   1      28.283  23.887  -4.253  0.00  0.00     0.211 C 
ENDROOT
BRANCH   1   2
HETATM    2  C   UNK N   1      27.787  23.809  -2.829  0.00  0.00     0.242 C 
HETATM    3  O   UNK N   1      26.715  24.312  -2.528  0.00  0.00    -0.271 OA
HETATM    4  N   UNK N   1      28.479  23.111  -1.903  0.00  0.00    -0.368 N 
HETATM    5  H   UNK N   1      29.079  22.750  -1.211  0.00  0.00     0.159 HD
HETATM    6  H   UNK N   1      27.944  22.290  -1.993  0.00  0.00     0.159 HD
ENDBRANCH   1   2
BRANCH   1   7
HETATM    7  C   UNK N   1      28.203  25.274  -4.938  0.00  0.00     0.017 A 
HETATM    8  C   UNK N   1      29.095  26.376  -4.682  0.00  0.00     0.044 A 
HETATM    9  C   UNK N   1      28.924  27.586  -5.360  0.00  0.00     0.024 A 
HETATM   10 Cl   UNK N   1      30.397  26.397  -3.498  0.00  0.00    -0.084 Cl
HETATM   11  C   UNK N   1      27.903  27.758  -6.282  0.00  0.00     0.003 A 
HETATM   12  C   UNK N   1      27.009  26.727  -6.519  0.00  0.00     0.024 A 
HETATM   13  C   UNK N   1      27.137  25.502  -5.862  0.00  0.00     0.044 A 
HETATM   14 Cl   UNK N   1      25.902  24.297  -6.213  0.00  0.00    -0.084 Cl
ENDBRANCH   1   7
BRANCH   1  15
HETATM   15  N   UNK N   1      29.654  23.384  -4.306  0.00  0.00    -0.372 N 
HETATM   16  H   UNK N   1      30.353  23.920  -3.866  0.00  0.00     0.161 HD
BRANCH  15  17
HETATM   17  C   UNK N   1      30.059  22.171  -4.949  0.00  0.00     0.043 A 
HETATM   18  C   UNK N   1      31.079  21.345  -4.394  0.00  0.00     0.036 A 
HETATM   19  C   UNK N   1      31.448  20.173  -5.079  0.00  0.00     0.018 A 
HETATM   20  C   UNK N   1      30.823  19.803  -6.268  0.00  0.00     0.008 A 
HETATM   21  C   UNK N   1      29.824  20.607  -6.806  0.00  0.00    -0.060 A 
HETATM   22  C   UNK N   1      29.456  21.783  -6.157  0.00  0.00     0.037 A 
HETATM   23  C   UNK N   1      29.142  20.208  -8.064  0.00  0.00     0.048 C 
BRANCH  18  24
HETATM   24  C   UNK N   1      31.801  21.651  -3.122  0.00  0.00     0.158 C 
HETATM   25  O   UNK N   1      31.246  22.319  -2.263  0.00  0.00    -0.293 OA
HETATM   26  C   UNK N   1      33.195  21.190  -2.857  0.00  0.00     0.097 C 
ENDBRANCH  18  24
ENDBRANCH  15  17
ENDBRANCH   1  15
TORSDOF 5
ENDMDL
MODEL 2
REMARK VINA RESULT:      -6.4     11.048     13.217
REMARK  5 active torsions:
REMARK  status: ('A' for Active; 'I' for Inactive)
REMARK    1  A    between atoms: C_1  and  C_2 
REMARK       I    between atoms: C_1  and  N_4 
REMARK    2  A    between atoms: C_2  and  C_5 
REMARK    3  A    between atoms: C_2  and  N_13 
REMARK    4  A    between atoms: N_13  and  C_14 
REMARK    5  A    between atoms: C_15  and  C_20 
ROOT
HETATM    1  C   UNK N   1      29.930  16.349   5.878  0.00  0.00     0.211 C 
ENDROOT
BRANCH   1   2
HETATM    2  C   UNK N   1      29.901  14.864   5.607  0.00  0.00     0.242 C 
HETATM    3  O   UNK N   1      30.844  14.164   5.945  0.00  0.00    -0.271 OA
HETATM    4  N   UNK N   1      28.803  14.290   5.071  0.00  0.00    -0.368 N 
HETATM    5  H   UNK N   1      28.070  13.923   4.526  0.00  0.00     0.159 HD
HETATM    6  H   UNK N   1      28.423  14.005   5.933  0.00  0.00     0.159 HD
ENDBRANCH   1   2
BRANCH   1   7
HETATM    7  C   UNK N   1      31.272  16.934   6.387  0.00  0.00     0.017 A 
HETATM    8  C   UNK N   1      32.477  17.041   5.605  0.00  0.00     0.044 A 
HETATM    9  C   UNK N   1      33.633  17.584   6.172  0.00  0.00     0.024 A 
HETATM   10 Cl   UNK N   1      32.691  16.468   3.954  0.00  0.00    -0.084 Cl
HETATM   11  C   UNK N   1      33.653  18.025   7.485  0.00  0.00     0.003 A 
HETATM   12  C   UNK N   1      32.518  17.899   8.271  0.00  0.00     0.024 A 
HETATM   13  C   UNK N   1      31.342  17.359   7.750  0.00  0.00     0.044 A 
HETATM   14 Cl   UNK N   1      29.992  17.204   8.869  0.00  0.00    -0.084 Cl
ENDBRANCH   1   7
BRANCH   1  15
HETATM   15  N   UNK N   1      29.502  17.060   4.675  0.00  0.00    -0.372 N 
HETATM   16  H   UNK N   1      30.029  16.925   3.855  0.00  0.00     0.161 HD
BRANCH  15  17
HETATM   17  C   UNK N   1      28.374  17.938   4.598  0.00  0.00     0.043 A 
HETATM   18  C   UNK N   1      27.235  17.610   3.808  0.00  0.00     0.036 A 
HETATM   19  C   UNK N   1      26.163  18.520   3.757  0.00  0.00     0.018 A 
HETATM   20  C   UNK N   1      26.192  19.714   4.475  0.00  0.00     0.008 A 
HETATM   21  C   UNK N   1      27.302  20.030   5.250  0.00  0.00    -0.060 A 
HETATM   22  C   UNK N   1      28.385  19.156   5.300  0.00  0.00     0.037 A 
HETATM   23  C   UNK N   1      27.331  21.293   6.032  0.00  0.00     0.048 C 
BRANCH  18  24
HETATM   24  C   UNK N   1      27.105  16.354   3.011  0.00  0.00     0.158 C 
HETATM   25  O   UNK N   1      28.112  15.805   2.588  0.00  0.00    -0.293 OA
HETATM   26  C   UNK N   1      25.785  15.740   2.684  0.00  0.00     0.097 C 
ENDBRANCH  18  24
ENDBRANCH  15  17
ENDBRANCH   1  15
TORSDOF 5
ENDMDL
MODEL 3
REMARK VINA RESULT:      -6.4     10.975     13.401
REMARK  5 active torsions:
REMARK  status: ('A' for Active; 'I' for Inactive)
REMARK    1  A    between atoms: C_1  and  C_2 
REMARK       I    between atoms: C_1  and  N_4 
REMARK    2  A    between atoms: C_2  and  C_5 
REMARK    3  A    between atoms: C_2  and  N_13 
REMARK    4  A    between atoms: N_13  and  C_14 
REMARK    5  A    between atoms: C_15  and  C_20 
ROOT
HETATM    1  C   UNK N   1      22.766  16.357   4.949  0.00  0.00     0.211 C 
ENDROOT
BRANCH   1   2
HETATM    2  C   UNK N   1      22.161  15.748   6.191  0.00  0.00     0.242 C 
HETATM    3  O   UNK N   1      21.665  16.468   7.044  0.00  0.00    -0.271 OA
HETATM    4  N   UNK N   1      22.087  14.407   6.326  0.00  0.00    -0.368 N 
HETATM    5  H   UNK N   1      22.200  13.441   6.483  0.00  0.00     0.159 HD
HETATM    6  H   UNK N   1      21.161  14.336   6.002  0.00  0.00     0.159 HD
ENDBRANCH   1   2
BRANCH   1   7
HETATM    7  C   UNK N   1      22.187  15.881   3.592  0.00  0.00     0.017 A 
HETATM    8  C   UNK N   1      20.826  16.073   3.161  0.00  0.00     0.044 A 
HETATM    9  C   UNK N   1      20.414  15.596   1.914  0.00  0.00     0.024 A 
HETATM   10 Cl   UNK N   1      19.537  16.810   4.107  0.00  0.00    -0.084 Cl
HETATM   11  C   UNK N   1      21.290  14.932   1.070  0.00  0.00     0.003 A 
HETATM   12  C   UNK N   1      22.595  14.703   1.476  0.00  0.00     0.024 A 
HETATM   13  C   UNK N   1      23.050  15.155   2.715  0.00  0.00     0.044 A 
HETATM   14 Cl   UNK N   1      24.712  14.748   3.131  0.00  0.00    -0.084 Cl
ENDBRANCH   1   7
BRANCH   1  15
HETATM   15  N   UNK N   1      22.680  17.813   5.043  0.00  0.00    -0.372 N 
HETATM   16  H   UNK N   1      22.024  18.190   5.673  0.00  0.00     0.161 HD
BRANCH  15  17
HETATM   17  C   UNK N   1      23.477  18.733   4.291  0.00  0.00     0.043 A 
HETATM   18  C   UNK N   1      22.880  19.685   3.416  0.00  0.00     0.036 A 
HETATM   19  C   UNK N   1      23.715  20.553   2.688  0.00  0.00     0.018 A 
HETATM   20  C   UNK N   1      25.101  20.507   2.825  0.00  0.00     0.008 A 
HETATM   21  C   UNK N   1      25.682  19.581   3.684  0.00  0.00    -0.060 A 
HETATM   22  C   UNK N   1      24.878  18.697   4.399  0.00  0.00     0.037 A 
HETATM   23  C   UNK N   1      27.159  19.539   3.848  0.00  0.00     0.048 C 
BRANCH  18  24
HETATM   24  C   UNK N   1      21.407  19.818   3.207  0.00  0.00     0.158 C 
HETATM   25  O   UNK N   1      20.692  20.119   4.151  0.00  0.00    -0.293 OA
HETATM   26  C   UNK N   1      20.756  19.576   1.887  0.00  0.00     0.097 C 
ENDBRANCH  18  24
ENDBRANCH  15  17
ENDBRANCH   1  15
TORSDOF 5
ENDMDL
MODEL 4
REMARK VINA RESULT:      -6.4      2.664      5.740
REMARK  5 active torsions:
REMARK  status: ('A' for Active; 'I' for Inactive)
REMARK    1  A    between atoms: C_1  and  C_2 
REMARK       I    between atoms: C_1  and  N_4 
REMARK    2  A    between atoms: C_2  and  C_5 
REMARK    3  A    between atoms: C_2  and  N_13 
REMARK    4  A    between atoms: N_13  and  C_14 
REMARK    5  A    between atoms: C_15  and  C_20 
ROOT
HETATM    1  C   UNK N   1      29.569  24.082  -3.408  0.00  0.00     0.211 C 
ENDROOT
BRANCH   1   2
HETATM    2  C   UNK N   1      29.567  23.259  -2.141  0.00  0.00     0.242 C 
HETATM    3  O   UNK N   1      30.623  22.981  -1.593  0.00  0.00    -0.271 OA
HETATM    4  N   UNK N   1      28.401  22.901  -1.563  0.00  0.00    -0.368 N 
HETATM    5  H   UNK N   1      27.553  22.506  -1.257  0.00  0.00     0.159 HD
HETATM    6  H   UNK N   1      28.389  23.646  -0.920  0.00  0.00     0.159 HD
ENDBRANCH   1   2
BRANCH   1   7
HETATM    7  C   UNK N   1      30.873  24.061  -4.244  0.00  0.00     0.017 A 
HETATM    8  C   UNK N   1      31.394  22.909  -4.935  0.00  0.00     0.044 A 
HETATM    9  C   UNK N   1      32.585  23.008  -5.659  0.00  0.00     0.024 A 
HETATM   10 Cl   UNK N   1      30.703  21.290  -4.910  0.00  0.00    -0.084 Cl
HETATM   11  C   UNK N   1      33.291  24.198  -5.727  0.00  0.00     0.003 A 
HETATM   12  C   UNK N   1      32.832  25.311  -5.041  0.00  0.00     0.024 A 
HETATM   13  C   UNK N   1      31.650  25.259  -4.302  0.00  0.00     0.044 A 
HETATM   14 Cl   UNK N   1      31.210  26.726  -3.433  0.00  0.00    -0.084 Cl
ENDBRANCH   1   7
BRANCH   1  15
HETATM   15  N   UNK N   1      28.438  23.678  -4.239  0.00  0.00    -0.372 N 
HETATM   16  H   UNK N   1      28.402  22.738  -4.532  0.00  0.00     0.161 HD
BRANCH  15  17
HETATM   17  C   UNK N   1      27.378  24.542  -4.660  0.00  0.00     0.043 A 
HETATM   18  C   UNK N   1      26.578  24.232  -5.798  0.00  0.00     0.036 A 
HETATM   19  C   UNK N   1      25.562  25.128  -6.176  0.00  0.00     0.018 A 
HETATM   20  C   UNK N   1      25.316  26.292  -5.449  0.00  0.00     0.008 A 
HETATM   21  C   UNK N   1      26.094  26.591  -4.336  0.00  0.00    -0.060 A 
HETATM   22  C   UNK N   1      27.120  25.730  -3.955  0.00  0.00     0.037 A 
HETATM   23  C   UNK N   1      25.826  27.821  -3.547  0.00  0.00     0.048 C 
BRANCH  18  24
HETATM   24  C   UNK N   1      26.757  23.007  -6.635  0.00  0.00     0.158 C 
HETATM   25  O   UNK N   1      27.885  22.599  -6.867  0.00  0.00    -0.293 OA
HETATM   26  C   UNK N   1      25.609  22.261  -7.226  0.00  0.00     0.097 C 
ENDBRANCH  18  24
ENDBRANCH  15  17
ENDBRANCH   1  15
TORSDOF 5
ENDMDL
MODEL 5
REMARK VINA RESULT:      -6.3      1.975      2.612
REMARK  5 active torsions:
REMARK  status: ('A' for Active; 'I' for Inactive)
REMARK    1  A    between atoms: C_1  and  C_2 
REMARK       I    between atoms: C_1  and  N_4 
REMARK    2  A    between atoms: C_2  and  C_5 
REMARK    3  A    between atoms: C_2  and  N_13 
REMARK    4  A    between atoms: N_13  and  C_14 
REMARK    5  A    between atoms: C_15  and  C_20 
ROOT
HETATM    1  C   UNK N   1      29.807  23.198  -3.850  0.00  0.00     0.211 C 
ENDROOT
BRANCH   1   2
HETATM    2  C   UNK N   1      30.672  22.840  -2.664  0.00  0.00     0.242 C 
HETATM    3  O   UNK N   1      30.307  23.127  -1.534  0.00  0.00    -0.271 OA
HETATM    4  N   UNK N   1      31.805  22.128  -2.838  0.00  0.00    -0.368 N 
HETATM    5  H   UNK N   1      32.706  21.764  -3.002  0.00  0.00     0.159 HD
HETATM    6  H   UNK N   1      31.395  21.257  -2.633  0.00  0.00     0.159 HD
ENDBRANCH   1   2
BRANCH   1   7
HETATM    7  C   UNK N   1      29.458  24.698  -4.024  0.00  0.00     0.017 A 
HETATM    8  C   UNK N   1      30.411  25.742  -4.298  0.00  0.00     0.044 A 
HETATM    9  C   UNK N   1      29.981  27.065  -4.432  0.00  0.00     0.024 A 
HETATM   10 Cl   UNK N   1      32.156  25.543  -4.417  0.00  0.00    -0.084 Cl
HETATM   11  C   UNK N   1      28.643  27.404  -4.302  0.00  0.00     0.003 A 
HETATM   12  C   UNK N   1      27.711  26.425  -4.002  0.00  0.00     0.024 A 
HETATM   13  C   UNK N   1      28.095  25.091  -3.854  0.00  0.00     0.044 A 
HETATM   14 Cl   UNK N   1      26.821  23.957  -3.417  0.00  0.00    -0.084 Cl
ENDBRANCH   1   7
BRANCH   1  15
HETATM   15  N   UNK N   1      30.434  22.689  -5.067  0.00  0.00    -0.372 N 
HETATM   16  H   UNK N   1      31.370  22.943  -5.237  0.00  0.00     0.161 HD
BRANCH  15  17
HETATM   17  C   UNK N   1      29.793  21.849  -6.032  0.00  0.00     0.043 A 
HETATM   18  C   UNK N   1      30.349  20.590  -6.402  0.00  0.00     0.036 A 
HETATM   19  C   UNK N   1      29.683  19.814  -7.369  0.00  0.00     0.018 A 
HETATM   20  C   UNK N   1      28.491  20.246  -7.947  0.00  0.00     0.008 A 
HETATM   21  C   UNK N   1      27.947  21.472  -7.581  0.00  0.00    -0.060 A 
HETATM   22  C   UNK N   1      28.598  22.267  -6.642  0.00  0.00     0.037 A 
HETATM   23  C   UNK N   1      26.667  21.930  -8.181  0.00  0.00     0.048 C 
BRANCH  18  24
HETATM   24  C   UNK N   1      31.615  20.037  -5.833  0.00  0.00     0.158 C 
HETATM   25  O   UNK N   1      31.675  19.781  -4.640  0.00  0.00    -0.293 OA
HETATM   26  C   UNK N   1      32.832  19.799  -6.662  0.00  0.00     0.097 C 
ENDBRANCH  18  24
ENDBRANCH  15  17
ENDBRANCH   1  15
TORSDOF 5
ENDMDL
MODEL 6
REMARK VINA RESULT:      -6.2     12.199     15.427
REMARK  5 active torsions:
REMARK  status: ('A' for Active; 'I' for Inactive)
REMARK    1  A    between atoms: C_1  and  C_2 
REMARK       I    between atoms: C_1  and  N_4 
REMARK    2  A    between atoms: C_2  and  C_5 
REMARK    3  A    between atoms: C_2  and  N_13 
REMARK    4  A    between atoms: N_13  and  C_14 
REMARK    5  A    between atoms: C_15  and  C_20 
ROOT
HETATM    1  C   UNK N   1      33.346  15.875   6.867  0.00  0.00     0.211 C 
ENDROOT
BRANCH   1   2
HETATM    2  C   UNK N   1      34.344  15.719   5.745  0.00  0.00     0.242 C 
HETATM    3  O   UNK N   1      35.540  15.681   5.994  0.00  0.00    -0.271 OA
HETATM    4  N   UNK N   1      33.921  15.535   4.477  0.00  0.00    -0.368 N 
HETATM    5  H   UNK N   1      33.598  15.576   3.547  0.00  0.00     0.159 HD
HETATM    6  H   UNK N   1      33.995  14.553   4.501  0.00  0.00     0.159 HD
ENDBRANCH   1   2
BRANCH   1   7
HETATM    7  C   UNK N   1      33.913  15.836   8.309  0.00  0.00     0.017 A 
HETATM    8  C   UNK N   1      34.528  16.948   8.986  0.00  0.00     0.044 A 
HETATM    9  C   UNK N   1      35.009  16.795  10.289  0.00  0.00     0.024 A 
HETATM   10 Cl   UNK N   1      34.827  18.540   8.296  0.00  0.00    -0.084 Cl
HETATM   11  C   UNK N   1      34.911  15.584  10.956  0.00  0.00     0.003 A 
HETATM   12  C   UNK N   1      34.357  14.488  10.314  0.00  0.00     0.024 A 
HETATM   13  C   UNK N   1      33.869  14.592   9.011  0.00  0.00     0.044 A 
HETATM   14 Cl   UNK N   1      33.242  13.112   8.293  0.00  0.00    -0.084 Cl
ENDBRANCH   1   7
BRANCH   1  15
HETATM   15  N   UNK N   1      32.590  17.109   6.663  0.00  0.00    -0.372 N 
HETATM   16  H   UNK N   1      33.099  17.920   6.432  0.00  0.00     0.161 HD
BRANCH  15  17
HETATM   17  C   UNK N   1      31.169  17.230   6.773  0.00  0.00     0.043 A 
HETATM   18  C   UNK N   1      30.336  17.243   5.617  0.00  0.00     0.036 A 
HETATM   19  C   UNK N   1      28.946  17.382   5.785  0.00  0.00     0.018 A 
HETATM   20  C   UNK N   1      28.378  17.484   7.054  0.00  0.00     0.008 A 
HETATM   21  C   UNK N   1      29.191  17.464   8.182  0.00  0.00    -0.060 A 
HETATM   22  C   UNK N   1      30.571  17.350   8.040  0.00  0.00     0.037 A 
HETATM   23  C   UNK N   1      28.589  17.556   9.537  0.00  0.00     0.048 C 
BRANCH  18  24
HETATM   24  C   UNK N   1      30.848  17.132   4.218  0.00  0.00     0.158 C 
HETATM   25  O   UNK N   1      31.884  17.702   3.911  0.00  0.00    -0.293 OA
HETATM   26  C   UNK N   1      30.134  16.362   3.159  0.00  0.00     0.097 C 
ENDBRANCH  18  24
ENDBRANCH  15  17
ENDBRANCH   1  15
TORSDOF 5
ENDMDL
MODEL 7
REMARK VINA RESULT:      -6.2     20.944     23.593
REMARK  5 active torsions:
REMARK  status: ('A' for Active; 'I' for Inactive)
REMARK    1  A    between atoms: C_1  and  C_2 
REMARK       I    between atoms: C_1  and  N_4 
REMARK    2  A    between atoms: C_2  and  C_5 
REMARK    3  A    between atoms: C_2  and  N_13 
REMARK    4  A    between atoms: N_13  and  C_14 
REMARK    5  A    between atoms: C_15  and  C_20 
ROOT
HETATM    1  C   UNK N   1      35.583  12.647  13.156  0.00  0.00     0.211 C 
ENDROOT
BRANCH   1   2
HETATM    2  C   UNK N   1      35.486  14.066  12.649  0.00  0.00     0.242 C 
HETATM    3  O   UNK N   1      34.565  14.389  11.914  0.00  0.00    -0.271 OA
HETATM    4  N   UNK N   1      36.363  15.001  13.070  0.00  0.00    -0.368 N 
HETATM    5  H   UNK N   1      37.107  15.621  13.251  0.00  0.00     0.159 HD
HETATM    6  H   UNK N   1      35.779  15.357  13.779  0.00  0.00     0.159 HD
ENDBRANCH   1   2
BRANCH   1   7
HETATM    7  C   UNK N   1      35.958  11.563  12.114  0.00  0.00     0.017 A 
HETATM    8  C   UNK N   1      37.075  11.640  11.208  0.00  0.00     0.044 A 
HETATM    9  C   UNK N   1      37.315  10.600  10.305  0.00  0.00     0.024 A 
HETATM   10 Cl   UNK N   1      38.185  12.997  11.048  0.00  0.00    -0.084 Cl
HETATM   11  C   UNK N   1      36.495   9.484  10.255  0.00  0.00     0.003 A 
HETATM   12  C   UNK N   1      35.393   9.403  11.090  0.00  0.00     0.024 A 
HETATM   13  C   UNK N   1      35.109  10.419  12.004  0.00  0.00     0.044 A 
HETATM   14 Cl   UNK N   1      33.648  10.217  12.966  0.00  0.00    -0.084 Cl
ENDBRANCH   1   7
BRANCH   1  15
HETATM   15  N   UNK N   1      36.520  12.605  14.277  0.00  0.00    -0.372 N 
HETATM   16  H   UNK N   1      37.204  13.312  14.323  0.00  0.00     0.161 HD
BRANCH  15  17
HETATM   17  C   UNK N   1      36.519  11.617  15.311  0.00  0.00     0.043 A 
HETATM   18  C   UNK N   1      35.784  11.808  16.517  0.00  0.00     0.036 A 
HETATM   19  C   UNK N   1      35.835  10.810  17.506  0.00  0.00     0.018 A 
HETATM   20  C   UNK N   1      36.570   9.640  17.318  0.00  0.00     0.008 A 
HETATM   21  C   UNK N   1      37.282   9.453  16.138  0.00  0.00    -0.060 A 
HETATM   22  C   UNK N   1      37.265  10.436  15.153  0.00  0.00     0.037 A 
HETATM   23  C   UNK N   1      38.054   8.200  15.924  0.00  0.00     0.048 C 
BRANCH  18  24
HETATM   24  C   UNK N   1      34.961  13.020  16.809  0.00  0.00     0.158 C 
HETATM   25  O   UNK N   1      34.042  13.316  16.061  0.00  0.00    -0.293 OA
HETATM   26  C   UNK N   1      35.226  13.911  17.976  0.00  0.00     0.097 C 
ENDBRANCH  18  24
ENDBRANCH  15  17
ENDBRANCH   1  15
TORSDOF 5
ENDMDL
MODEL 8
REMARK VINA RESULT:      -6.1     11.698     14.196
REMARK  5 active torsions:
REMARK  status: ('A' for Active; 'I' for Inactive)
REMARK    1  A    between atoms: C_1  and  C_2 
REMARK       I    between atoms: C_1  and  N_4 
REMARK    2  A    between atoms: C_2  and  C_5 
REMARK    3  A    between atoms: C_2  and  N_13 
REMARK    4  A    between atoms: N_13  and  C_14 
REMARK    5  A    between atoms: C_15  and  C_20 
ROOT
HETATM    1  C   UNK N   1      32.744  17.092   6.441  0.00  0.00     0.211 C 
ENDROOT
BRANCH   1   2
HETATM    2  C   UNK N   1      33.621  17.660   7.531  0.00  0.00     0.242 C 
HETATM    3  O   UNK N   1      34.635  18.276   7.238  0.00  0.00    -0.271 OA
HETATM    4  N   UNK N   1      33.248  17.567   8.825  0.00  0.00    -0.368 N 
HETATM    5  H   UNK N   1      33.048  17.338   9.762  0.00  0.00     0.159 HD
HETATM    6  H   UNK N   1      32.845  18.464   8.865  0.00  0.00     0.159 HD
ENDBRANCH   1   2
BRANCH   1   7
HETATM    7  C   UNK N   1      33.371  15.988   5.553  0.00  0.00     0.017 A 
HETATM    8  C   UNK N   1      34.096  14.844   6.043  0.00  0.00     0.044 A 
HETATM    9  C   UNK N   1      34.623  13.912   5.145  0.00  0.00     0.024 A 
HETATM   10 Cl   UNK N   1      34.478  14.508   7.728  0.00  0.00    -0.084 Cl
HETATM   11  C   UNK N   1      34.468  14.063   3.776  0.00  0.00     0.003 A 
HETATM   12  C   UNK N   1      33.807  15.174   3.277  0.00  0.00     0.024 A 
HETATM   13  C   UNK N   1      33.269  16.133   4.135  0.00  0.00     0.044 A 
HETATM   14 Cl   UNK N   1      32.504  17.522   3.369  0.00  0.00    -0.084 Cl
ENDBRANCH   1   7
BRANCH   1  15
HETATM   15  N   UNK N   1      31.502  16.604   7.037  0.00  0.00    -0.372 N 
HETATM   16  H   UNK N   1      31.575  15.945   7.765  0.00  0.00     0.161 HD
BRANCH  15  17
HETATM   17  C   UNK N   1      30.187  17.011   6.645  0.00  0.00     0.043 A 
HETATM   18  C   UNK N   1      29.316  17.677   7.555  0.00  0.00     0.036 A 
HETATM   19  C   UNK N   1      28.029  18.038   7.118  0.00  0.00     0.018 A 
HETATM   20  C   UNK N   1      27.606  17.774   5.816  0.00  0.00     0.008 A 
HETATM   21  C   UNK N   1      28.459  17.130   4.927  0.00  0.00    -0.060 A 
HETATM   22  C   UNK N   1      29.731  16.743   5.343  0.00  0.00     0.037 A 
HETATM   23  C   UNK N   1      28.020  16.862   3.533  0.00  0.00     0.048 C 
BRANCH  18  24
HETATM   24  C   UNK N   1      29.680  18.010   8.965  0.00  0.00     0.158 C 
HETATM   25  O   UNK N   1      30.518  18.872   9.180  0.00  0.00    -0.293 OA
HETATM   26  C   UNK N   1      29.073  17.317  10.138  0.00  0.00     0.097 C 
ENDBRANCH  18  24
ENDBRANCH  15  17
ENDBRANCH   1  15
TORSDOF 5
ENDMDL
MODEL 9
REMARK VINA RESULT:      -6.1     20.839     23.486
REMARK  5 active torsions:
REMARK  status: ('A' for Active; 'I' for Inactive)
REMARK    1  A    between atoms: C_1  and  C_2 
REMARK       I    between atoms: C_1  and  N_4 
REMARK    2  A    between atoms: C_2  and  C_5 
REMARK    3  A    between atoms: C_2  and  N_13 
REMARK    4  A    between atoms: N_13  and  C_14 
REMARK    5  A    between atoms: C_15  and  C_20 
ROOT
HETATM    1  C   UNK N   1      35.577  12.632  13.005  0.00  0.00     0.211 C 
ENDROOT
BRANCH   1   2
HETATM    2  C   UNK N   1      35.474  14.072  12.561  0.00  0.00     0.242 C 
HETATM    3  O   UNK N   1      34.554  14.423  11.838  0.00  0.00    -0.271 OA
HETATM    4  N   UNK N   1      36.345  14.992  13.026  0.00  0.00    -0.368 N 
HETATM    5  H   UNK N   1      37.086  15.606  13.236  0.00  0.00     0.159 HD
HETATM    6  H   UNK N   1      35.757  15.312  13.748  0.00  0.00     0.159 HD
ENDBRANCH   1   2
BRANCH   1   7
HETATM    7  C   UNK N   1      35.952  11.597  11.915  0.00  0.00     0.017 A 
HETATM    8  C   UNK N   1      37.078  11.706  11.023  0.00  0.00     0.044 A 
HETATM    9  C   UNK N   1      37.317  10.709  10.073  0.00  0.00     0.024 A 
HETATM   10 Cl   UNK N   1      38.201  13.059  10.939  0.00  0.00    -0.084 Cl
HETATM   11  C   UNK N   1      36.487   9.605   9.962  0.00  0.00     0.003 A 
HETATM   12  C   UNK N   1      35.377   9.493  10.783  0.00  0.00     0.024 A 
HETATM   13  C   UNK N   1      35.094  10.466  11.743  0.00  0.00     0.044 A 
HETATM   14 Cl   UNK N   1      33.623  10.232  12.681  0.00  0.00    -0.084 Cl
ENDBRANCH   1   7
BRANCH   1  15
HETATM   15  N   UNK N   1      36.518  12.544  14.120  0.00  0.00    -0.372 N 
HETATM   16  H   UNK N   1      37.460  12.762  13.937  0.00  0.00     0.161 HD
BRANCH  15  17
HETATM   17  C   UNK N   1      36.174  12.167  15.456  0.00  0.00     0.043 A 
HETATM   18  C   UNK N   1      36.251  10.810  15.885  0.00  0.00     0.036 A 
HETATM   19  C   UNK N   1      35.883  10.495  17.206  0.00  0.00     0.018 A 
HETATM   20  C   UNK N   1      35.469  11.484  18.097  0.00  0.00     0.008 A 
HETATM   21  C   UNK N   1      35.400  12.808  17.679  0.00  0.00    -0.060 A 
HETATM   22  C   UNK N   1      35.738  13.142  16.370  0.00  0.00     0.037 A 
HETATM   23  C   UNK N   1      34.976  13.869  18.629  0.00  0.00     0.048 C 
BRANCH  18  24
HETATM   24  C   UNK N   1      36.690   9.682  15.009  0.00  0.00     0.158 C 
HETATM   25  O   UNK N   1      37.724   9.788  14.368  0.00  0.00    -0.293 OA
HETATM   26  C   UNK N   1      35.903   8.423  14.862  0.00  0.00     0.097 C 
ENDBRANCH  18  24
ENDBRANCH  15  17
ENDBRANCH   1  15
TORSDOF 5
ENDMDL
