MODEL 1
REMARK VINA RESULT:      -8.4      0.000      0.000
REMARK  9 active torsions:
REMARK  status: ('A' for Active; 'I' for Inactive)
REMARK    1  A    between atoms: S_2  and  N_4 
REMARK    2  A    between atoms: S_2  and  C_9 
REMARK    3  A    between atoms: N_4  and  C_5 
REMARK    4  A    between atoms: C_5  and  C_6 
REMARK    5  A    between atoms: C_13  and  N_17 
REMARK    6  A    between atoms: C_14  and  O_15 
REMARK    7  A    between atoms: N_17  and  C_18 
REMARK    8  A    between atoms: C_20  and  C_24 
REMARK    9  A    between atoms: C_26  and  C_30 
ROOT
HETATM    1  C   UNK N   1      35.259  15.282  11.994  0.00  0.00     0.229 A 
HETATM    2  O   UNK N   1      34.601  14.182  12.140  0.00  0.00    -0.277 OA
HETATM    3  C   UNK N   1      35.334  13.360  12.844  0.00  0.00     0.105 A 
HETATM    4  C   UNK N   1      36.523  13.985  13.153  0.00  0.00     0.130 A 
HETATM    5  N   UNK N   1      36.486  15.201  12.575  0.00  0.00    -0.329 N 
ATOM      6  HN  UNK N   1      37.220  15.908  12.574  1.00  0.00     0.168 HD
ENDROOT
BRANCH   1   7
HETATM    7  N   UNK N   1      34.925  16.225  10.998  0.00  0.00    -0.319 N 
HETATM    8  H   UNK N   1      34.831  17.182  11.209  0.00  0.00     0.169 HD
BRANCH   7   9
HETATM    9  C   UNK N   1      34.730  15.737   9.684  0.00  0.00     0.070 A 
HETATM   10  C   UNK N   1      33.544  16.085   9.058  0.00  0.00     0.057 A 
HETATM   11  C   UNK N   1      33.219  15.696   7.802  0.00  0.00     0.081 A 
HETATM   12  C   UNK N   1      34.109  14.898   7.081  0.00  0.00     0.028 A 
HETATM   13  C   UNK N   1      35.341  14.538   7.668  0.00  0.00     0.040 A 
HETATM   14  C   UNK N   1      35.673  14.955   8.975  0.00  0.00     0.095 A 
BRANCH  11  15
HETATM   15  S   UNK N   1      31.596  16.170   7.266  0.00  0.00     0.258 S 
HETATM   16  O   UNK N   1      31.691  17.387   6.321  0.00  0.00    -0.201 OA
HETATM   17  O   UNK N   1      30.836  15.143   6.417  0.00  0.00    -0.201 OA
BRANCH  15  18
HETATM   18  N   UNK N   1      30.521  16.685   8.579  0.00  0.00    -0.315 N 
HETATM   19  H   UNK N   1      29.928  16.065   9.131  0.00  0.00     0.172 HD
BRANCH  18  20
HETATM   20  C   UNK N   1      30.611  18.126   8.747  0.00  0.00     0.136 C 
BRANCH  20  21
HETATM   21  C   UNK N   1      29.357  18.627   9.427  0.00  0.00     0.004 A 
HETATM   22  C   UNK N   1      28.291  17.558   9.349  0.00  0.00     0.007 A 
HETATM   23  C   UNK N   1      28.253  18.737   8.398  0.00  0.00     0.007 A 
ENDBRANCH  20  21
ENDBRANCH  18  20
ENDBRANCH  15  18
ENDBRANCH  11  15
BRANCH  14  24
HETATM   24  O   UNK N   1      36.882  14.588   9.480  0.00  0.00    -0.354 OA
HETATM   25  C   UNK N   1      37.339  13.294   9.588  0.00  0.00     0.210 C 
ENDBRANCH  14  24
ENDBRANCH   7   9
ENDBRANCH   1   7
BRANCH   3  26
HETATM   26  C   UNK N   1      34.749  12.206  13.476  0.00  0.00     0.000 A 
HETATM   27  C   UNK N   1      34.672  12.390  14.824  0.00  0.00     0.026 A 
HETATM   28  C   UNK N   1      34.665  11.361  15.715  0.00  0.00    -0.024 A 
HETATM   29  C   UNK N   1      34.616  10.043  15.224  0.00  0.00     0.012 A 
HETATM   30  C   UNK N   1      34.563   9.825  13.827  0.00  0.00     0.002 A 
HETATM   31  C   UNK N   1      34.714  10.913  12.944  0.00  0.00     0.014 A 
BRANCH  28  32
HETATM   32  C   UNK N   1      35.088  11.749  17.078  0.00  0.00    -0.011 A 
HETATM   33  C   UNK N   1      35.324  10.735  18.036  0.00  0.00     0.099 A 
HETATM   34  N   UNK N   1      35.494  11.036  19.345  0.00  0.00    -0.374 N 
HETATM   35  C   UNK N   1      35.422  12.318  19.780  0.00  0.00     0.087 A 
ATOM     36  HN  UNK N   1      35.680  10.288  20.014  1.00  0.00     0.164 HD
HETATM   37  C   UNK N   1      35.192  13.358  18.871  0.00  0.00     0.018 A 
HETATM   38  C   UNK N   1      35.016  13.071  17.515  0.00  0.00     0.015 A 
ENDBRANCH  28  32
ENDBRANCH   3  26
TORSDOF 9
ENDMDL
MODEL 2
REMARK VINA RESULT:      -8.2      2.420      4.252
REMARK  9 active torsions:
REMARK  status: ('A' for Active; 'I' for Inactive)
REMARK    1  A    between atoms: S_2  and  N_4 
REMARK    2  A    between atoms: S_2  and  C_9 
REMARK    3  A    between atoms: N_4  and  C_5 
REMARK    4  A    between atoms: C_5  and  C_6 
REMARK    5  A    between atoms: C_13  and  N_17 
REMARK    6  A    between atoms: C_14  and  O_15 
REMARK    7  A    between atoms: N_17  and  C_18 
REMARK    8  A    between atoms: C_20  and  C_24 
REMARK    9  A    between atoms: C_26  and  C_30 
ROOT
HETATM    1  C   UNK N   1      34.562  16.817   9.087  0.00  0.00     0.229 A 
HETATM    2  O   UNK N   1      35.304  15.787   8.855  0.00  0.00    -0.277 OA
HETATM    3  C   UNK N   1      35.923  15.475   9.963  0.00  0.00     0.105 A 
HETATM    4  C   UNK N   1      35.546  16.365  10.945  0.00  0.00     0.130 A 
HETATM    5  N   UNK N   1      34.704  17.245  10.370  0.00  0.00    -0.329 N 
ATOM      6  HN  UNK N   1      34.266  18.058  10.803  1.00  0.00     0.168 HD
ENDROOT
BRANCH   1   7
HETATM    7  N   UNK N   1      34.055  17.621   8.043  0.00  0.00    -0.319 N 
HETATM    8  H   UNK N   1      34.583  18.362   7.665  0.00  0.00     0.169 HD
BRANCH   7   9
HETATM    9  C   UNK N   1      32.759  17.318   7.562  0.00  0.00     0.070 A 
HETATM   10  C   UNK N   1      31.691  17.733   8.341  0.00  0.00     0.057 A 
HETATM   11  C   UNK N   1      30.396  17.518   8.010  0.00  0.00     0.081 A 
HETATM   12  C   UNK N   1      30.096  16.840   6.828  0.00  0.00     0.028 A 
HETATM   13  C   UNK N   1      31.150  16.418   5.990  0.00  0.00     0.040 A 
HETATM   14  C   UNK N   1      32.497  16.654   6.341  0.00  0.00     0.095 A 
BRANCH  11  15
HETATM   15  S   UNK N   1      29.214  18.040   9.226  0.00  0.00     0.258 S 
HETATM   16  O   UNK N   1      28.805  16.841  10.108  0.00  0.00    -0.201 OA
HETATM   17  O   UNK N   1      29.709  19.064  10.255  0.00  0.00    -0.201 OA
BRANCH  15  18
HETATM   18  N   UNK N   1      27.695  18.652   8.544  0.00  0.00    -0.315 N 
HETATM   19  H   UNK N   1      26.763  18.314   8.786  0.00  0.00     0.172 HD
BRANCH  18  20
HETATM   20  C   UNK N   1      27.980  19.707   7.587  0.00  0.00     0.136 C 
BRANCH  20  21
HETATM   21  C   UNK N   1      27.397  19.331   6.243  0.00  0.00     0.004 A 
HETATM   22  C   UNK N   1      27.764  20.390   5.229  0.00  0.00     0.007 A 
HETATM   23  C   UNK N   1      26.379  20.375   5.842  0.00  0.00     0.007 A 
ENDBRANCH  20  21
ENDBRANCH  18  20
ENDBRANCH  15  18
ENDBRANCH  11  15
BRANCH  14  24
HETATM   24  O   UNK N   1      33.467  16.237   5.484  0.00  0.00    -0.354 OA
HETATM   25  C   UNK N   1      34.070  14.999   5.506  0.00  0.00     0.210 C 
ENDBRANCH  14  24
ENDBRANCH   7   9
ENDBRANCH   1   7
BRANCH   3  26
HETATM   26  C   UNK N   1      36.533  14.180  10.128  0.00  0.00     0.000 A 
HETATM   27  C   UNK N   1      36.193  13.645  11.333  0.00  0.00     0.026 A 
HETATM   28  C   UNK N   1      36.969  12.737  11.988  0.00  0.00    -0.024 A 
HETATM   29  C   UNK N   1      38.116  12.238  11.342  0.00  0.00     0.012 A 
HETATM   30  C   UNK N   1      38.422  12.681  10.034  0.00  0.00     0.002 A 
HETATM   31  C   UNK N   1      37.671  13.722   9.454  0.00  0.00     0.014 A 
BRANCH  28  32
HETATM   32  C   UNK N   1      36.712  12.673  13.442  0.00  0.00    -0.011 A 
HETATM   33  C   UNK N   1      37.190  11.559  14.173  0.00  0.00     0.099 A 
HETATM   34  N   UNK N   1      36.796  11.339  15.450  0.00  0.00    -0.374 N 
HETATM   35  C   UNK N   1      35.914  12.170  16.059  0.00  0.00     0.087 A 
ATOM     36  HN  UNK N   1      37.168  10.538  15.961  1.00  0.00     0.164 HD
HETATM   37  C   UNK N   1      35.413  13.286  15.380  0.00  0.00     0.018 A 
HETATM   38  C   UNK N   1      35.808  13.534  14.063  0.00  0.00     0.015 A 
ENDBRANCH  28  32
ENDBRANCH   3  26
TORSDOF 9
ENDMDL
MODEL 3
REMARK VINA RESULT:      -7.9      1.867      2.173
REMARK  9 active torsions:
REMARK  status: ('A' for Active; 'I' for Inactive)
REMARK    1  A    between atoms: S_2  and  N_4 
REMARK    2  A    between atoms: S_2  and  C_9 
REMARK    3  A    between atoms: N_4  and  C_5 
REMARK    4  A    between atoms: C_5  and  C_6 
REMARK    5  A    between atoms: C_13  and  N_17 
REMARK    6  A    between atoms: C_14  and  O_15 
REMARK    7  A    between atoms: N_17  and  C_18 
REMARK    8  A    between atoms: C_20  and  C_24 
REMARK    9  A    between atoms: C_26  and  C_30 
ROOT
HETATM    1  C   UNK N   1      36.543  14.313  11.658  0.00  0.00     0.229 A 
HETATM    2  O   UNK N   1      36.870  13.124  12.038  0.00  0.00    -0.277 OA
HETATM    3  C   UNK N   1      36.755  13.067  13.339  0.00  0.00     0.105 A 
HETATM    4  C   UNK N   1      36.334  14.296  13.798  0.00  0.00     0.130 A 
HETATM    5  N   UNK N   1      36.235  15.101  12.723  0.00  0.00    -0.329 N 
ATOM      6  HN  UNK N   1      35.984  16.089  12.710  1.00  0.00     0.168 HD
ENDROOT
BRANCH   1   7
HETATM    7  N   UNK N   1      36.901  14.815  10.389  0.00  0.00    -0.319 N 
HETATM    8  H   UNK N   1      37.787  15.213  10.226  0.00  0.00     0.169 HD
BRANCH   7   9
HETATM    9  C   UNK N   1      35.935  14.722   9.359  0.00  0.00     0.070 A 
HETATM   10  C   UNK N   1      35.425  15.915   8.871  0.00  0.00     0.057 A 
HETATM   11  C   UNK N   1      34.498  15.985   7.886  0.00  0.00     0.081 A 
HETATM   12  C   UNK N   1      34.012  14.806   7.320  0.00  0.00     0.028 A 
HETATM   13  C   UNK N   1      34.519  13.567   7.767  0.00  0.00     0.040 A 
HETATM   14  C   UNK N   1      35.490  13.506   8.789  0.00  0.00     0.095 A 
BRANCH  11  15
HETATM   15  S   UNK N   1      33.918  17.620   7.517  0.00  0.00     0.258 S 
HETATM   16  O   UNK N   1      34.982  18.659   7.928  0.00  0.00    -0.201 OA
HETATM   17  O   UNK N   1      33.689  17.939   6.034  0.00  0.00    -0.201 OA
BRANCH  15  18
HETATM   18  N   UNK N   1      32.452  18.085   8.400  0.00  0.00    -0.315 N 
HETATM   19  H   UNK N   1      32.416  18.756   9.168  0.00  0.00     0.172 HD
BRANCH  18  20
HETATM   20  C   UNK N   1      31.310  17.364   7.864  0.00  0.00     0.136 C 
BRANCH  20  21
HETATM   21  C   UNK N   1      30.238  17.270   8.927  0.00  0.00     0.004 A 
HETATM   22  C   UNK N   1      29.003  18.000   8.451  0.00  0.00     0.007 A 
HETATM   23  C   UNK N   1      29.938  18.659   9.444  0.00  0.00     0.007 A 
ENDBRANCH  20  21
ENDBRANCH  18  20
ENDBRANCH  15  18
ENDBRANCH  11  15
BRANCH  14  24
HETATM   24  O   UNK N   1      35.951  12.282   9.167  0.00  0.00    -0.354 OA
HETATM   25  C   UNK N   1      35.207  11.124   9.184  0.00  0.00     0.210 C 
ENDBRANCH  14  24
ENDBRANCH   7   9
ENDBRANCH   1   7
BRANCH   3  26
HETATM   26  C   UNK N   1      36.698  11.799  14.020  0.00  0.00     0.000 A 
HETATM   27  C   UNK N   1      35.938  11.898  15.146  0.00  0.00     0.026 A 
HETATM   28  C   UNK N   1      36.102  11.086  16.227  0.00  0.00    -0.024 A 
HETATM   29  C   UNK N   1      37.017  10.020  16.137  0.00  0.00     0.012 A 
HETATM   30  C   UNK N   1      37.726   9.815  14.931  0.00  0.00     0.002 A 
HETATM   31  C   UNK N   1      37.627  10.761  13.892  0.00  0.00     0.014 A 
BRANCH  28  32
HETATM   32  C   UNK N   1      35.574  11.655  17.485  0.00  0.00    -0.011 A 
HETATM   33  C   UNK N   1      35.329  13.047  17.556  0.00  0.00     0.099 A 
HETATM   34  N   UNK N   1      35.061  13.651  18.738  0.00  0.00    -0.374 N 
HETATM   35  C   UNK N   1      35.039  12.940  19.893  0.00  0.00     0.087 A 
ATOM     36  HN  UNK N   1      34.872  14.653  18.761  1.00  0.00     0.164 HD
HETATM   37  C   UNK N   1      35.273  11.560  19.876  0.00  0.00     0.018 A 
HETATM   38  C   UNK N   1      35.549  10.916  18.666  0.00  0.00     0.015 A 
ENDBRANCH  28  32
ENDBRANCH   3  26
TORSDOF 9
ENDMDL
MODEL 4
REMARK VINA RESULT:      -7.9      1.872      3.098
REMARK  9 active torsions:
REMARK  status: ('A' for Active; 'I' for Inactive)
REMARK    1  A    between atoms: S_2  and  N_4 
REMARK    2  A    between atoms: S_2  and  C_9 
REMARK    3  A    between atoms: N_4  and  C_5 
REMARK    4  A    between atoms: C_5  and  C_6 
REMARK    5  A    between atoms: C_13  and  N_17 
REMARK    6  A    between atoms: C_14  and  O_15 
REMARK    7  A    between atoms: N_17  and  C_18 
REMARK    8  A    between atoms: C_20  and  C_24 
REMARK    9  A    between atoms: C_26  and  C_30 
ROOT
HETATM    1  C   UNK N   1      36.017  14.116  13.073  0.00  0.00     0.229 A 
HETATM    2  O   UNK N   1      36.126  14.258  14.352  0.00  0.00    -0.277 OA
HETATM    3  C   UNK N   1      35.483  13.276  14.926  0.00  0.00     0.105 A 
HETATM    4  C   UNK N   1      34.939  12.474  13.947  0.00  0.00     0.130 A 
HETATM    5  N   UNK N   1      35.251  13.036  12.763  0.00  0.00    -0.329 N 
ATOM      6  HN  UNK N   1      34.973  12.721  11.835  1.00  0.00     0.168 HD
ENDROOT
BRANCH   1   7
HETATM    7  N   UNK N   1      36.272  15.179  12.180  0.00  0.00    -0.319 N 
HETATM    8  H   UNK N   1      36.471  16.087  12.508  0.00  0.00     0.169 HD
BRANCH   7   9
HETATM    9  C   UNK N   1      36.230  14.887  10.796  0.00  0.00     0.070 A 
HETATM   10  C   UNK N   1      35.365  15.645  10.024  0.00  0.00     0.057 A 
HETATM   11  C   UNK N   1      35.218  15.483   8.687  0.00  0.00     0.081 A 
HETATM   12  C   UNK N   1      35.965  14.503   8.032  0.00  0.00     0.028 A 
HETATM   13  C   UNK N   1      36.878  13.722   8.773  0.00  0.00     0.040 A 
HETATM   14  C   UNK N   1      37.028  13.904  10.164  0.00  0.00     0.095 A 
BRANCH  11  15
HETATM   15  S   UNK N   1      33.965  16.492   7.942  0.00  0.00     0.258 S 
HETATM   16  O   UNK N   1      34.621  17.597   7.087  0.00  0.00    -0.201 OA
HETATM   17  O   UNK N   1      33.040  15.792   6.937  0.00  0.00    -0.201 OA
BRANCH  15  18
HETATM   18  N   UNK N   1      32.941  17.354   9.106  0.00  0.00    -0.315 N 
HETATM   19  H   UNK N   1      33.090  17.378  10.115  0.00  0.00     0.172 HD
BRANCH  18  20
HETATM   20  C   UNK N   1      31.858  18.021   8.403  0.00  0.00     0.136 C 
BRANCH  20  21
HETATM   21  C   UNK N   1      30.538  17.437   8.856  0.00  0.00     0.004 A 
HETATM   22  C   UNK N   1      29.417  18.082   8.073  0.00  0.00     0.007 A 
HETATM   23  C   UNK N   1      29.711  18.532   9.489  0.00  0.00     0.007 A 
ENDBRANCH  20  21
ENDBRANCH  18  20
ENDBRANCH  15  18
ENDBRANCH  11  15
BRANCH  14  24
HETATM   24  O   UNK N   1      37.935  13.131  10.820  0.00  0.00    -0.354 OA
HETATM   25  C   UNK N   1      38.029  11.761  10.723  0.00  0.00     0.210 C 
ENDBRANCH  14  24
ENDBRANCH   7   9
ENDBRANCH   1   7
BRANCH   3  26
HETATM   26  C   UNK N   1      35.716  12.951  16.310  0.00  0.00     0.000 A 
HETATM   27  C   UNK N   1      35.896  11.609  16.459  0.00  0.00     0.026 A 
HETATM   28  C   UNK N   1      35.625  10.948  17.619  0.00  0.00    -0.024 A 
HETATM   29  C   UNK N   1      35.254  11.696  18.752  0.00  0.00     0.012 A 
HETATM   30  C   UNK N   1      35.186  13.106  18.659  0.00  0.00     0.002 A 
HETATM   31  C   UNK N   1      35.337  13.733  17.407  0.00  0.00     0.014 A 
BRANCH  28  32
HETATM   32  C   UNK N   1      35.391   9.499  17.437  0.00  0.00    -0.011 A 
HETATM   33  C   UNK N   1      34.788   8.767  18.488  0.00  0.00     0.099 A 
HETATM   34  N   UNK N   1      34.754   7.414  18.467  0.00  0.00    -0.374 N 
HETATM   35  C   UNK N   1      35.316   6.719  17.447  0.00  0.00     0.087 A 
ATOM     36  HN  UNK N   1      34.299   6.910  19.229  1.00  0.00     0.164 HD
HETATM   37  C   UNK N   1      35.924   7.396  16.384  0.00  0.00     0.018 A 
HETATM   38  C   UNK N   1      35.968   8.793  16.383  0.00  0.00     0.015 A 
ENDBRANCH  28  32
ENDBRANCH   3  26
TORSDOF 9
ENDMDL
MODEL 5
REMARK VINA RESULT:      -7.9     10.526     13.496
REMARK  9 active torsions:
REMARK  status: ('A' for Active; 'I' for Inactive)
REMARK    1  A    between atoms: S_2  and  N_4 
REMARK    2  A    between atoms: S_2  and  C_9 
REMARK    3  A    between atoms: N_4  and  C_5 
REMARK    4  A    between atoms: C_5  and  C_6 
REMARK    5  A    between atoms: C_13  and  N_17 
REMARK    6  A    between atoms: C_14  and  O_15 
REMARK    7  A    between atoms: N_17  and  C_18 
REMARK    8  A    between atoms: C_20  and  C_24 
REMARK    9  A    between atoms: C_26  and  C_30 
ROOT
HETATM    1  C   UNK N   1      24.234  13.206   7.164  0.00  0.00     0.229 A 
HETATM    2  O   UNK N   1      24.427  13.785   6.027  0.00  0.00    -0.277 OA
HETATM    3  C   UNK N   1      25.384  14.662   6.175  0.00  0.00     0.105 A 
HETATM    4  C   UNK N   1      25.814  14.629   7.484  0.00  0.00     0.130 A 
HETATM    5  N   UNK N   1      25.049  13.723   8.122  0.00  0.00    -0.329 N 
ATOM      6  HN  UNK N   1      25.076  13.477   9.111  1.00  0.00     0.168 HD
ENDROOT
BRANCH   1   7
HETATM    7  N   UNK N   1      23.052  12.488   7.445  0.00  0.00    -0.319 N 
HETATM    8  H   UNK N   1      22.911  11.577   7.098  0.00  0.00     0.169 HD
BRANCH   7   9
HETATM    9  C   UNK N   1      22.078  13.131   8.245  0.00  0.00     0.070 A 
HETATM   10  C   UNK N   1      21.466  14.251   7.705  0.00  0.00     0.057 A 
HETATM   11  C   UNK N   1      20.515  14.967   8.350  0.00  0.00     0.081 A 
HETATM   12  C   UNK N   1      20.117  14.579   9.630  0.00  0.00     0.028 A 
HETATM   13  C   UNK N   1      20.695  13.431  10.212  0.00  0.00     0.040 A 
HETATM   14  C   UNK N   1      21.680  12.686   9.528  0.00  0.00     0.095 A 
BRANCH  11  15
HETATM   15  S   UNK N   1      19.969  16.425   7.500  0.00  0.00     0.258 S 
HETATM   16  O   UNK N   1      18.470  16.299   7.153  0.00  0.00    -0.201 OA
HETATM   17  O   UNK N   1      20.022  17.734   8.299  0.00  0.00    -0.201 OA
BRANCH  15  18
HETATM   18  N   UNK N   1      20.781  16.707   5.949  0.00  0.00    -0.315 N 
HETATM   19  H   UNK N   1      20.594  16.195   5.086  0.00  0.00     0.172 HD
BRANCH  18  20
HETATM   20  C   UNK N   1      21.753  17.777   6.094  0.00  0.00     0.136 C 
BRANCH  20  21
HETATM   21  C   UNK N   1      23.031  17.387   5.386  0.00  0.00     0.004 A 
HETATM   22  C   UNK N   1      23.126  18.147   4.083  0.00  0.00     0.007 A 
HETATM   23  C   UNK N   1      22.680  16.700   4.086  0.00  0.00     0.007 A 
ENDBRANCH  20  21
ENDBRANCH  18  20
ENDBRANCH  15  18
ENDBRANCH  11  15
BRANCH  14  24
HETATM   24  O   UNK N   1      22.188  11.580  10.136  0.00  0.00    -0.354 OA
HETATM   25  C   UNK N   1      23.135  11.587  11.135  0.00  0.00     0.210 C 
ENDBRANCH  14  24
ENDBRANCH   7   9
ENDBRANCH   1   7
BRANCH   3  26
HETATM   26  C   UNK N   1      26.070  15.205   5.030  0.00  0.00     0.000 A 
HETATM   27  C   UNK N   1      26.680  16.379   5.355  0.00  0.00     0.026 A 
HETATM   28  C   UNK N   1      26.946  17.355   4.443  0.00  0.00    -0.024 A 
HETATM   29  C   UNK N   1      26.688  17.097   3.083  0.00  0.00     0.012 A 
HETATM   30  C   UNK N   1      26.174  15.835   2.703  0.00  0.00     0.002 A 
HETATM   31  C   UNK N   1      25.785  14.911   3.692  0.00  0.00     0.014 A 
BRANCH  28  32
HETATM   32  C   UNK N   1      27.121  18.696   5.040  0.00  0.00    -0.011 A 
HETATM   33  C   UNK N   1      27.796  18.811   6.279  0.00  0.00     0.099 A 
HETATM   34  N   UNK N   1      27.789  19.973   6.974  0.00  0.00    -0.374 N 
HETATM   35  C   UNK N   1      27.117  21.056   6.512  0.00  0.00     0.087 A 
ATOM     36  HN  UNK N   1      28.297  20.034   7.857  1.00  0.00     0.164 HD
HETATM   37  C   UNK N   1      26.435  20.995   5.291  0.00  0.00     0.018 A 
HETATM   38  C   UNK N   1      26.431  19.806   4.556  0.00  0.00     0.015 A 
ENDBRANCH  28  32
ENDBRANCH   3  26
TORSDOF 9
ENDMDL
MODEL 6
REMARK VINA RESULT:      -7.8      2.907      9.996
REMARK  9 active torsions:
REMARK  status: ('A' for Active; 'I' for Inactive)
REMARK    1  A    between atoms: S_2  and  N_4 
REMARK    2  A    between atoms: S_2  and  C_9 
REMARK    3  A    between atoms: N_4  and  C_5 
REMARK    4  A    between atoms: C_5  and  C_6 
REMARK    5  A    between atoms: C_13  and  N_17 
REMARK    6  A    between atoms: C_14  and  O_15 
REMARK    7  A    between atoms: N_17  and  C_18 
REMARK    8  A    between atoms: C_20  and  C_24 
REMARK    9  A    between atoms: C_26  and  C_30 
ROOT
HETATM    1  C   UNK N   1      34.282  16.142  10.260  0.00  0.00     0.229 A 
HETATM    2  O   UNK N   1      34.368  16.728   9.113  0.00  0.00    -0.277 OA
HETATM    3  C   UNK N   1      33.386  16.299   8.364  0.00  0.00     0.105 A 
HETATM    4  C   UNK N   1      32.645  15.390   9.087  0.00  0.00     0.130 A 
HETATM    5  N   UNK N   1      33.243  15.265  10.286  0.00  0.00    -0.329 N 
ATOM      6  HN  UNK N   1      32.976  14.645  11.051  1.00  0.00     0.168 HD
ENDROOT
BRANCH   1   7
HETATM    7  N   UNK N   1      35.371  16.096  11.157  0.00  0.00    -0.319 N 
HETATM    8  H   UNK N   1      35.734  16.915  11.565  0.00  0.00     0.169 HD
BRANCH   7   9
HETATM    9  C   UNK N   1      35.918  14.823  11.446  0.00  0.00     0.070 A 
HETATM   10  C   UNK N   1      35.629  14.286  12.690  0.00  0.00     0.057 A 
HETATM   11  C   UNK N   1      36.078  13.079  13.107  0.00  0.00     0.081 A 
HETATM   12  C   UNK N   1      36.881  12.317  12.256  0.00  0.00     0.028 A 
HETATM   13  C   UNK N   1      37.182  12.811  10.969  0.00  0.00     0.040 A 
HETATM   14  C   UNK N   1      36.703  14.068  10.542  0.00  0.00     0.095 A 
BRANCH  11  15
HETATM   15  S   UNK N   1      35.671  12.664  14.783  0.00  0.00     0.258 S 
HETATM   16  O   UNK N   1      36.647  13.368  15.749  0.00  0.00    -0.201 OA
HETATM   17  O   UNK N   1      34.300  13.137  15.283  0.00  0.00    -0.201 OA
BRANCH  15  18
HETATM   18  N   UNK N   1      35.815  10.936  15.157  0.00  0.00    -0.315 N 
HETATM   19  H   UNK N   1      35.476  10.176  14.567  0.00  0.00     0.172 HD
BRANCH  18  20
HETATM   20  C   UNK N   1      36.487  10.769  16.435  0.00  0.00     0.136 C 
BRANCH  20  21
HETATM   21  C   UNK N   1      35.467  10.402  17.489  0.00  0.00     0.004 A 
HETATM   22  C   UNK N   1      35.336  11.544  18.471  0.00  0.00     0.007 A 
HETATM   23  C   UNK N   1      36.157  10.323  18.832  0.00  0.00     0.007 A 
ENDBRANCH  20  21
ENDBRANCH  18  20
ENDBRANCH  15  18
ENDBRANCH  11  15
BRANCH  14  24
HETATM   24  O   UNK N   1      37.016  14.483   9.285  0.00  0.00    -0.354 OA
HETATM   25  C   UNK N   1      36.490  13.964   8.123  0.00  0.00     0.210 C 
ENDBRANCH  14  24
ENDBRANCH   7   9
ENDBRANCH   1   7
BRANCH   3  26
HETATM   26  C   UNK N   1      32.998  17.016   7.176  0.00  0.00     0.000 A 
HETATM   27  C   UNK N   1      31.644  17.158   7.129  0.00  0.00     0.026 A 
HETATM   28  C   UNK N   1      30.952  17.305   5.965  0.00  0.00    -0.024 A 
HETATM   29  C   UNK N   1      31.674  17.433   4.763  0.00  0.00     0.012 A 
HETATM   30  C   UNK N   1      33.088  17.420   4.799  0.00  0.00     0.002 A 
HETATM   31  C   UNK N   1      33.754  17.126   6.005  0.00  0.00     0.014 A 
BRANCH  28  32
HETATM   32  C   UNK N   1      29.525  16.933   6.069  0.00  0.00    -0.011 A 
HETATM   33  C   UNK N   1      28.717  17.586   7.030  0.00  0.00     0.099 A 
HETATM   34  N   UNK N   1      27.474  17.135   7.320  0.00  0.00    -0.374 N 
HETATM   35  C   UNK N   1      26.974  16.032   6.711  0.00  0.00     0.087 A 
ATOM     36  HN  UNK N   1      26.905  17.633   8.006  1.00  0.00     0.164 HD
HETATM   37  C   UNK N   1      27.732  15.351   5.752  0.00  0.00     0.018 A 
HETATM   38  C   UNK N   1      29.017  15.801   5.435  0.00  0.00     0.015 A 
ENDBRANCH  28  32
ENDBRANCH   3  26
TORSDOF 9
ENDMDL
MODEL 7
REMARK VINA RESULT:      -7.8      9.356     14.035
REMARK  9 active torsions:
REMARK  status: ('A' for Active; 'I' for Inactive)
REMARK    1  A    between atoms: S_2  and  N_4 
REMARK    2  A    between atoms: S_2  and  C_9 
REMARK    3  A    between atoms: N_4  and  C_5 
REMARK    4  A    between atoms: C_5  and  C_6 
REMARK    5  A    between atoms: C_13  and  N_17 
REMARK    6  A    between atoms: C_14  and  O_15 
REMARK    7  A    between atoms: N_17  and  C_18 
REMARK    8  A    between atoms: C_20  and  C_24 
REMARK    9  A    between atoms: C_26  and  C_30 
ROOT
HETATM    1  C   UNK N   1      21.816  18.034   5.780  0.00  0.00     0.229 A 
HETATM    2  O   UNK N   1      23.066  18.020   5.462  0.00  0.00    -0.277 OA
HETATM    3  C   UNK N   1      23.181  18.487   4.246  0.00  0.00     0.105 A 
HETATM    4  C   UNK N   1      21.927  18.809   3.778  0.00  0.00     0.130 A 
HETATM    5  N   UNK N   1      21.052  18.482   4.748  0.00  0.00    -0.329 N 
ATOM      6  HN  UNK N   1      20.035  18.556   4.716  1.00  0.00     0.168 HD
ENDROOT
BRANCH   1   7
HETATM    7  N   UNK N   1      21.311  17.271   6.855  0.00  0.00    -0.319 N 
HETATM    8  H   UNK N   1      20.906  17.701   7.643  0.00  0.00     0.169 HD
BRANCH   7   9
HETATM    9  C   UNK N   1      21.409  15.862   6.752  0.00  0.00     0.070 A 
HETATM   10  C   UNK N   1      22.615  15.292   7.128  0.00  0.00     0.057 A 
HETATM   11  C   UNK N   1      22.856  13.960   7.088  0.00  0.00     0.081 A 
HETATM   12  C   UNK N   1      21.854  13.097   6.642  0.00  0.00     0.028 A 
HETATM   13  C   UNK N   1      20.602  13.629   6.271  0.00  0.00     0.040 A 
HETATM   14  C   UNK N   1      20.358  15.018   6.324  0.00  0.00     0.095 A 
BRANCH  11  15
HETATM   15  S   UNK N   1      24.513  13.485   7.508  0.00  0.00     0.258 S 
HETATM   16  O   UNK N   1      24.866  12.150   6.818  0.00  0.00    -0.201 OA
HETATM   17  O   UNK N   1      25.629  14.420   7.024  0.00  0.00    -0.201 OA
BRANCH  15  18
HETATM   18  N   UNK N   1      24.767  13.193   9.238  0.00  0.00    -0.315 N 
HETATM   19  H   UNK N   1      25.672  13.034   9.681  0.00  0.00     0.172 HD
BRANCH  18  20
HETATM   20  C   UNK N   1      23.489  13.213   9.929  0.00  0.00     0.136 C 
BRANCH  20  21
HETATM   21  C   UNK N   1      23.206  11.838  10.492  0.00  0.00     0.004 A 
HETATM   22  C   UNK N   1      21.986  11.909  11.382  0.00  0.00     0.007 A 
HETATM   23  C   UNK N   1      23.372  11.881  11.994  0.00  0.00     0.007 A 
ENDBRANCH  20  21
ENDBRANCH  18  20
ENDBRANCH  15  18
ENDBRANCH  11  15
BRANCH  14  24
HETATM   24  O   UNK N   1      19.125  15.469   5.967  0.00  0.00    -0.354 OA
HETATM   25  C   UNK N   1      18.721  15.746   4.681  0.00  0.00     0.210 C 
ENDBRANCH  14  24
ENDBRANCH   7   9
ENDBRANCH   1   7
BRANCH   3  26
HETATM   26  C   UNK N   1      24.456  18.931   3.745  0.00  0.00     0.000 A 
HETATM   27  C   UNK N   1      25.470  18.378   4.468  0.00  0.00     0.026 A 
HETATM   28  C   UNK N   1      26.695  18.961   4.596  0.00  0.00    -0.024 A 
HETATM   29  C   UNK N   1      26.969  20.126   3.855  0.00  0.00     0.012 A 
HETATM   30  C   UNK N   1      25.976  20.650   2.995  0.00  0.00     0.002 A 
HETATM   31  C   UNK N   1      24.681  20.095   3.002  0.00  0.00     0.014 A 
BRANCH  28  32
HETATM   32  C   UNK N   1      27.449  18.505   5.783  0.00  0.00    -0.011 A 
HETATM   33  C   UNK N   1      27.509  17.120   6.065  0.00  0.00     0.099 A 
HETATM   34  N   UNK N   1      27.990  16.667   7.247  0.00  0.00    -0.374 N 
HETATM   35  C   UNK N   1      28.412  17.531   8.204  0.00  0.00     0.087 A 
ATOM     36  HN  UNK N   1      28.038  15.662   7.420  1.00  0.00     0.164 HD
HETATM   37  C   UNK N   1      28.374  18.910   7.973  0.00  0.00     0.018 A 
HETATM   38  C   UNK N   1      27.884  19.400   6.759  0.00  0.00     0.015 A 
ENDBRANCH  28  32
ENDBRANCH   3  26
TORSDOF 9
ENDMDL
MODEL 8
REMARK VINA RESULT:      -7.8      2.859      4.527
REMARK  9 active torsions:
REMARK  status: ('A' for Active; 'I' for Inactive)
REMARK    1  A    between atoms: S_2  and  N_4 
REMARK    2  A    between atoms: S_2  and  C_9 
REMARK    3  A    between atoms: N_4  and  C_5 
REMARK    4  A    between atoms: C_5  and  C_6 
REMARK    5  A    between atoms: C_13  and  N_17 
REMARK    6  A    between atoms: C_14  and  O_15 
REMARK    7  A    between atoms: N_17  and  C_18 
REMARK    8  A    between atoms: C_20  and  C_24 
REMARK    9  A    between atoms: C_26  and  C_30 
ROOT
HETATM    1  C   UNK N   1      35.092  10.958  13.133  0.00  0.00     0.229 A 
HETATM    2  O   UNK N   1      35.672  11.647  14.057  0.00  0.00    -0.277 OA
HETATM    3  C   UNK N   1      34.838  11.772  15.056  0.00  0.00     0.105 A 
HETATM    4  C   UNK N   1      33.666  11.122  14.734  0.00  0.00     0.130 A 
HETATM    5  N   UNK N   1      33.819  10.635  13.488  0.00  0.00    -0.329 N 
ATOM      6  HN  UNK N   1      33.129  10.133  12.930  1.00  0.00     0.168 HD
ENDROOT
BRANCH   1   7
HETATM    7  N   UNK N   1      35.560  10.952  11.802  0.00  0.00    -0.319 N 
HETATM    8  H   UNK N   1      36.274  10.338  11.512  0.00  0.00     0.169 HD
BRANCH   7   9
HETATM    9  C   UNK N   1      34.960  11.864  10.900  0.00  0.00     0.070 A 
HETATM   10  C   UNK N   1      35.288  13.201  11.055  0.00  0.00     0.057 A 
HETATM   11  C   UNK N   1      34.796  14.187  10.267  0.00  0.00     0.081 A 
HETATM   12  C   UNK N   1      33.907  13.864   9.242  0.00  0.00     0.028 A 
HETATM   13  C   UNK N   1      33.562  12.512   9.031  0.00  0.00     0.040 A 
HETATM   14  C   UNK N   1      34.086  11.491   9.852  0.00  0.00     0.095 A 
BRANCH  11  15
HETATM   15  S   UNK N   1      35.272  15.830  10.737  0.00  0.00     0.258 S 
HETATM   16  O   UNK N   1      35.096  16.011  12.260  0.00  0.00    -0.201 OA
HETATM   17  O   UNK N   1      36.746  16.196  10.522  0.00  0.00    -0.201 OA
BRANCH  15  18
HETATM   18  N   UNK N   1      34.287  17.109  10.002  0.00  0.00    -0.315 N 
HETATM   19  H   UNK N   1      33.490  17.566  10.447  0.00  0.00     0.172 HD
BRANCH  18  20
HETATM   20  C   UNK N   1      34.786  17.404   8.670  0.00  0.00     0.136 C 
BRANCH  20  21
HETATM   21  C   UNK N   1      33.771  18.252   7.936  0.00  0.00     0.004 A 
HETATM   22  C   UNK N   1      32.497  17.459   7.761  0.00  0.00     0.007 A 
HETATM   23  C   UNK N   1      33.464  17.605   6.605  0.00  0.00     0.007 A 
ENDBRANCH  20  21
ENDBRANCH  18  20
ENDBRANCH  15  18
ENDBRANCH  11  15
BRANCH  14  24
HETATM   24  O   UNK N   1      33.727  10.205   9.589  0.00  0.00    -0.354 OA
HETATM   25  C   UNK N   1      32.572   9.597  10.025  0.00  0.00     0.210 C 
ENDBRANCH  14  24
ENDBRANCH   7   9
ENDBRANCH   1   7
BRANCH   3  26
HETATM   26  C   UNK N   1      35.303  12.168  16.360  0.00  0.00     0.000 A 
HETATM   27  C   UNK N   1      35.466  11.076  17.158  0.00  0.00     0.026 A 
HETATM   28  C   UNK N   1      35.386  11.129  18.517  0.00  0.00    -0.024 A 
HETATM   29  C   UNK N   1      35.245  12.386  19.135  0.00  0.00     0.012 A 
HETATM   30  C   UNK N   1      35.204  13.552  18.335  0.00  0.00     0.002 A 
HETATM   31  C   UNK N   1      35.149  13.435  16.932  0.00  0.00     0.014 A 
BRANCH  28  32
HETATM   32  C   UNK N   1      35.080   9.828  19.147  0.00  0.00    -0.011 A 
HETATM   33  C   UNK N   1      36.052   9.227  19.983  0.00  0.00     0.099 A 
HETATM   34  N   UNK N   1      35.919   7.947  20.402  0.00  0.00    -0.374 N 
HETATM   35  C   UNK N   1      34.858   7.195  20.017  0.00  0.00     0.087 A 
ATOM     36  HN  UNK N   1      36.625   7.542  21.018  1.00  0.00     0.164 HD
HETATM   37  C   UNK N   1      33.869   7.742  19.192  0.00  0.00     0.018 A 
HETATM   38  C   UNK N   1      33.985   9.063  18.749  0.00  0.00     0.015 A 
ENDBRANCH  28  32
ENDBRANCH   3  26
TORSDOF 9
ENDMDL
MODEL 9
REMARK VINA RESULT:      -7.7      7.733     11.851
REMARK  9 active torsions:
REMARK  status: ('A' for Active; 'I' for Inactive)
REMARK    1  A    between atoms: S_2  and  N_4 
REMARK    2  A    between atoms: S_2  and  C_9 
REMARK    3  A    between atoms: N_4  and  C_5 
REMARK    4  A    between atoms: C_5  and  C_6 
REMARK    5  A    between atoms: C_13  and  N_17 
REMARK    6  A    between atoms: C_14  and  O_15 
REMARK    7  A    between atoms: N_17  and  C_18 
REMARK    8  A    between atoms: C_20  and  C_24 
REMARK    9  A    between atoms: C_26  and  C_30 
ROOT
HETATM    1  C   UNK N   1      25.785  16.560   5.476  0.00  0.00     0.229 A 
HETATM    2  O   UNK N   1      26.599  16.623   6.476  0.00  0.00    -0.277 OA
HETATM    3  C   UNK N   1      27.647  17.310   6.104  0.00  0.00     0.105 A 
HETATM    4  C   UNK N   1      27.477  17.697   4.792  0.00  0.00     0.130 A 
HETATM    5  N   UNK N   1      26.302  17.183   4.383  0.00  0.00    -0.329 N 
ATOM      6  HN  UNK N   1      25.888  17.248   3.453  1.00  0.00     0.168 HD
ENDROOT
BRANCH   1   7
HETATM    7  N   UNK N   1      24.749  15.603   5.416  0.00  0.00    -0.319 N 
HETATM    8  H   UNK N   1      24.901  14.707   5.037  0.00  0.00     0.169 HD
BRANCH   7   9
HETATM    9  C   UNK N   1      23.484  15.985   5.923  0.00  0.00     0.070 A 
HETATM   10  C   UNK N   1      22.890  15.124   6.831  0.00  0.00     0.057 A 
HETATM   11  C   UNK N   1      21.685  15.356   7.403  0.00  0.00     0.081 A 
HETATM   12  C   UNK N   1      20.983  16.516   7.072  0.00  0.00     0.028 A 
HETATM   13  C   UNK N   1      21.559  17.435   6.170  0.00  0.00     0.040 A 
HETATM   14  C   UNK N   1      22.819  17.187   5.585  0.00  0.00     0.095 A 
BRANCH  11  15
HETATM   15  S   UNK N   1      21.083  14.050   8.442  0.00  0.00     0.258 S 
HETATM   16  O   UNK N   1      19.696  14.426   9.005  0.00  0.00    -0.201 OA
HETATM   17  O   UNK N   1      20.815  12.706   7.753  0.00  0.00    -0.201 OA
BRANCH  15  18
HETATM   18  N   UNK N   1      22.091  13.735   9.867  0.00  0.00    -0.315 N 
HETATM   19  H   UNK N   1      22.857  14.328  10.188  0.00  0.00     0.172 HD
BRANCH  18  20
HETATM   20  C   UNK N   1      21.662  12.501  10.505  0.00  0.00     0.136 C 
BRANCH  20  21
HETATM   21  C   UNK N   1      22.835  11.552  10.590  0.00  0.00     0.004 A 
HETATM   22  C   UNK N   1      23.688  11.924  11.782  0.00  0.00     0.007 A 
HETATM   23  C   UNK N   1      24.114  12.333  10.387  0.00  0.00     0.007 A 
ENDBRANCH  20  21
ENDBRANCH  18  20
ENDBRANCH  15  18
ENDBRANCH  11  15
BRANCH  14  24
HETATM   24  O   UNK N   1      23.328  18.119   4.734  0.00  0.00    -0.354 OA
HETATM   25  C   UNK N   1      22.585  18.933   3.909  0.00  0.00     0.210 C 
ENDBRANCH  14  24
ENDBRANCH   7   9
ENDBRANCH   1   7
BRANCH   3  26
HETATM   26  C   UNK N   1      28.554  17.857   7.080  0.00  0.00     0.000 A 
HETATM   27  C   UNK N   1      29.841  17.557   6.753  0.00  0.00     0.026 A 
HETATM   28  C   UNK N   1      30.841  17.467   7.674  0.00  0.00    -0.024 A 
HETATM   29  C   UNK N   1      30.560  17.814   9.009  0.00  0.00     0.012 A 
HETATM   30  C   UNK N   1      29.261  18.254   9.353  0.00  0.00     0.002 A 
HETATM   31  C   UNK N   1      28.227  18.197   8.397  0.00  0.00     0.014 A 
BRANCH  28  32
HETATM   32  C   UNK N   1      31.994  16.659   7.225  0.00  0.00    -0.011 A 
HETATM   33  C   UNK N   1      32.990  17.272   6.429  0.00  0.00     0.099 A 
HETATM   34  N   UNK N   1      33.943  16.535   5.810  0.00  0.00    -0.374 N 
HETATM   35  C   UNK N   1      33.956  15.183   5.918  0.00  0.00     0.087 A 
ATOM     36  HN  UNK N   1      34.660  17.002   5.254  1.00  0.00     0.164 HD
HETATM   37  C   UNK N   1      32.993  14.529   6.695  0.00  0.00     0.018 A 
HETATM   38  C   UNK N   1      32.003  15.271   7.345  0.00  0.00     0.015 A 
ENDBRANCH  28  32
ENDBRANCH   3  26
TORSDOF 9
ENDMDL
