REMARK  7 active torsions:
REMARK  status: ('A' for Active; 'I' for Inactive)
REMARK    1  A    between atoms: S_2  and  C_4 
REMARK    2  A    between atoms: S_2  and  C_6 
REMARK    3  A    between atoms: C_9  and  O_10 
REMARK    4  A    between atoms: C_12  and  N_14 
REMARK    5  A    between atoms: N_14  and  C_15 
REMARK    6  A    between atoms: C_19  and  C_21 
REMARK    7  A    between atoms: C_25  and  C_27 
ROOT
HETATM    1  C   UNK N   1       1.226  -0.707   1.373  0.00  0.00     0.229 A 
HETATM    2  N   UNK N   1       2.257  -1.550   1.594  0.00  0.00    -0.329 N 
ATOM      3  HN  UNK N   1       3.208  -1.313   1.876  1.00  0.00     0.168 HD
HETATM    4  C   UNK N   1       1.746  -2.782   1.356  0.00  0.00     0.130 A 
HETATM    5  C   UNK N   1       0.417  -2.614   1.010  0.00  0.00     0.105 A 
HETATM    6  O   UNK N   1       0.138  -1.339   1.043  0.00  0.00    -0.277 OA
ENDROOT
BRANCH   1   7
HETATM    7  N   UNK N   1       1.286   0.708   1.413  0.00  0.00    -0.319 N 
HETATM    8  H   UNK N   1       0.697   1.158   2.061  0.00  0.00     0.169 HD
BRANCH   7   9
HETATM    9  C   UNK N   1       2.113   1.549   0.609  0.00  0.00     0.070 A 
HETATM   10  C   UNK N   1       3.175   1.071  -0.208  0.00  0.00     0.095 A 
HETATM   11  C   UNK N   1       3.884   1.981  -1.010  0.00  0.00     0.040 A 
HETATM   12  C   UNK N   1       3.547   3.331  -1.029  0.00  0.00     0.026 A 
HETATM   13  C   UNK N   1       2.503   3.801  -0.236  0.00  0.00     0.061 A 
HETATM   14  C   UNK N   1       1.795   2.915   0.579  0.00  0.00     0.055 A 
BRANCH  10  15
HETATM   15  O   UNK N   1       3.506  -0.240  -0.223  0.00  0.00    -0.354 OA
HETATM   16  C   UNK N   1       4.550  -0.759  -0.956  0.00  0.00     0.210 C 
ENDBRANCH  10  15
BRANCH  13  17
HETATM   17  S   UNK N   1       2.047   5.530  -0.311  0.00  0.00     0.175 S 
HETATM   18  O   UNK N   1       1.654   5.827  -1.766  0.00  0.00    -0.223 OA
HETATM   19  O   UNK N   1       3.366   6.319  -0.265  0.00  0.00    -0.223 OA
BRANCH  17  20
HETATM   20  C   UNK N   1       0.842   6.382   0.758  0.00  0.00     0.141 C 
HETATM   21  C   UNK N   1       1.444   7.627   1.382  0.00  0.00     0.021 C 
ENDBRANCH  17  20
ENDBRANCH  13  17
ENDBRANCH   7   9
ENDBRANCH   1   7
BRANCH   5  22
HETATM   22  C   UNK N   1      -0.571  -3.613   0.599  0.00  0.00     0.000 A 
HETATM   23  C   UNK N   1      -0.264  -4.968   0.424  0.00  0.00     0.014 A 
HETATM   24  C   UNK N   1      -1.263  -5.854  -0.008  0.00  0.00     0.002 A 
HETATM   25  C   UNK N   1      -2.564  -5.387  -0.255  0.00  0.00     0.014 A 
HETATM   26  C   UNK N   1      -2.868  -4.028  -0.071  0.00  0.00    -0.009 A 
HETATM   27  C   UNK N   1      -1.863  -3.163   0.347  0.00  0.00     0.028 A 
BRANCH  26  28
HETATM   28  C   UNK N   1      -4.221  -3.476  -0.287  0.00  0.00     0.042 A 
HETATM   29  C   UNK N   1      -5.281  -4.288  -0.710  0.00  0.00     0.030 A 
HETATM   30  C   UNK N   1      -6.547  -3.724  -0.885  0.00  0.00     0.004 A 
HETATM   31  C   UNK N   1      -6.746  -2.366  -0.635  0.00  0.00     0.017 A 
HETATM   32  C   UNK N   1      -5.671  -1.585  -0.215  0.00  0.00     0.088 A 
HETATM   33  N   UNK N   1      -4.445  -2.149  -0.052  0.00  0.00    -0.365 N 
ATOM     34  HN  UNK N   1      -3.669  -1.564   0.256  1.00  0.00     0.165 HD
ENDBRANCH  26  28
ENDBRANCH   5  22
TORSDOF 7
