MODEL 1
REMARK VINA RESULT:      -8.4      0.000      0.000
REMARK  7 active torsions:
REMARK  status: ('A' for Active; 'I' for Inactive)
REMARK    1  A    between atoms: S_2  and  C_4 
REMARK    2  A    between atoms: S_2  and  C_6 
REMARK    3  A    between atoms: C_9  and  O_10 
REMARK    4  A    between atoms: C_12  and  N_14 
REMARK    5  A    between atoms: N_14  and  C_15 
REMARK    6  A    between atoms: C_19  and  C_21 
REMARK    7  A    between atoms: C_25  and  C_27 
ROOT
HETATM    1  C   UNK N   1      35.227  13.741  12.893  0.00  0.00     0.229 A 
HETATM    2  N   UNK N   1      36.413  14.361  13.073  0.00  0.00    -0.329 N 
ATOM      3  HN  UNK N   1      36.980  14.840  12.374  1.00  0.00     0.168 HD
HETATM    4  C   UNK N   1      36.682  14.203  14.392  0.00  0.00     0.130 A 
HETATM    5  C   UNK N   1      35.628  13.497  14.943  0.00  0.00     0.105 A 
HETATM    6  O   UNK N   1      34.760  13.245  14.001  0.00  0.00    -0.277 OA
ENDROOT
BRANCH   1   7
HETATM    7  N   UNK N   1      34.563  13.562  11.654  0.00  0.00    -0.319 N 
HETATM    8  H   UNK N   1      33.720  13.053  11.673  0.00  0.00     0.169 HD
BRANCH   7   9
HETATM    9  C   UNK N   1      34.990  14.044  10.380  0.00  0.00     0.070 A 
HETATM   10  C   UNK N   1      35.778  13.287   9.469  0.00  0.00     0.095 A 
HETATM   11  C   UNK N   1      36.087  13.835   8.213  0.00  0.00     0.040 A 
HETATM   12  C   UNK N   1      35.618  15.093   7.847  0.00  0.00     0.026 A 
HETATM   13  C   UNK N   1      34.840  15.834   8.734  0.00  0.00     0.061 A 
HETATM   14  C   UNK N   1      34.533  15.312   9.993  0.00  0.00     0.055 A 
BRANCH  10  15
HETATM   15  O   UNK N   1      36.226  12.053   9.794  0.00  0.00    -0.354 OA
HETATM   16  C   UNK N   1      37.444  11.813  10.390  0.00  0.00     0.210 C 
ENDBRANCH  10  15
BRANCH  13  17
HETATM   17  S   UNK N   1      34.200  17.427   8.229  0.00  0.00     0.175 S 
HETATM   18  O   UNK N   1      34.642  17.646   6.774  0.00  0.00    -0.223 OA
HETATM   19  O   UNK N   1      35.098  18.478   8.902  0.00  0.00    -0.223 OA
BRANCH  17  20
HETATM   20  C   UNK N   1      32.472  17.993   8.359  0.00  0.00     0.141 C 
HETATM   21  C   UNK N   1      31.504  16.829   8.264  0.00  0.00     0.021 C 
ENDBRANCH  17  20
ENDBRANCH  13  17
ENDBRANCH   7   9
ENDBRANCH   1   7
BRANCH   5  22
HETATM   22  C   UNK N   1      35.448  13.011  16.312  0.00  0.00     0.000 A 
HETATM   23  C   UNK N   1      35.376  13.859  17.424  0.00  0.00     0.014 A 
HETATM   24  C   UNK N   1      35.240  13.309  18.707  0.00  0.00     0.002 A 
HETATM   25  C   UNK N   1      35.167  11.917  18.876  0.00  0.00     0.014 A 
HETATM   26  C   UNK N   1      35.233  11.070  17.756  0.00  0.00    -0.009 A 
HETATM   27  C   UNK N   1      35.379  11.633  16.494  0.00  0.00     0.028 A 
BRANCH  26  28
HETATM   28  C   UNK N   1      35.135   9.600  17.860  0.00  0.00     0.042 A 
HETATM   29  C   UNK N   1      34.413   8.988  18.892  0.00  0.00     0.030 A 
HETATM   30  C   UNK N   1      34.336   7.594  18.939  0.00  0.00     0.004 A 
HETATM   31  C   UNK N   1      34.972   6.827  17.963  0.00  0.00     0.017 A 
HETATM   32  C   UNK N   1      35.683   7.466  16.949  0.00  0.00     0.088 A 
HETATM   33  N   UNK N   1      35.750   8.823  16.919  0.00  0.00    -0.365 N 
ATOM     34  HN  UNK N   1      36.274   9.276  16.170  1.00  0.00     0.165 HD
ENDBRANCH  26  28
ENDBRANCH   5  22
TORSDOF 7
ENDMDL
MODEL 2
REMARK VINA RESULT:      -7.9      2.783      4.496
REMARK  7 active torsions:
REMARK  status: ('A' for Active; 'I' for Inactive)
REMARK    1  A    between atoms: S_2  and  C_4 
REMARK    2  A    between atoms: S_2  and  C_6 
REMARK    3  A    between atoms: C_9  and  O_10 
REMARK    4  A    between atoms: C_12  and  N_14 
REMARK    5  A    between atoms: N_14  and  C_15 
REMARK    6  A    between atoms: C_19  and  C_21 
REMARK    7  A    between atoms: C_25  and  C_27 
ROOT
HETATM    1  C   UNK N   1      33.749  15.389  10.793  0.00  0.00     0.229 A 
HETATM    2  N   UNK N   1      34.694  16.353  10.825  0.00  0.00    -0.329 N 
ATOM      3  HN  UNK N   1      34.672  17.264  10.369  1.00  0.00     0.168 HD
HETATM    4  C   UNK N   1      35.679  15.837  11.599  0.00  0.00     0.130 A 
HETATM    5  C   UNK N   1      35.266  14.580  12.004  0.00  0.00     0.105 A 
HETATM    6  O   UNK N   1      34.083  14.351  11.502  0.00  0.00    -0.277 OA
ENDROOT
BRANCH   1   7
HETATM    7  N   UNK N   1      32.551  15.425  10.038  0.00  0.00    -0.319 N 
HETATM    8  H   UNK N   1      31.754  15.021  10.452  0.00  0.00     0.169 HD
BRANCH   7   9
HETATM    9  C   UNK N   1      32.380  15.985   8.736  0.00  0.00     0.070 A 
HETATM   10  C   UNK N   1      33.373  15.944   7.718  0.00  0.00     0.095 A 
HETATM   11  C   UNK N   1      33.075  16.469   6.450  0.00  0.00     0.040 A 
HETATM   12  C   UNK N   1      31.821  17.007   6.175  0.00  0.00     0.026 A 
HETATM   13  C   UNK N   1      30.844  17.042   7.167  0.00  0.00     0.061 A 
HETATM   14  C   UNK N   1      31.126  16.537   8.439  0.00  0.00     0.055 A 
BRANCH  10  15
HETATM   15  O   UNK N   1      34.591  15.406   7.955  0.00  0.00    -0.354 OA
HETATM   16  C   UNK N   1      34.974  14.154   7.526  0.00  0.00     0.210 C 
ENDBRANCH  10  15
BRANCH  13  17
HETATM   17  S   UNK N   1      29.220  17.687   6.784  0.00  0.00     0.175 S 
HETATM   18  O   UNK N   1      28.281  16.480   6.639  0.00  0.00    -0.223 OA
HETATM   19  O   UNK N   1      29.271  18.116   5.308  0.00  0.00    -0.223 OA
BRANCH  17  20
HETATM   20  C   UNK N   1      28.314  18.967   7.712  0.00  0.00     0.141 C 
HETATM   21  C   UNK N   1      27.612  19.933   6.776  0.00  0.00     0.021 C 
ENDBRANCH  17  20
ENDBRANCH  13  17
ENDBRANCH   7   9
ENDBRANCH   1   7
BRANCH   5  22
HETATM   22  C   UNK N   1      35.978  13.579  12.800  0.00  0.00     0.000 A 
HETATM   23  C   UNK N   1      36.945  12.719  12.263  0.00  0.00     0.014 A 
HETATM   24  C   UNK N   1      37.554  11.761  13.089  0.00  0.00     0.002 A 
HETATM   25  C   UNK N   1      37.203  11.671  14.445  0.00  0.00     0.014 A 
HETATM   26  C   UNK N   1      36.238  12.541  14.980  0.00  0.00    -0.009 A 
HETATM   27  C   UNK N   1      35.637  13.476  14.145  0.00  0.00     0.028 A 
BRANCH  26  28
HETATM   28  C   UNK N   1      35.842  12.517  16.403  0.00  0.00     0.042 A 
HETATM   29  C   UNK N   1      35.771  11.316  17.120  0.00  0.00     0.030 A 
HETATM   30  C   UNK N   1      35.408  11.345  18.469  0.00  0.00     0.004 A 
HETATM   31  C   UNK N   1      35.123  12.563  19.088  0.00  0.00     0.017 A 
HETATM   32  C   UNK N   1      35.202  13.740  18.346  0.00  0.00     0.088 A 
HETATM   33  N   UNK N   1      35.555  13.694  17.035  0.00  0.00    -0.365 N 
ATOM     34  HN  UNK N   1      35.609  14.564  16.506  1.00  0.00     0.165 HD
ENDBRANCH  26  28
ENDBRANCH   5  22
TORSDOF 7
ENDMDL
MODEL 3
REMARK VINA RESULT:      -7.7      9.738     13.207
REMARK  7 active torsions:
REMARK  status: ('A' for Active; 'I' for Inactive)
REMARK    1  A    between atoms: S_2  and  C_4 
REMARK    2  A    between atoms: S_2  and  C_6 
REMARK    3  A    between atoms: C_9  and  O_10 
REMARK    4  A    between atoms: C_12  and  N_14 
REMARK    5  A    between atoms: N_14  and  C_15 
REMARK    6  A    between atoms: C_19  and  C_21 
REMARK    7  A    between atoms: C_25  and  C_27 
ROOT
HETATM    1  C   UNK N   1      25.491  15.082   6.547  0.00  0.00     0.229 A 
HETATM    2  N   UNK N   1      25.753  15.654   5.353  0.00  0.00    -0.329 N 
ATOM      3  HN  UNK N   1      25.283  15.485   4.464  1.00  0.00     0.168 HD
HETATM    4  C   UNK N   1      26.780  16.502   5.600  0.00  0.00     0.130 A 
HETATM    5  C   UNK N   1      27.079  16.402   6.947  0.00  0.00     0.105 A 
HETATM    6  O   UNK N   1      26.265  15.536   7.489  0.00  0.00    -0.277 OA
ENDROOT
BRANCH   1   7
HETATM    7  N   UNK N   1      24.545  14.054   6.788  0.00  0.00    -0.319 N 
HETATM    8  H   UNK N   1      24.672  13.212   6.293  0.00  0.00     0.169 HD
BRANCH   7   9
HETATM    9  C   UNK N   1      23.427  14.115   7.673  0.00  0.00     0.070 A 
HETATM   10  C   UNK N   1      23.370  13.445   8.927  0.00  0.00     0.095 A 
HETATM   11  C   UNK N   1      22.246  13.627   9.749  0.00  0.00     0.040 A 
HETATM   12  C   UNK N   1      21.204  14.465   9.361  0.00  0.00     0.026 A 
HETATM   13  C   UNK N   1      21.260  15.128   8.138  0.00  0.00     0.061 A 
HETATM   14  C   UNK N   1      22.363  14.950   7.300  0.00  0.00     0.055 A 
BRANCH  10  15
HETATM   15  O   UNK N   1      24.380  12.644   9.334  0.00  0.00    -0.354 OA
HETATM   16  C   UNK N   1      24.455  12.082  10.590  0.00  0.00     0.210 C 
ENDBRANCH  10  15
BRANCH  13  17
HETATM   17  S   UNK N   1      19.939  16.243   7.677  0.00  0.00     0.175 S 
HETATM   18  O   UNK N   1      19.082  15.515   6.631  0.00  0.00    -0.223 OA
HETATM   19  O   UNK N   1      20.575  17.298   6.756  0.00  0.00    -0.223 OA
BRANCH  17  20
HETATM   20  C   UNK N   1      18.796  17.099   8.810  0.00  0.00     0.141 C 
HETATM   21  C   UNK N   1      19.415  18.372   9.357  0.00  0.00     0.021 C 
ENDBRANCH  17  20
ENDBRANCH  13  17
ENDBRANCH   7   9
ENDBRANCH   1   7
BRANCH   5  22
HETATM   22  C   UNK N   1      28.139  17.055   7.716  0.00  0.00     0.000 A 
HETATM   23  C   UNK N   1      27.896  17.804   8.874  0.00  0.00     0.014 A 
HETATM   24  C   UNK N   1      28.967  18.429   9.532  0.00  0.00     0.002 A 
HETATM   25  C   UNK N   1      30.275  18.297   9.037  0.00  0.00     0.014 A 
HETATM   26  C   UNK N   1      30.514  17.538   7.880  0.00  0.00    -0.009 A 
HETATM   27  C   UNK N   1      29.439  16.935   7.235  0.00  0.00     0.028 A 
BRANCH  26  28
HETATM   28  C   UNK N   1      31.866  17.337   7.322  0.00  0.00     0.042 A 
HETATM   29  C   UNK N   1      32.999  17.880   7.941  0.00  0.00     0.030 A 
HETATM   30  C   UNK N   1      34.260  17.649   7.385  0.00  0.00     0.004 A 
HETATM   31  C   UNK N   1      34.381  16.880   6.228  0.00  0.00     0.017 A 
HETATM   32  C   UNK N   1      33.235  16.353   5.636  0.00  0.00     0.088 A 
HETATM   33  N   UNK N   1      32.016  16.589   6.188  0.00  0.00    -0.365 N 
ATOM     34  HN  UNK N   1      31.187  16.196   5.743  1.00  0.00     0.165 HD
ENDBRANCH  26  28
ENDBRANCH   5  22
TORSDOF 7
ENDMDL
MODEL 4
REMARK VINA RESULT:      -7.7      3.910     11.128
REMARK  7 active torsions:
REMARK  status: ('A' for Active; 'I' for Inactive)
REMARK    1  A    between atoms: S_2  and  C_4 
REMARK    2  A    between atoms: S_2  and  C_6 
REMARK    3  A    between atoms: C_9  and  O_10 
REMARK    4  A    between atoms: C_12  and  N_14 
REMARK    5  A    between atoms: N_14  and  C_15 
REMARK    6  A    between atoms: C_19  and  C_21 
REMARK    7  A    between atoms: C_25  and  C_27 
ROOT
HETATM    1  C   UNK N   1      34.172  17.000   9.340  0.00  0.00     0.229 A 
HETATM    2  N   UNK N   1      34.539  18.049   8.574  0.00  0.00    -0.329 N 
ATOM      3  HN  UNK N   1      35.313  18.694   8.729  1.00  0.00     0.168 HD
HETATM    4  C   UNK N   1      33.648  18.055   7.554  0.00  0.00     0.130 A 
HETATM    5  C   UNK N   1      32.787  16.990   7.757  0.00  0.00     0.105 A 
HETATM    6  O   UNK N   1      33.147  16.368   8.847  0.00  0.00    -0.277 OA
ENDROOT
BRANCH   1   7
HETATM    7  N   UNK N   1      34.754  16.629  10.577  0.00  0.00    -0.319 N 
HETATM    8  H   UNK N   1      34.658  17.268  11.320  0.00  0.00     0.169 HD
BRANCH   7   9
HETATM    9  C   UNK N   1      35.466  15.424  10.857  0.00  0.00     0.070 A 
HETATM   10  C   UNK N   1      36.174  14.675   9.877  0.00  0.00     0.095 A 
HETATM   11  C   UNK N   1      36.896  13.537  10.276  0.00  0.00     0.040 A 
HETATM   12  C   UNK N   1      36.942  13.151  11.612  0.00  0.00     0.026 A 
HETATM   13  C   UNK N   1      36.256  13.887  12.575  0.00  0.00     0.061 A 
HETATM   14  C   UNK N   1      35.521  15.013  12.198  0.00  0.00     0.055 A 
BRANCH  10  15
HETATM   15  O   UNK N   1      36.162  15.043   8.576  0.00  0.00    -0.354 OA
HETATM   16  C   UNK N   1      35.775  14.213   7.548  0.00  0.00     0.210 C 
ENDBRANCH  10  15
BRANCH  13  17
HETATM   17  S   UNK N   1      36.368  13.410  14.297  0.00  0.00     0.175 S 
HETATM   18  O   UNK N   1      34.938  13.416  14.857  0.00  0.00    -0.223 OA
HETATM   19  O   UNK N   1      36.911  14.639  15.043  0.00  0.00    -0.223 OA
BRANCH  17  20
HETATM   20  C   UNK N   1      37.201  11.932  14.961  0.00  0.00     0.141 C 
HETATM   21  C   UNK N   1      36.285  11.152  15.885  0.00  0.00     0.021 C 
ENDBRANCH  17  20
ENDBRANCH  13  17
ENDBRANCH   7   9
ENDBRANCH   1   7
BRANCH   5  22
HETATM   22  C   UNK N   1      31.612  16.583   6.984  0.00  0.00     0.000 A 
HETATM   23  C   UNK N   1      31.399  15.270   6.547  0.00  0.00     0.014 A 
HETATM   24  C   UNK N   1      30.262  14.972   5.779  0.00  0.00     0.002 A 
HETATM   25  C   UNK N   1      29.341  15.982   5.458  0.00  0.00     0.014 A 
HETATM   26  C   UNK N   1      29.557  17.296   5.904  0.00  0.00    -0.009 A 
HETATM   27  C   UNK N   1      30.693  17.575   6.655  0.00  0.00     0.028 A 
BRANCH  26  28
HETATM   28  C   UNK N   1      28.615  18.399   5.625  0.00  0.00     0.042 A 
HETATM   29  C   UNK N   1      28.005  19.118   6.661  0.00  0.00     0.030 A 
HETATM   30  C   UNK N   1      27.134  20.164   6.347  0.00  0.00     0.004 A 
HETATM   31  C   UNK N   1      26.883  20.486   5.013  0.00  0.00     0.017 A 
HETATM   32  C   UNK N   1      27.506  19.752   4.005  0.00  0.00     0.088 A 
HETATM   33  N   UNK N   1      28.349  18.736   4.328  0.00  0.00    -0.365 N 
ATOM     34  HN  UNK N   1      28.797  18.209   3.579  1.00  0.00     0.165 HD
ENDBRANCH  26  28
ENDBRANCH   5  22
TORSDOF 7
ENDMDL
MODEL 5
REMARK VINA RESULT:      -7.7      2.377      3.718
REMARK  7 active torsions:
REMARK  status: ('A' for Active; 'I' for Inactive)
REMARK    1  A    between atoms: S_2  and  C_4 
REMARK    2  A    between atoms: S_2  and  C_6 
REMARK    3  A    between atoms: C_9  and  O_10 
REMARK    4  A    between atoms: C_12  and  N_14 
REMARK    5  A    between atoms: N_14  and  C_15 
REMARK    6  A    between atoms: C_19  and  C_21 
REMARK    7  A    between atoms: C_25  and  C_27 
ROOT
HETATM    1  C   UNK N   1      35.805  14.803  10.690  0.00  0.00     0.229 A 
HETATM    2  N   UNK N   1      37.089  14.407  10.826  0.00  0.00    -0.329 N 
ATOM      3  HN  UNK N   1      37.908  14.765  10.336  1.00  0.00     0.168 HD
HETATM    4  C   UNK N   1      37.045  13.426  11.759  0.00  0.00     0.130 A 
HETATM    5  C   UNK N   1      35.724  13.288  12.147  0.00  0.00     0.105 A 
HETATM    6  O   UNK N   1      35.005  14.151  11.481  0.00  0.00    -0.277 OA
ENDROOT
BRANCH   1   7
HETATM    7  N   UNK N   1      35.324  15.758   9.761  0.00  0.00    -0.319 N 
HETATM    8  H   UNK N   1      35.805  16.616   9.719  0.00  0.00     0.169 HD
BRANCH   7   9
HETATM    9  C   UNK N   1      34.211  15.606   8.880  0.00  0.00     0.070 A 
HETATM   10  C   UNK N   1      34.108  14.577   7.903  0.00  0.00     0.095 A 
HETATM   11  C   UNK N   1      32.938  14.481   7.132  0.00  0.00     0.040 A 
HETATM   12  C   UNK N   1      31.878  15.362   7.327  0.00  0.00     0.026 A 
HETATM   13  C   UNK N   1      31.973  16.365   8.288  0.00  0.00     0.061 A 
HETATM   14  C   UNK N   1      33.134  16.486   9.055  0.00  0.00     0.055 A 
BRANCH  10  15
HETATM   15  O   UNK N   1      35.116  13.695   7.711  0.00  0.00    -0.354 OA
HETATM   16  C   UNK N   1      35.073  12.381   8.118  0.00  0.00     0.210 C 
ENDBRANCH  10  15
BRANCH  13  17
HETATM   17  S   UNK N   1      30.582  17.457   8.564  0.00  0.00     0.175 S 
HETATM   18  O   UNK N   1      29.894  17.658   7.205  0.00  0.00    -0.223 OA
HETATM   19  O   UNK N   1      31.175  18.866   8.730  0.00  0.00    -0.223 OA
BRANCH  17  20
HETATM   20  C   UNK N   1      29.268  17.247   9.808  0.00  0.00     0.141 C 
HETATM   21  C   UNK N   1      27.892  17.348   9.177  0.00  0.00     0.021 C 
ENDBRANCH  17  20
ENDBRANCH  13  17
ENDBRANCH   7   9
ENDBRANCH   1   7
BRANCH   5  22
HETATM   22  C   UNK N   1      35.123  12.334  13.080  0.00  0.00     0.000 A 
HETATM   23  C   UNK N   1      34.387  11.217  12.666  0.00  0.00     0.014 A 
HETATM   24  C   UNK N   1      33.812  10.371  13.628  0.00  0.00     0.002 A 
HETATM   25  C   UNK N   1      33.981  10.639  14.996  0.00  0.00     0.014 A 
HETATM   26  C   UNK N   1      34.725  11.757  15.405  0.00  0.00    -0.009 A 
HETATM   27  C   UNK N   1      35.278  12.590  14.439  0.00  0.00     0.028 A 
BRANCH  26  28
HETATM   28  C   UNK N   1      34.963  12.081  16.827  0.00  0.00     0.042 A 
HETATM   29  C   UNK N   1      34.971  13.406  17.281  0.00  0.00     0.030 A 
HETATM   30  C   UNK N   1      35.184  13.662  18.638  0.00  0.00     0.004 A 
HETATM   31  C   UNK N   1      35.382  12.604  19.525  0.00  0.00     0.017 A 
HETATM   32  C   UNK N   1      35.369  11.297  19.041  0.00  0.00     0.088 A 
HETATM   33  N   UNK N   1      35.162  11.065  17.718  0.00  0.00    -0.365 N 
ATOM     34  HN  UNK N   1      35.155  10.103  17.380  1.00  0.00     0.165 HD
ENDBRANCH  26  28
ENDBRANCH   5  22
TORSDOF 7
ENDMDL
MODEL 6
REMARK VINA RESULT:      -7.7      8.484     13.268
REMARK  7 active torsions:
REMARK  status: ('A' for Active; 'I' for Inactive)
REMARK    1  A    between atoms: S_2  and  C_4 
REMARK    2  A    between atoms: S_2  and  C_6 
REMARK    3  A    between atoms: C_9  and  O_10 
REMARK    4  A    between atoms: C_12  and  N_14 
REMARK    5  A    between atoms: N_14  and  C_15 
REMARK    6  A    between atoms: C_19  and  C_21 
REMARK    7  A    between atoms: C_25  and  C_27 
ROOT
HETATM    1  C   UNK N   1      26.532  17.401   4.561  0.00  0.00     0.229 A 
HETATM    2  N   UNK N   1      27.442  18.015   3.776  0.00  0.00    -0.329 N 
ATOM      3  HN  UNK N   1      27.385  18.191   2.773  1.00  0.00     0.168 HD
HETATM    4  C   UNK N   1      28.450  18.346   4.619  0.00  0.00     0.130 A 
HETATM    5  C   UNK N   1      28.085  17.917   5.882  0.00  0.00     0.105 A 
HETATM    6  O   UNK N   1      26.908  17.357   5.806  0.00  0.00    -0.277 OA
ENDROOT
BRANCH   1   7
HETATM    7  N   UNK N   1      25.329  16.795   4.121  0.00  0.00    -0.319 N 
HETATM    8  H   UNK N   1      25.417  16.032   3.506  0.00  0.00     0.169 HD
BRANCH   7   9
HETATM    9  C   UNK N   1      24.002  17.180   4.479  0.00  0.00     0.070 A 
HETATM   10  C   UNK N   1      23.310  16.680   5.617  0.00  0.00     0.095 A 
HETATM   11  C   UNK N   1      22.029  17.176   5.911  0.00  0.00     0.040 A 
HETATM   12  C   UNK N   1      21.443  18.159   5.119  0.00  0.00     0.026 A 
HETATM   13  C   UNK N   1      22.121  18.656   4.008  0.00  0.00     0.061 A 
HETATM   14  C   UNK N   1      23.389  18.165   3.690  0.00  0.00     0.055 A 
BRANCH  10  15
HETATM   15  O   UNK N   1      23.868  15.742   6.415  0.00  0.00    -0.354 OA
HETATM   16  C   UNK N   1      23.160  14.722   7.011  0.00  0.00     0.210 C 
ENDBRANCH  10  15
BRANCH  13  17
HETATM   17  S   UNK N   1      21.377  19.956   3.030  0.00  0.00     0.175 S 
HETATM   18  O   UNK N   1      22.413  21.085   2.923  0.00  0.00    -0.223 OA
HETATM   19  O   UNK N   1      20.368  20.659   3.954  0.00  0.00    -0.223 OA
BRANCH  17  20
HETATM   20  C   UNK N   1      20.607  19.774   1.388  0.00  0.00     0.141 C 
HETATM   21  C   UNK N   1      20.863  20.994   0.522  0.00  0.00     0.021 C 
ENDBRANCH  17  20
ENDBRANCH  13  17
ENDBRANCH   7   9
ENDBRANCH   1   7
BRANCH   5  22
HETATM   22  C   UNK N   1      28.837  17.971   7.138  0.00  0.00     0.000 A 
HETATM   23  C   UNK N   1      28.314  18.506   8.321  0.00  0.00     0.014 A 
HETATM   24  C   UNK N   1      29.115  18.553   9.473  0.00  0.00     0.002 A 
HETATM   25  C   UNK N   1      30.430  18.060   9.440  0.00  0.00     0.014 A 
HETATM   26  C   UNK N   1      30.946  17.518   8.252  0.00  0.00    -0.009 A 
HETATM   27  C   UNK N   1      30.142  17.490   7.118  0.00  0.00     0.028 A 
BRANCH  26  28
HETATM   28  C   UNK N   1      32.310  16.959   8.156  0.00  0.00     0.042 A 
HETATM   29  C   UNK N   1      32.828  16.504   6.936  0.00  0.00     0.030 A 
HETATM   30  C   UNK N   1      34.129  15.998   6.892  0.00  0.00     0.004 A 
HETATM   31  C   UNK N   1      34.900  15.953   8.053  0.00  0.00     0.017 A 
HETATM   32  C   UNK N   1      34.356  16.413   9.251  0.00  0.00     0.088 A 
HETATM   33  N   UNK N   1      33.087  16.900   9.278  0.00  0.00    -0.365 N 
ATOM     34  HN  UNK N   1      32.704  17.233  10.162  1.00  0.00     0.165 HD
ENDBRANCH  26  28
ENDBRANCH   5  22
TORSDOF 7
ENDMDL
MODEL 7
REMARK VINA RESULT:      -7.7      3.510     10.779
REMARK  7 active torsions:
REMARK  status: ('A' for Active; 'I' for Inactive)
REMARK    1  A    between atoms: S_2  and  C_4 
REMARK    2  A    between atoms: S_2  and  C_6 
REMARK    3  A    between atoms: C_9  and  O_10 
REMARK    4  A    between atoms: C_12  and  N_14 
REMARK    5  A    between atoms: N_14  and  C_15 
REMARK    6  A    between atoms: C_19  and  C_21 
REMARK    7  A    between atoms: C_25  and  C_27 
ROOT
HETATM    1  C   UNK N   1      34.193  15.623  10.252  0.00  0.00     0.229 A 
HETATM    2  N   UNK N   1      33.032  14.984  10.512  0.00  0.00    -0.329 N 
ATOM      3  HN  UNK N   1      32.793  14.432  11.335  1.00  0.00     0.168 HD
HETATM    4  C   UNK N   1      32.255  15.239   9.431  0.00  0.00     0.130 A 
HETATM    5  C   UNK N   1      32.994  16.035   8.574  0.00  0.00     0.105 A 
HETATM    6  O   UNK N   1      34.162  16.254   9.116  0.00  0.00    -0.277 OA
ENDROOT
BRANCH   1   7
HETATM    7  N   UNK N   1      35.360  15.584  11.055  0.00  0.00    -0.319 N 
HETATM    8  H   UNK N   1      35.811  16.443  11.221  0.00  0.00     0.169 HD
BRANCH   7   9
HETATM    9  C   UNK N   1      35.948  14.427  11.648  0.00  0.00     0.070 A 
HETATM   10  C   UNK N   1      36.949  13.635  11.019  0.00  0.00     0.095 A 
HETATM   11  C   UNK N   1      37.507  12.553  11.721  0.00  0.00     0.040 A 
HETATM   12  C   UNK N   1      37.109  12.264  13.023  0.00  0.00     0.026 A 
HETATM   13  C   UNK N   1      36.135  13.042  13.644  0.00  0.00     0.061 A 
HETATM   14  C   UNK N   1      35.558  14.113  12.958  0.00  0.00     0.055 A 
BRANCH  10  15
HETATM   15  O   UNK N   1      37.367  13.910   9.763  0.00  0.00    -0.354 OA
HETATM   16  C   UNK N   1      38.688  14.090   9.417  0.00  0.00     0.210 C 
ENDBRANCH  10  15
BRANCH  13  17
HETATM   17  S   UNK N   1      35.672  12.691  15.337  0.00  0.00     0.175 S 
HETATM   18  O   UNK N   1      34.188  13.062  15.482  0.00  0.00    -0.223 OA
HETATM   19  O   UNK N   1      36.275  13.823  16.185  0.00  0.00    -0.223 OA
BRANCH  17  20
HETATM   20  C   UNK N   1      35.925  11.121  16.228  0.00  0.00     0.141 C 
HETATM   21  C   UNK N   1      35.688  11.290  17.717  0.00  0.00     0.021 C 
ENDBRANCH  17  20
ENDBRANCH  13  17
ENDBRANCH   7   9
ENDBRANCH   1   7
BRANCH   5  22
HETATM   22  C   UNK N   1      32.648  16.543   7.245  0.00  0.00     0.000 A 
HETATM   23  C   UNK N   1      33.606  16.885   6.283  0.00  0.00     0.014 A 
HETATM   24  C   UNK N   1      33.190  17.399   5.045  0.00  0.00     0.002 A 
HETATM   25  C   UNK N   1      31.823  17.562   4.770  0.00  0.00     0.014 A 
HETATM   26  C   UNK N   1      30.866  17.210   5.737  0.00  0.00    -0.009 A 
HETATM   27  C   UNK N   1      31.297  16.712   6.961  0.00  0.00     0.028 A 
BRANCH  26  28
HETATM   28  C   UNK N   1      29.413  17.331   5.503  0.00  0.00     0.042 A 
HETATM   29  C   UNK N   1      28.890  18.313   4.652  0.00  0.00     0.030 A 
HETATM   30  C   UNK N   1      27.510  18.378   4.449  0.00  0.00     0.004 A 
HETATM   31  C   UNK N   1      26.667  17.468   5.088  0.00  0.00     0.017 A 
HETATM   32  C   UNK N   1      27.219  16.502   5.928  0.00  0.00     0.088 A 
HETATM   33  N   UNK N   1      28.564  16.454   6.117  0.00  0.00    -0.365 N 
ATOM     34  HN  UNK N   1      28.951  15.742   6.734  1.00  0.00     0.165 HD
ENDBRANCH  26  28
ENDBRANCH   5  22
TORSDOF 7
ENDMDL
MODEL 8
REMARK VINA RESULT:      -7.6     12.638     17.181
REMARK  7 active torsions:
REMARK  status: ('A' for Active; 'I' for Inactive)
REMARK    1  A    between atoms: S_2  and  C_4 
REMARK    2  A    between atoms: S_2  and  C_6 
REMARK    3  A    between atoms: C_9  and  O_10 
REMARK    4  A    between atoms: C_12  and  N_14 
REMARK    5  A    between atoms: N_14  and  C_15 
REMARK    6  A    between atoms: C_19  and  C_21 
REMARK    7  A    between atoms: C_25  and  C_27 
ROOT
HETATM    1  C   UNK N   1      20.251  18.305   3.497  0.00  0.00     0.229 A 
HETATM    2  N   UNK N   1      19.876  19.510   3.018  0.00  0.00    -0.329 N 
ATOM      3  HN  UNK N   1      18.935  19.821   2.777  1.00  0.00     0.168 HD
HETATM    4  C   UNK N   1      21.029  20.215   2.928  0.00  0.00     0.130 A 
HETATM    5  C   UNK N   1      22.048  19.390   3.372  0.00  0.00     0.105 A 
HETATM    6  O   UNK N   1      21.531  18.242   3.719  0.00  0.00    -0.277 OA
ENDROOT
BRANCH   1   7
HETATM    7  N   UNK N   1      19.404  17.186   3.688  0.00  0.00    -0.319 N 
HETATM    8  H   UNK N   1      18.531  17.208   3.231  0.00  0.00     0.169 HD
BRANCH   7   9
HETATM    9  C   UNK N   1      19.684  16.028   4.474  0.00  0.00     0.070 A 
HETATM   10  C   UNK N   1      20.032  14.762   3.928  0.00  0.00     0.095 A 
HETATM   11  C   UNK N   1      20.353  13.706   4.797  0.00  0.00     0.040 A 
HETATM   12  C   UNK N   1      20.354  13.890   6.176  0.00  0.00     0.026 A 
HETATM   13  C   UNK N   1      20.021  15.131   6.715  0.00  0.00     0.061 A 
HETATM   14  C   UNK N   1      19.686  16.190   5.868  0.00  0.00     0.055 A 
BRANCH  10  15
HETATM   15  O   UNK N   1      20.060  14.565   2.590  0.00  0.00    -0.354 OA
HETATM   16  C   UNK N   1      20.155  13.325   1.999  0.00  0.00     0.210 C 
ENDBRANCH  10  15
BRANCH  13  17
HETATM   17  S   UNK N   1      20.078  15.367   8.488  0.00  0.00     0.175 S 
HETATM   18  O   UNK N   1      18.684  15.846   8.921  0.00  0.00    -0.223 OA
HETATM   19  O   UNK N   1      20.850  16.677   8.717  0.00  0.00    -0.223 OA
BRANCH  17  20
HETATM   20  C   UNK N   1      20.642  14.156   9.727  0.00  0.00     0.141 C 
HETATM   21  C   UNK N   1      22.099  13.790   9.515  0.00  0.00     0.021 C 
ENDBRANCH  17  20
ENDBRANCH  13  17
ENDBRANCH   7   9
ENDBRANCH   1   7
BRANCH   5  22
HETATM   22  C   UNK N   1      23.490  19.638   3.423  0.00  0.00     0.000 A 
HETATM   23  C   UNK N   1      24.128  20.617   2.651  0.00  0.00     0.014 A 
HETATM   24  C   UNK N   1      25.521  20.765   2.733  0.00  0.00     0.002 A 
HETATM   25  C   UNK N   1      26.270  19.942   3.590  0.00  0.00     0.014 A 
HETATM   26  C   UNK N   1      25.624  18.966   4.367  0.00  0.00    -0.009 A 
HETATM   27  C   UNK N   1      24.245  18.827   4.264  0.00  0.00     0.028 A 
BRANCH  26  28
HETATM   28  C   UNK N   1      26.348  18.086   5.307  0.00  0.00     0.042 A 
HETATM   29  C   UNK N   1      27.569  18.472   5.874  0.00  0.00     0.030 A 
HETATM   30  C   UNK N   1      28.209  17.613   6.771  0.00  0.00     0.004 A 
HETATM   31  C   UNK N   1      27.629  16.387   7.096  0.00  0.00     0.017 A 
HETATM   32  C   UNK N   1      26.413  16.032   6.516  0.00  0.00     0.088 A 
HETATM   33  N   UNK N   1      25.805  16.879   5.643  0.00  0.00    -0.365 N 
ATOM     34  HN  UNK N   1      24.915  16.604   5.227  1.00  0.00     0.165 HD
ENDBRANCH  26  28
ENDBRANCH   5  22
TORSDOF 7
ENDMDL
MODEL 9
REMARK VINA RESULT:      -7.6      2.817      5.057
REMARK  7 active torsions:
REMARK  status: ('A' for Active; 'I' for Inactive)
REMARK    1  A    between atoms: S_2  and  C_4 
REMARK    2  A    between atoms: S_2  and  C_6 
REMARK    3  A    between atoms: C_9  and  O_10 
REMARK    4  A    between atoms: C_12  and  N_14 
REMARK    5  A    between atoms: N_14  and  C_15 
REMARK    6  A    between atoms: C_19  and  C_21 
REMARK    7  A    between atoms: C_25  and  C_27 
ROOT
HETATM    1  C   UNK N   1      34.979  16.321   9.459  0.00  0.00     0.229 A 
HETATM    2  N   UNK N   1      35.039  17.142  10.529  0.00  0.00    -0.329 N 
ATOM      3  HN  UNK N   1      34.741  18.115  10.588  1.00  0.00     0.168 HD
HETATM    4  C   UNK N   1      35.585  16.382  11.510  0.00  0.00     0.130 A 
HETATM    5  C   UNK N   1      35.818  15.128  10.974  0.00  0.00     0.105 A 
HETATM    6  O   UNK N   1      35.426  15.130   9.729  0.00  0.00    -0.277 OA
ENDROOT
BRANCH   1   7
HETATM    7  N   UNK N   1      34.555  16.684   8.157  0.00  0.00    -0.319 N 
HETATM    8  H   UNK N   1      35.241  17.056   7.555  0.00  0.00     0.169 HD
BRANCH   7   9
HETATM    9  C   UNK N   1      33.235  16.567   7.627  0.00  0.00     0.070 A 
HETATM   10  C   UNK N   1      32.908  15.804   6.471  0.00  0.00     0.095 A 
HETATM   11  C   UNK N   1      31.564  15.704   6.075  0.00  0.00     0.040 A 
HETATM   12  C   UNK N   1      30.555  16.323   6.806  0.00  0.00     0.026 A 
HETATM   13  C   UNK N   1      30.871  17.065   7.942  0.00  0.00     0.061 A 
HETATM   14  C   UNK N   1      32.202  17.188   8.345  0.00  0.00     0.055 A 
BRANCH  10  15
HETATM   15  O   UNK N   1      33.869  15.175   5.757  0.00  0.00    -0.354 OA
HETATM   16  C   UNK N   1      33.688  14.705   4.476  0.00  0.00     0.210 C 
ENDBRANCH  10  15
BRANCH  13  17
HETATM   17  S   UNK N   1      29.557  17.811   8.902  0.00  0.00     0.175 S 
HETATM   18  O   UNK N   1      30.160  19.033   9.612  0.00  0.00    -0.223 OA
HETATM   19  O   UNK N   1      29.364  16.906  10.131  0.00  0.00    -0.223 OA
BRANCH  17  20
HETATM   20  C   UNK N   1      27.910  18.297   8.294  0.00  0.00     0.141 C 
HETATM   21  C   UNK N   1      28.001  19.471   7.337  0.00  0.00     0.021 C 
ENDBRANCH  17  20
ENDBRANCH  13  17
ENDBRANCH   7   9
ENDBRANCH   1   7
BRANCH   5  22
HETATM   22  C   UNK N   1      36.447  13.957  11.586  0.00  0.00     0.000 A 
HETATM   23  C   UNK N   1      37.361  13.137  10.912  0.00  0.00     0.014 A 
HETATM   24  C   UNK N   1      37.890  12.010  11.561  0.00  0.00     0.002 A 
HETATM   25  C   UNK N   1      37.513  11.712  12.881  0.00  0.00     0.014 A 
HETATM   26  C   UNK N   1      36.601  12.542  13.554  0.00  0.00    -0.009 A 
HETATM   27  C   UNK N   1      36.079  13.647  12.892  0.00  0.00     0.028 A 
BRANCH  26  28
HETATM   28  C   UNK N   1      36.183  12.301  14.950  0.00  0.00     0.042 A 
HETATM   29  C   UNK N   1      35.442  13.252  15.664  0.00  0.00     0.030 A 
HETATM   30  C   UNK N   1      35.055  12.972  16.977  0.00  0.00     0.004 A 
HETATM   31  C   UNK N   1      35.403  11.755  17.562  0.00  0.00     0.017 A 
HETATM   32  C   UNK N   1      36.141  10.830  16.826  0.00  0.00     0.088 A 
HETATM   33  N   UNK N   1      36.512  11.118  15.550  0.00  0.00    -0.365 N 
ATOM     34  HN  UNK N   1      37.051  10.431  15.025  1.00  0.00     0.165 HD
ENDBRANCH  26  28
ENDBRANCH   5  22
TORSDOF 7
ENDMDL
