MODEL 1
REMARK VINA RESULT:      -6.4      0.000      0.000
REMARK  4 active torsions:
REMARK  status: ('A' for Active; 'I' for Inactive)
REMARK    1  A    between atoms: C_2  and  N_4 
REMARK    2  A    between atoms: C_13  and  N_14 
REMARK    3  A    between atoms: C_16  and  C_17 
REMARK    4  A    between atoms: C_22  and  O_23 
ROOT
HETATM    1  N   UNK N   1      27.926  18.986   5.521  0.00  0.00    -0.271 N 
HETATM    2  N   UNK N   1      28.727  18.495   4.582  0.00  0.00    -0.295 N 
ATOM      3  HN  UNK N   1      28.658  18.685   3.582  1.00  0.00     0.187 HD
HETATM    4  C   UNK N   1      28.322  18.513   6.711  0.00  0.00     0.140 A 
HETATM    5  N   UNK N   1      27.770  18.793   7.915  0.00  0.00    -0.337 N 
ATOM      6  HN  UNK N   1      26.971  19.421   7.990  1.00  0.00     0.168 HD
HETATM    7  C   UNK N   1      28.311  18.215   9.025  0.00  0.00     0.183 A 
HETATM    8  N   UNK N   1      29.382  17.371   8.914  0.00  0.00    -0.338 N 
ATOM      9  HN  UNK N   1      29.768  16.942   9.755  1.00  0.00     0.168 HD
HETATM   10  C   UNK N   1      29.947  17.088   7.703  0.00  0.00     0.116 A 
HETATM   11  C   UNK N   1      29.397  17.686   6.557  0.00  0.00     0.082 A 
HETATM   12  C   UNK N   1      29.653  17.694   5.177  0.00  0.00     0.076 A 
ENDROOT
BRANCH  12  13
HETATM   13  C   UNK N   1      30.738  17.046   4.396  0.00  0.00    -0.004 A 
HETATM   14  C   UNK N   1      30.605  15.752   3.881  0.00  0.00     0.050 A 
HETATM   15  C   UNK N   1      31.662  15.139   3.205  0.00  0.00     0.066 A 
HETATM   16  C   UNK N   1      32.871  15.817   3.038  0.00  0.00     0.036 A 
HETATM   17  C   UNK N   1      33.017  17.111   3.545  0.00  0.00     0.004 A 
HETATM   18  C   UNK N   1      31.958  17.720   4.226  0.00  0.00     0.014 A 
BRANCH  15  19
HETATM   19  O   UNK N   1      31.518  13.893   2.725  0.00  0.00    -0.361 OA
HETATM   20  H   UNK N   1      31.528  13.161   3.310  0.00  0.00     0.217 HD
ENDBRANCH  15  19
ENDBRANCH  12  13
BRANCH   1  21
HETATM   21  C   UNK N   1      26.821  19.922   5.280  0.00  0.00     0.102 C 
HETATM   22  C   UNK N   1      26.488  20.001   3.802  0.00  0.00     0.034 C 
HETATM   23  C   UNK N   1      27.144  21.318   5.788  0.00  0.00     0.034 C 
ENDBRANCH   1  21
BRANCH  10  24
HETATM   24  N   UNK N   1      31.039  16.204   7.643  0.00  0.00    -0.385 N 
HETATM   25  H   UNK N   1      31.849  16.445   7.138  0.00  0.00     0.157 HD
HETATM   26  H   UNK N   1      30.993  15.339   8.110  0.00  0.00     0.157 HD
ENDBRANCH  10  24
TORSDOF 4
ENDMDL
MODEL 2
REMARK VINA RESULT:      -6.2     13.974     16.369
REMARK  4 active torsions:
REMARK  status: ('A' for Active; 'I' for Inactive)
REMARK    1  A    between atoms: C_2  and  N_4 
REMARK    2  A    between atoms: C_13  and  N_14 
REMARK    3  A    between atoms: C_16  and  C_17 
REMARK    4  A    between atoms: C_22  and  O_23 
ROOT
HETATM    1  N   UNK N   1      25.495  25.201  -9.379  0.00  0.00    -0.271 N 
HETATM    2  N   UNK N   1      25.871  26.328  -8.785  0.00  0.00    -0.295 N 
ATOM      3  HN  UNK N   1      25.990  27.232  -9.243  1.00  0.00     0.187 HD
HETATM    4  C   UNK N   1      25.452  24.226  -8.459  0.00  0.00     0.140 A 
HETATM    5  N   UNK N   1      25.099  22.936  -8.666  0.00  0.00    -0.337 N 
ATOM      6  HN  UNK N   1      24.828  22.611  -9.593  1.00  0.00     0.168 HD
HETATM    7  C   UNK N   1      25.115  22.082  -7.603  0.00  0.00     0.183 A 
HETATM    8  N   UNK N   1      25.484  22.527  -6.363  0.00  0.00    -0.338 N 
ATOM      9  HN  UNK N   1      25.497  21.872  -5.582  1.00  0.00     0.168 HD
HETATM   10  C   UNK N   1      25.836  23.829  -6.147  0.00  0.00     0.116 A 
HETATM   11  C   UNK N   1      25.815  24.714  -7.237  0.00  0.00     0.082 A 
HETATM   12  C   UNK N   1      26.071  26.076  -7.462  0.00  0.00     0.076 A 
ENDROOT
BRANCH  12  13
HETATM   13  C   UNK N   1      26.436  27.156  -6.511  0.00  0.00    -0.004 A 
HETATM   14  C   UNK N   1      25.735  27.357  -5.317  0.00  0.00     0.050 A 
HETATM   15  C   UNK N   1      26.056  28.419  -4.468  0.00  0.00     0.066 A 
HETATM   16  C   UNK N   1      27.087  29.297  -4.808  0.00  0.00     0.036 A 
HETATM   17  C   UNK N   1      27.798  29.107  -5.995  0.00  0.00     0.004 A 
HETATM   18  C   UNK N   1      27.471  28.045  -6.845  0.00  0.00     0.014 A 
BRANCH  15  19
HETATM   19  O   UNK N   1      25.365  28.600  -3.331  0.00  0.00    -0.361 OA
HETATM   20  H   UNK N   1      25.749  29.074  -2.620  0.00  0.00     0.217 HD
ENDBRANCH  15  19
ENDBRANCH  12  13
BRANCH   1  21
HETATM   21  C   UNK N   1      25.150  25.072 -10.799  0.00  0.00     0.102 C 
HETATM   22  C   UNK N   1      26.398  24.926 -11.651  0.00  0.00     0.034 C 
HETATM   23  C   UNK N   1      24.352  26.267 -11.296  0.00  0.00     0.034 C 
ENDBRANCH   1  21
BRANCH  10  24
HETATM   24  N   UNK N   1      26.218  24.232  -4.854  0.00  0.00    -0.385 N 
HETATM   25  H   UNK N   1      27.171  24.287  -4.610  0.00  0.00     0.157 HD
HETATM   26  H   UNK N   1      25.529  24.460  -4.191  0.00  0.00     0.157 HD
ENDBRANCH  10  24
TORSDOF 4
ENDMDL
MODEL 3
REMARK VINA RESULT:      -6.2      2.332      5.202
REMARK  4 active torsions:
REMARK  status: ('A' for Active; 'I' for Inactive)
REMARK    1  A    between atoms: C_2  and  N_4 
REMARK    2  A    between atoms: C_13  and  N_14 
REMARK    3  A    between atoms: C_16  and  C_17 
REMARK    4  A    between atoms: C_22  and  O_23 
ROOT
HETATM    1  N   UNK N   1      30.573  17.176   5.178  0.00  0.00    -0.271 N 
HETATM    2  N   UNK N   1      29.593  17.659   4.421  0.00  0.00    -0.295 N 
ATOM      3  HN  UNK N   1      29.552  17.615   3.402  1.00  0.00     0.187 HD
HETATM    4  C   UNK N   1      30.280  17.423   6.463  0.00  0.00     0.140 A 
HETATM    5  N   UNK N   1      31.022  17.074   7.541  0.00  0.00    -0.337 N 
ATOM      6  HN  UNK N   1      31.901  16.571   7.429  1.00  0.00     0.168 HD
HETATM    7  C   UNK N   1      30.562  17.412   8.779  0.00  0.00     0.183 A 
HETATM    8  N   UNK N   1      29.382  18.090   8.918  0.00  0.00    -0.338 N 
ATOM      9  HN  UNK N   1      29.059  18.340   9.853  1.00  0.00     0.168 HD
HETATM   10  C   UNK N   1      28.627  18.439   7.836  0.00  0.00     0.116 A 
HETATM   11  C   UNK N   1      29.093  18.089   6.558  0.00  0.00     0.082 A 
HETATM   12  C   UNK N   1      28.656  18.223   5.231  0.00  0.00     0.076 A 
ENDROOT
BRANCH  12  13
HETATM   13  C   UNK N   1      27.399  18.795   4.685  0.00  0.00    -0.004 A 
HETATM   14  C   UNK N   1      26.170  18.139   4.818  0.00  0.00     0.050 A 
HETATM   15  C   UNK N   1      25.012  18.665   4.241  0.00  0.00     0.066 A 
HETATM   16  C   UNK N   1      25.071  19.859   3.520  0.00  0.00     0.036 A 
HETATM   17  C   UNK N   1      26.291  20.526   3.381  0.00  0.00     0.004 A 
HETATM   18  C   UNK N   1      27.450  19.994   3.956  0.00  0.00     0.014 A 
BRANCH  15  19
HETATM   19  O   UNK N   1      23.843  18.016   4.372  0.00  0.00    -0.361 OA
HETATM   20  H   UNK N   1      23.277  18.212   5.092  0.00  0.00     0.217 HD
ENDBRANCH  15  19
ENDBRANCH  12  13
BRANCH   1  21
HETATM   21  C   UNK N   1      31.751  16.460   4.676  0.00  0.00     0.102 C 
HETATM   22  C   UNK N   1      32.909  17.413   4.448  0.00  0.00     0.034 C 
HETATM   23  C   UNK N   1      31.454  15.727   3.377  0.00  0.00     0.034 C 
ENDBRANCH   1  21
BRANCH  10  24
HETATM   24  N   UNK N   1      27.427  19.146   8.034  0.00  0.00    -0.385 N 
HETATM   25  H   UNK N   1      27.054  19.708   7.317  0.00  0.00     0.157 HD
HETATM   26  H   UNK N   1      26.957  19.078   8.896  0.00  0.00     0.157 HD
ENDBRANCH  10  24
TORSDOF 4
ENDMDL
MODEL 4
REMARK VINA RESULT:      -6.2      3.435      4.943
REMARK  4 active torsions:
REMARK  status: ('A' for Active; 'I' for Inactive)
REMARK    1  A    between atoms: C_2  and  N_4 
REMARK    2  A    between atoms: C_13  and  N_14 
REMARK    3  A    between atoms: C_16  and  C_17 
REMARK    4  A    between atoms: C_22  and  O_23 
ROOT
HETATM    1  N   UNK N   1      29.359  17.488   5.977  0.00  0.00    -0.271 N 
HETATM    2  N   UNK N   1      30.175  17.594   7.020  0.00  0.00    -0.295 N 
ATOM      3  HN  UNK N   1      29.906  17.892   7.958  1.00  0.00     0.187 HD
HETATM    4  C   UNK N   1      30.070  17.073   4.918  0.00  0.00     0.140 A 
HETATM    5  N   UNK N   1      29.597  16.831   3.673  0.00  0.00    -0.337 N 
ATOM      6  HN  UNK N   1      28.610  16.957   3.456  1.00  0.00     0.168 HD
HETATM    7  C   UNK N   1      30.475  16.413   2.717  0.00  0.00     0.183 A 
HETATM    8  N   UNK N   1      31.800  16.249   3.019  0.00  0.00    -0.338 N 
ATOM      9  HN  UNK N   1      32.442  15.943   2.288  1.00  0.00     0.168 HD
HETATM   10  C   UNK N   1      32.282  16.487   4.273  0.00  0.00     0.116 A 
HETATM   11  C   UNK N   1      31.381  16.912   5.263  0.00  0.00     0.082 A 
HETATM   12  C   UNK N   1      31.430  17.242   6.627  0.00  0.00     0.076 A 
ENDROOT
BRANCH  12  13
HETATM   13  C   UNK N   1      32.561  17.193   7.588  0.00  0.00    -0.004 A 
HETATM   14  C   UNK N   1      33.484  18.239   7.695  0.00  0.00     0.050 A 
HETATM   15  C   UNK N   1      34.576  18.144   8.561  0.00  0.00     0.066 A 
HETATM   16  C   UNK N   1      34.759  16.994   9.331  0.00  0.00     0.036 A 
HETATM   17  C   UNK N   1      33.843  15.942   9.236  0.00  0.00     0.004 A 
HETATM   18  C   UNK N   1      32.753  16.040   8.365  0.00  0.00     0.014 A 
BRANCH  15  19
HETATM   19  O   UNK N   1      35.456  19.155   8.643  0.00  0.00    -0.361 OA
HETATM   20  H   UNK N   1      36.353  18.981   8.852  0.00  0.00     0.217 HD
ENDBRANCH  15  19
ENDBRANCH  12  13
BRANCH   1  21
HETATM   21  C   UNK N   1      27.915  17.747   6.007  0.00  0.00     0.102 C 
HETATM   22  C   UNK N   1      27.613  19.061   6.703  0.00  0.00     0.034 C 
HETATM   23  C   UNK N   1      27.157  16.632   6.710  0.00  0.00     0.034 C 
ENDBRANCH   1  21
BRANCH  10  24
HETATM   24  N   UNK N   1      33.655  16.315   4.526  0.00  0.00    -0.385 N 
HETATM   25  H   UNK N   1      34.049  16.621   5.376  0.00  0.00     0.157 HD
HETATM   26  H   UNK N   1      34.226  15.885   3.850  0.00  0.00     0.157 HD
ENDBRANCH  10  24
TORSDOF 4
ENDMDL
MODEL 5
REMARK VINA RESULT:      -6.1      8.650     11.033
REMARK  4 active torsions:
REMARK  status: ('A' for Active; 'I' for Inactive)
REMARK    1  A    between atoms: C_2  and  N_4 
REMARK    2  A    between atoms: C_13  and  N_14 
REMARK    3  A    between atoms: C_16  and  C_17 
REMARK    4  A    between atoms: C_22  and  O_23 
ROOT
HETATM    1  N   UNK N   1      21.766  16.577   6.014  0.00  0.00    -0.271 N 
HETATM    2  N   UNK N   1      20.937  17.393   6.655  0.00  0.00    -0.295 N 
ATOM      3  HN  UNK N   1      20.719  18.352   6.384  1.00  0.00     0.187 HD
HETATM    4  C   UNK N   1      21.801  15.405   6.666  0.00  0.00     0.140 A 
HETATM    5  N   UNK N   1      22.515  14.309   6.318  0.00  0.00    -0.337 N 
ATOM      6  HN  UNK N   1      23.105  14.312   5.487  1.00  0.00     0.168 HD
HETATM    7  C   UNK N   1      22.426  13.201   7.107  0.00  0.00     0.183 A 
HETATM    8  N   UNK N   1      21.633  13.208   8.222  0.00  0.00    -0.338 N 
ATOM      9  HN  UNK N   1      21.585  12.371   8.804  1.00  0.00     0.168 HD
HETATM   10  C   UNK N   1      20.906  14.308   8.575  0.00  0.00     0.116 A 
HETATM   11  C   UNK N   1      20.990  15.450   7.762  0.00  0.00     0.082 A 
HETATM   12  C   UNK N   1      20.431  16.737   7.735  0.00  0.00     0.076 A 
ENDROOT
BRANCH  12  13
HETATM   13  C   UNK N   1      19.418  17.365   8.621  0.00  0.00    -0.004 A 
HETATM   14  C   UNK N   1      19.749  18.395   9.509  0.00  0.00     0.050 A 
HETATM   15  C   UNK N   1      18.792  18.925  10.378  0.00  0.00     0.066 A 
HETATM   16  C   UNK N   1      17.488  18.428  10.370  0.00  0.00     0.036 A 
HETATM   17  C   UNK N   1      17.143  17.401   9.487  0.00  0.00     0.004 A 
HETATM   18  C   UNK N   1      18.104  16.869   8.621  0.00  0.00     0.014 A 
BRANCH  15  19
HETATM   19  O   UNK N   1      19.132  19.908  11.229  0.00  0.00    -0.361 OA
HETATM   20  H   UNK N   1      20.026  20.180  11.296  0.00  0.00     0.217 HD
ENDBRANCH  15  19
ENDBRANCH  12  13
BRANCH   1  21
HETATM   21  C   UNK N   1      22.483  16.906   4.777  0.00  0.00     0.102 C 
HETATM   22  C   UNK N   1      23.023  18.323   4.823  0.00  0.00     0.034 C 
HETATM   23  C   UNK N   1      21.595  16.756   3.553  0.00  0.00     0.034 C 
ENDBRANCH   1  21
BRANCH  10  24
HETATM   24  N   UNK N   1      20.116  14.266   9.739  0.00  0.00    -0.385 N 
HETATM   25  H   UNK N   1      20.325  14.847  10.505  0.00  0.00     0.157 HD
HETATM   26  H   UNK N   1      19.349  13.651   9.786  0.00  0.00     0.157 HD
ENDBRANCH  10  24
TORSDOF 4
ENDMDL
MODEL 6
REMARK VINA RESULT:      -6.1      6.105      8.631
REMARK  4 active torsions:
REMARK  status: ('A' for Active; 'I' for Inactive)
REMARK    1  A    between atoms: C_2  and  N_4 
REMARK    2  A    between atoms: C_13  and  N_14 
REMARK    3  A    between atoms: C_16  and  C_17 
REMARK    4  A    between atoms: C_22  and  O_23 
ROOT
HETATM    1  N   UNK N   1      34.417  12.345  10.434  0.00  0.00    -0.271 N 
HETATM    2  N   UNK N   1      33.786  13.013   9.474  0.00  0.00    -0.295 N 
ATOM      3  HN  UNK N   1      33.229  12.597   8.727  1.00  0.00     0.187 HD
HETATM    4  C   UNK N   1      35.042  13.227  11.228  0.00  0.00     0.140 A 
HETATM    5  N   UNK N   1      35.780  12.942  12.326  0.00  0.00    -0.337 N 
ATOM      6  HN  UNK N   1      35.911  11.978  12.632  1.00  0.00     0.168 HD
HETATM    7  C   UNK N   1      36.345  13.975  13.013  0.00  0.00     0.183 A 
HETATM    8  N   UNK N   1      36.166  15.265  12.592  0.00  0.00    -0.338 N 
ATOM      9  HN  UNK N   1      36.603  16.024  13.115  1.00  0.00     0.168 HD
HETATM   10  C   UNK N   1      35.419  15.560  11.488  0.00  0.00     0.116 A 
HETATM   11  C   UNK N   1      34.830  14.499  10.780  0.00  0.00     0.082 A 
HETATM   12  C   UNK N   1      34.007  14.344   9.654  0.00  0.00     0.076 A 
ENDROOT
BRANCH  12  13
HETATM   13  C   UNK N   1      33.377  15.363   8.776  0.00  0.00    -0.004 A 
HETATM   14  C   UNK N   1      34.119  16.096   7.844  0.00  0.00     0.050 A 
HETATM   15  C   UNK N   1      33.516  17.094   7.075  0.00  0.00     0.066 A 
HETATM   16  C   UNK N   1      32.158  17.371   7.232  0.00  0.00     0.036 A 
HETATM   17  C   UNK N   1      31.403  16.646   8.157  0.00  0.00     0.004 A 
HETATM   18  C   UNK N   1      32.011  15.650   8.929  0.00  0.00     0.014 A 
BRANCH  15  19
HETATM   19  O   UNK N   1      34.248  17.793   6.191  0.00  0.00    -0.361 OA
HETATM   20  H   UNK N   1      34.690  18.573   6.462  0.00  0.00     0.217 HD
ENDBRANCH  15  19
ENDBRANCH  12  13
BRANCH   1  21
HETATM   21  C   UNK N   1      34.390  10.888  10.604  0.00  0.00     0.102 C 
HETATM   22  C   UNK N   1      35.524  10.231   9.840  0.00  0.00     0.034 C 
HETATM   23  C   UNK N   1      33.071  10.291  10.138  0.00  0.00     0.034 C 
ENDBRANCH   1  21
BRANCH  10  24
HETATM   24  N   UNK N   1      35.277  16.902  11.092  0.00  0.00    -0.385 N 
HETATM   25  H   UNK N   1      35.831  17.605  11.502  0.00  0.00     0.157 HD
HETATM   26  H   UNK N   1      34.620  17.139  10.399  0.00  0.00     0.157 HD
ENDBRANCH  10  24
TORSDOF 4
ENDMDL
MODEL 7
REMARK VINA RESULT:      -6.0      4.391      6.039
REMARK  4 active torsions:
REMARK  status: ('A' for Active; 'I' for Inactive)
REMARK    1  A    between atoms: C_2  and  N_4 
REMARK    2  A    between atoms: C_13  and  N_14 
REMARK    3  A    between atoms: C_16  and  C_17 
REMARK    4  A    between atoms: C_22  and  O_23 
ROOT
HETATM    1  N   UNK N   1      30.926  17.422   8.118  0.00  0.00    -0.271 N 
HETATM    2  N   UNK N   1      31.710  16.900   9.055  0.00  0.00    -0.295 N 
ATOM      3  HN  UNK N   1      31.541  16.937  10.060  1.00  0.00     0.187 HD
HETATM    4  C   UNK N   1      31.473  17.176   6.918  0.00  0.00     0.140 A 
HETATM    5  N   UNK N   1      30.969  17.534   5.713  0.00  0.00    -0.337 N 
ATOM      6  HN  UNK N   1      30.088  18.041   5.645  1.00  0.00     0.168 HD
HETATM    7  C   UNK N   1      31.669  17.196   4.593  0.00  0.00     0.183 A 
HETATM    8  N   UNK N   1      32.853  16.517   4.695  0.00  0.00    -0.338 N 
ATOM      9  HN  UNK N   1      33.365  16.279   3.846  1.00  0.00     0.168 HD
HETATM   10  C   UNK N   1      33.363  16.149   5.907  0.00  0.00     0.116 A 
HETATM   11  C   UNK N   1      32.643  16.489   7.063  0.00  0.00     0.082 A 
HETATM   12  C   UNK N   1      32.775  16.308   8.449  0.00  0.00     0.076 A 
ENDROOT
BRANCH  12  13
HETATM   13  C   UNK N   1      33.804  15.573   9.229  0.00  0.00    -0.004 A 
HETATM   14  C   UNK N   1      34.940  16.211   9.739  0.00  0.00     0.050 A 
HETATM   15  C   UNK N   1      35.925  15.486  10.414  0.00  0.00     0.066 A 
HETATM   16  C   UNK N   1      35.784  14.108  10.586  0.00  0.00     0.036 A 
HETATM   17  C   UNK N   1      34.654  13.458  10.084  0.00  0.00     0.004 A 
HETATM   18  C   UNK N   1      33.671  14.186   9.405  0.00  0.00     0.014 A 
BRANCH  15  19
HETATM   19  O   UNK N   1      37.013  16.116  10.888  0.00  0.00    -0.361 OA
HETATM   20  H   UNK N   1      37.593  15.671  11.474  0.00  0.00     0.217 HD
ENDBRANCH  15  19
ENDBRANCH  12  13
BRANCH   1  21
HETATM   21  C   UNK N   1      29.658  18.114   8.370  0.00  0.00     0.102 C 
HETATM   22  C   UNK N   1      29.626  18.699   9.770  0.00  0.00     0.034 C 
HETATM   23  C   UNK N   1      28.465  17.187   8.196  0.00  0.00     0.034 C 
ENDBRANCH   1  21
BRANCH  10  24
HETATM   24  N   UNK N   1      34.590  15.462   5.956  0.00  0.00    -0.385 N 
HETATM   25  H   UNK N   1      35.237  15.541   5.218  0.00  0.00     0.157 HD
HETATM   26  H   UNK N   1      34.803  14.899   6.734  0.00  0.00     0.157 HD
ENDBRANCH  10  24
TORSDOF 4
ENDMDL
MODEL 8
REMARK VINA RESULT:      -5.9      2.553      4.388
REMARK  4 active torsions:
REMARK  status: ('A' for Active; 'I' for Inactive)
REMARK    1  A    between atoms: C_2  and  N_4 
REMARK    2  A    between atoms: C_13  and  N_14 
REMARK    3  A    between atoms: C_16  and  C_17 
REMARK    4  A    between atoms: C_22  and  O_23 
ROOT
HETATM    1  N   UNK N   1      31.941  17.048   7.802  0.00  0.00    -0.271 N 
HETATM    2  N   UNK N   1      31.668  16.510   6.618  0.00  0.00    -0.295 N 
ATOM      3  HN  UNK N   1      32.342  16.060   5.999  1.00  0.00     0.187 HD
HETATM    4  C   UNK N   1      30.807  17.545   8.318  0.00  0.00     0.140 A 
HETATM    5  N   UNK N   1      30.666  18.159   9.515  0.00  0.00    -0.337 N 
ATOM      6  HN  UNK N   1      31.466  18.287  10.134  1.00  0.00     0.168 HD
HETATM    7  C   UNK N   1      29.428  18.602   9.875  0.00  0.00     0.183 A 
HETATM    8  N   UNK N   1      28.361  18.428   9.036  0.00  0.00    -0.338 N 
ATOM      9  HN  UNK N   1      27.444  18.773   9.319  1.00  0.00     0.168 HD
HETATM   10  C   UNK N   1      28.495  17.805   7.829  0.00  0.00     0.116 A 
HETATM   11  C   UNK N   1      29.768  17.341   7.457  0.00  0.00     0.082 A 
HETATM   12  C   UNK N   1      30.338  16.662   6.369  0.00  0.00     0.076 A 
ENDROOT
BRANCH  12  13
HETATM   13  C   UNK N   1      29.707  16.103   5.146  0.00  0.00    -0.004 A 
HETATM   14  C   UNK N   1      28.988  14.903   5.169  0.00  0.00     0.050 A 
HETATM   15  C   UNK N   1      28.458  14.364   3.994  0.00  0.00     0.066 A 
HETATM   16  C   UNK N   1      28.645  15.023   2.777  0.00  0.00     0.036 A 
HETATM   17  C   UNK N   1      29.358  16.224   2.740  0.00  0.00     0.004 A 
HETATM   18  C   UNK N   1      29.892  16.758   3.918  0.00  0.00     0.014 A 
BRANCH  15  19
HETATM   19  O   UNK N   1      27.778  13.206   4.034  0.00  0.00    -0.361 OA
HETATM   20  H   UNK N   1      27.959  12.535   3.407  0.00  0.00     0.217 HD
ENDBRANCH  15  19
ENDBRANCH  12  13
BRANCH   1  21
HETATM   21  C   UNK N   1      33.262  17.053   8.440  0.00  0.00     0.102 C 
HETATM   22  C   UNK N   1      34.060  18.276   8.028  0.00  0.00     0.034 C 
HETATM   23  C   UNK N   1      34.060  15.806   8.095  0.00  0.00     0.034 C 
ENDBRANCH   1  21
BRANCH  10  24
HETATM   24  N   UNK N   1      27.368  17.663   6.999  0.00  0.00    -0.385 N 
HETATM   25  H   UNK N   1      27.463  17.318   6.082  0.00  0.00     0.157 HD
HETATM   26  H   UNK N   1      26.478  17.910   7.339  0.00  0.00     0.157 HD
ENDBRANCH  10  24
TORSDOF 4
ENDMDL
MODEL 9
REMARK VINA RESULT:      -5.9      2.642      3.713
REMARK  4 active torsions:
REMARK  status: ('A' for Active; 'I' for Inactive)
REMARK    1  A    between atoms: C_2  and  N_4 
REMARK    2  A    between atoms: C_13  and  N_14 
REMARK    3  A    between atoms: C_16  and  C_17 
REMARK    4  A    between atoms: C_22  and  O_23 
ROOT
HETATM    1  N   UNK N   1      27.443  18.664   4.267  0.00  0.00    -0.271 N 
HETATM    2  N   UNK N   1      28.677  18.791   4.743  0.00  0.00    -0.295 N 
ATOM      3  HN  UNK N   1      29.045  19.606   5.232  1.00  0.00     0.187 HD
HETATM    4  C   UNK N   1      27.331  17.460   3.687  0.00  0.00     0.140 A 
HETATM    5  N   UNK N   1      26.224  16.949   3.098  0.00  0.00    -0.337 N 
ATOM      6  HN  UNK N   1      25.358  17.484   3.060  1.00  0.00     0.168 HD
HETATM    7  C   UNK N   1      26.297  15.699   2.558  0.00  0.00     0.183 A 
HETATM    8  N   UNK N   1      27.466  14.989   2.611  0.00  0.00    -0.338 N 
ATOM      9  HN  UNK N   1      27.503  14.059   2.195  1.00  0.00     0.168 HD
HETATM   10  C   UNK N   1      28.584  15.497   3.209  0.00  0.00     0.116 A 
HETATM   11  C   UNK N   1      28.512  16.782   3.772  0.00  0.00     0.082 A 
HETATM   12  C   UNK N   1      29.368  17.651   4.467  0.00  0.00     0.076 A 
ENDROOT
BRANCH  12  13
HETATM   13  C   UNK N   1      30.765  17.456   4.932  0.00  0.00    -0.004 A 
HETATM   14  C   UNK N   1      31.063  17.116   6.256  0.00  0.00     0.050 A 
HETATM   15  C   UNK N   1      32.387  17.001   6.685  0.00  0.00     0.066 A 
HETATM   16  C   UNK N   1      33.433  17.228   5.789  0.00  0.00     0.036 A 
HETATM   17  C   UNK N   1      33.151  17.565   4.463  0.00  0.00     0.004 A 
HETATM   18  C   UNK N   1      31.824  17.684   4.038  0.00  0.00     0.014 A 
BRANCH  15  19
HETATM   19  O   UNK N   1      32.652  16.683   7.963  0.00  0.00    -0.361 OA
HETATM   20  H   UNK N   1      32.340  15.874   8.318  0.00  0.00     0.217 HD
ENDBRANCH  15  19
ENDBRANCH  12  13
BRANCH   1  21
HETATM   21  C   UNK N   1      26.383  19.670   4.397  0.00  0.00     0.102 C 
HETATM   22  C   UNK N   1      26.277  20.515   3.142  0.00  0.00     0.034 C 
HETATM   23  C   UNK N   1      26.617  20.585   5.589  0.00  0.00     0.034 C 
ENDBRANCH   1  21
BRANCH  10  24
HETATM   24  N   UNK N   1      29.763  14.731   3.226  0.00  0.00    -0.385 N 
HETATM   25  H   UNK N   1      30.151  14.393   2.386  0.00  0.00     0.157 HD
HETATM   26  H   UNK N   1      30.203  14.532   4.083  0.00  0.00     0.157 HD
ENDBRANCH  10  24
TORSDOF 4
ENDMDL
