MODEL 1
REMARK VINA RESULT:      -8.4      0.000      0.000
REMARK  4 active torsions:
REMARK  status: ('A' for Active; 'I' for Inactive)
REMARK    1  A    between atoms: O_2  and  C_3 
REMARK    2  A    between atoms: C_5  and  O_6 
REMARK    3  A    between atoms: C_9  and  C_10 
REMARK    4  A    between atoms: C_19  and  C_20 
ROOT
HETATM    1  C   UNK N   1      21.390  17.067   4.568  0.00  0.00    -0.024 A 
HETATM    2  C   UNK N   1      21.370  15.771   3.977  0.00  0.00     0.044 A 
HETATM    3  C   UNK N   1      21.545  17.195   5.969  0.00  0.00     0.013 A 
HETATM    4  C   UNK N   1      21.698  16.075   6.780  0.00  0.00     0.017 A 
HETATM    5  C   UNK N   1      21.691  14.834   6.166  0.00  0.00     0.024 A 
HETATM    6  C   UNK N   1      21.528  14.674   4.829  0.00  0.00     0.061 A 
HETATM    7  N   UNK N   1      21.628  13.364   4.520  0.00  0.00    -0.299 N 
HETATM    8  N   UNK N   1      21.880  12.697   5.649  0.00  0.00    -0.296 N 
ATOM      9  HN  UNK N   1      22.021  11.690   5.731  1.00  0.00     0.187 HD
HETATM   10  C   UNK N   1      21.916  13.588   6.670  0.00  0.00     0.104 A 
HETATM   11  H   UNK N   1      21.533  12.971   3.623  0.00  0.00     0.187 HD
ENDROOT
BRANCH  10  12
HETATM   12  C   UNK N   1      22.289  13.337   8.065  0.00  0.00     0.136 A 
HETATM   13  N   UNK N   1      21.413  13.029   9.058  0.00  0.00    -0.339 N 
HETATM   14  C   UNK N   1      22.213  12.665  10.077  0.00  0.00     0.060 A 
HETATM   15  H   UNK N   1      20.429  13.065   9.037  0.00  0.00     0.167 HD
HETATM   16  C   UNK N   1      21.851  12.183  11.331  0.00  0.00     0.032 A 
HETATM   17  C   UNK N   1      23.515  12.772   9.701  0.00  0.00     0.060 A 
HETATM   18  C   UNK N   1      22.892  11.814  12.209  0.00  0.00     0.002 A 
HETATM   19  C   UNK N   1      24.247  11.939  11.814  0.00  0.00     0.002 A 
HETATM   20  C   UNK N   1      24.570  12.426  10.536  0.00  0.00     0.032 A 
HETATM   21  N   UNK N   1      23.585  13.188   8.439  0.00  0.00    -0.339 N 
ATOM     22  HN  UNK N   1      24.422  13.356   7.880  1.00  0.00     0.167 HD
ENDBRANCH  10  12
BRANCH   1  23
HETATM   23  C   UNK N   1      21.300  18.301   3.759  0.00  0.00    -0.023 A 
HETATM   24  C   UNK N   1      22.391  19.167   3.627  0.00  0.00     0.052 A 
HETATM   25  C   UNK N   1      22.291  20.339   2.864  0.00  0.00     0.102 A 
HETATM   26  C   UNK N   1      21.057  20.646   2.229  0.00  0.00     0.099 A 
HETATM   27  C   UNK N   1      19.971  19.785   2.370  0.00  0.00     0.040 A 
HETATM   28  C   UNK N   1      20.090  18.624   3.125  0.00  0.00     0.015 A 
BRANCH  25  29
HETATM   29  O   UNK N   1      23.395  21.125   2.770  0.00  0.00    -0.353 OA
HETATM   30  C   UNK N   1      24.695  20.673   2.779  0.00  0.00     0.210 C 
ENDBRANCH  25  29
BRANCH  26  31
HETATM   31  O   UNK N   1      20.902  21.756   1.489  0.00  0.00    -0.358 OA
HETATM   32  H   UNK N   1      20.043  22.059   1.268  0.00  0.00     0.217 HD
ENDBRANCH  26  31
ENDBRANCH   1  23
TORSDOF 4
ENDMDL
MODEL 2
REMARK VINA RESULT:      -8.3     13.187     14.958
REMARK  4 active torsions:
REMARK  status: ('A' for Active; 'I' for Inactive)
REMARK    1  A    between atoms: O_2  and  C_3 
REMARK    2  A    between atoms: C_5  and  O_6 
REMARK    3  A    between atoms: C_9  and  C_10 
REMARK    4  A    between atoms: C_19  and  C_20 
ROOT
HETATM    1  C   UNK N   1      35.409  14.734  10.083  0.00  0.00    -0.024 A 
HETATM    2  C   UNK N   1      36.664  14.065  10.148  0.00  0.00     0.044 A 
HETATM    3  C   UNK N   1      34.514  14.651  11.177  0.00  0.00     0.013 A 
HETATM    4  C   UNK N   1      34.848  13.940  12.326  0.00  0.00     0.017 A 
HETATM    5  C   UNK N   1      36.085  13.318  12.357  0.00  0.00     0.024 A 
HETATM    6  C   UNK N   1      36.959  13.364  11.321  0.00  0.00     0.061 A 
HETATM    7  N   UNK N   1      38.095  12.723  11.667  0.00  0.00    -0.299 N 
HETATM    8  N   UNK N   1      37.956  12.296  12.924  0.00  0.00    -0.296 N 
ATOM      9  HN  UNK N   1      38.658  11.789  13.465  1.00  0.00     0.187 HD
HETATM   10  C   UNK N   1      36.722  12.650  13.359  0.00  0.00     0.104 A 
HETATM   11  H   UNK N   1      38.886  12.595  11.094  0.00  0.00     0.187 HD
ENDROOT
BRANCH  10  12
HETATM   12  C   UNK N   1      36.175  12.511  14.712  0.00  0.00     0.136 A 
HETATM   13  N   UNK N   1      36.107  11.343  15.403  0.00  0.00    -0.339 N 
HETATM   14  C   UNK N   1      35.764  11.736  16.644  0.00  0.00     0.060 A 
HETATM   15  H   UNK N   1      36.270  10.429  15.076  0.00  0.00     0.167 HD
HETATM   16  C   UNK N   1      35.619  10.958  17.789  0.00  0.00     0.032 A 
HETATM   17  C   UNK N   1      35.618  13.087  16.676  0.00  0.00     0.060 A 
HETATM   18  C   UNK N   1      35.305  11.626  18.991  0.00  0.00     0.002 A 
HETATM   19  C   UNK N   1      35.143  13.033  19.013  0.00  0.00     0.002 A 
HETATM   20  C   UNK N   1      35.303  13.784  17.835  0.00  0.00     0.032 A 
HETATM   21  N   UNK N   1      35.878  13.594  15.473  0.00  0.00    -0.339 N 
ATOM     22  HN  UNK N   1      35.856  14.574  15.188  1.00  0.00     0.167 HD
ENDBRANCH  10  12
BRANCH   1  23
HETATM   23  C   UNK N   1      35.017  15.561   8.922  0.00  0.00    -0.023 A 
HETATM   24  C   UNK N   1      35.037  15.047   7.621  0.00  0.00     0.052 A 
HETATM   25  C   UNK N   1      34.671  15.844   6.527  0.00  0.00     0.102 A 
HETATM   26  C   UNK N   1      34.287  17.193   6.754  0.00  0.00     0.099 A 
HETATM   27  C   UNK N   1      34.277  17.703   8.051  0.00  0.00     0.040 A 
HETATM   28  C   UNK N   1      34.636  16.896   9.124  0.00  0.00     0.015 A 
BRANCH  25  29
HETATM   29  O   UNK N   1      34.701  15.273   5.294  0.00  0.00    -0.353 OA
HETATM   30  C   UNK N   1      33.813  14.329   4.834  0.00  0.00     0.210 C 
ENDBRANCH  25  29
BRANCH  26  31
HETATM   31  O   UNK N   1      33.930  18.004   5.745  0.00  0.00    -0.358 OA
HETATM   32  H   UNK N   1      33.617  17.643   4.939  0.00  0.00     0.217 HD
ENDBRANCH  26  31
ENDBRANCH   1  23
TORSDOF 4
ENDMDL
MODEL 3
REMARK VINA RESULT:      -8.2     11.540     13.223
REMARK  4 active torsions:
REMARK  status: ('A' for Active; 'I' for Inactive)
REMARK    1  A    between atoms: O_2  and  C_3 
REMARK    2  A    between atoms: C_5  and  O_6 
REMARK    3  A    between atoms: C_9  and  C_10 
REMARK    4  A    between atoms: C_19  and  C_20 
ROOT
HETATM    1  C   UNK N   1      34.151  16.013   7.060  0.00  0.00    -0.024 A 
HETATM    2  C   UNK N   1      34.341  17.038   8.029  0.00  0.00     0.044 A 
HETATM    3  C   UNK N   1      34.468  14.673   7.387  0.00  0.00     0.013 A 
HETATM    4  C   UNK N   1      34.946  14.335   8.649  0.00  0.00     0.017 A 
HETATM    5  C   UNK N   1      35.101  15.359   9.570  0.00  0.00     0.024 A 
HETATM    6  C   UNK N   1      34.822  16.655   9.284  0.00  0.00     0.061 A 
HETATM    7  N   UNK N   1      35.009  17.406  10.390  0.00  0.00    -0.299 N 
HETATM    8  N   UNK N   1      35.378  16.589  11.380  0.00  0.00    -0.296 N 
ATOM      9  HN  UNK N   1      35.577  16.866  12.342  1.00  0.00     0.187 HD
HETATM   10  C   UNK N   1      35.444  15.328  10.888  0.00  0.00     0.104 A 
HETATM   11  H   UNK N   1      34.893  18.381  10.455  0.00  0.00     0.187 HD
ENDROOT
BRANCH  10  12
HETATM   12  C   UNK N   1      35.677  14.087  11.633  0.00  0.00     0.136 A 
HETATM   13  N   UNK N   1      36.837  13.769  12.265  0.00  0.00    -0.339 N 
HETATM   14  C   UNK N   1      36.511  12.681  12.986  0.00  0.00     0.060 A 
HETATM   15  H   UNK N   1      37.708  14.225  12.208  0.00  0.00     0.167 HD
HETATM   16  C   UNK N   1      37.300  11.969  13.883  0.00  0.00     0.032 A 
HETATM   17  C   UNK N   1      35.207  12.360  12.772  0.00  0.00     0.060 A 
HETATM   18  C   UNK N   1      36.698  10.889  14.562  0.00  0.00     0.002 A 
HETATM   19  C   UNK N   1      35.342  10.553  14.324  0.00  0.00     0.002 A 
HETATM   20  C   UNK N   1      34.577  11.302  13.413  0.00  0.00     0.032 A 
HETATM   21  N   UNK N   1      34.663  13.235  11.929  0.00  0.00    -0.339 N 
ATOM     22  HN  UNK N   1      33.703  13.258  11.583  1.00  0.00     0.167 HD
ENDBRANCH  10  12
BRANCH   1  23
HETATM   23  C   UNK N   1      33.584  16.290   5.722  0.00  0.00    -0.023 A 
HETATM   24  C   UNK N   1      33.892  15.486   4.619  0.00  0.00     0.052 A 
HETATM   25  C   UNK N   1      33.355  15.763   3.354  0.00  0.00     0.102 A 
HETATM   26  C   UNK N   1      32.496  16.884   3.201  0.00  0.00     0.099 A 
HETATM   27  C   UNK N   1      32.197  17.686   4.301  0.00  0.00     0.040 A 
HETATM   28  C   UNK N   1      32.734  17.392   5.549  0.00  0.00     0.015 A 
BRANCH  25  29
HETATM   29  O   UNK N   1      33.688  14.932   2.333  0.00  0.00    -0.353 OA
HETATM   30  C   UNK N   1      33.325  13.608   2.235  0.00  0.00     0.210 C 
ENDBRANCH  25  29
BRANCH  26  31
HETATM   31  O   UNK N   1      31.954  17.200   2.013  0.00  0.00    -0.358 OA
HETATM   32  H   UNK N   1      32.195  16.723   1.243  0.00  0.00     0.217 HD
ENDBRANCH  26  31
ENDBRANCH   1  23
TORSDOF 4
ENDMDL
MODEL 4
REMARK VINA RESULT:      -8.1     13.765     18.587
REMARK  4 active torsions:
REMARK  status: ('A' for Active; 'I' for Inactive)
REMARK    1  A    between atoms: O_2  and  C_3 
REMARK    2  A    between atoms: C_5  and  O_6 
REMARK    3  A    between atoms: C_9  and  C_10 
REMARK    4  A    between atoms: C_19  and  C_20 
ROOT
HETATM    1  C   UNK N   1      35.555  11.667  16.638  0.00  0.00    -0.024 A 
HETATM    2  C   UNK N   1      36.692  11.308  15.859  0.00  0.00     0.044 A 
HETATM    3  C   UNK N   1      34.698  12.701  16.192  0.00  0.00     0.013 A 
HETATM    4  C   UNK N   1      34.936  13.364  14.992  0.00  0.00     0.017 A 
HETATM    5  C   UNK N   1      36.041  12.974  14.254  0.00  0.00     0.024 A 
HETATM    6  C   UNK N   1      36.892  11.999  14.660  0.00  0.00     0.061 A 
HETATM    7  N   UNK N   1      37.830  11.801  13.710  0.00  0.00    -0.299 N 
HETATM    8  N   UNK N   1      37.562  12.626  12.694  0.00  0.00    -0.296 N 
ATOM      9  HN  UNK N   1      38.091  12.694  11.824  1.00  0.00     0.187 HD
HETATM   10  C   UNK N   1      36.468  13.357  13.018  0.00  0.00     0.104 A 
HETATM   11  H   UNK N   1      38.577  11.161  13.757  0.00  0.00     0.187 HD
ENDROOT
BRANCH  10  12
HETATM   12  C   UNK N   1      35.731  14.293  12.164  0.00  0.00     0.136 A 
HETATM   13  N   UNK N   1      36.183  15.518  11.788  0.00  0.00    -0.339 N 
HETATM   14  C   UNK N   1      35.300  15.899  10.846  0.00  0.00     0.060 A 
HETATM   15  H   UNK N   1      36.966  16.010  12.125  0.00  0.00     0.167 HD
HETATM   16  C   UNK N   1      35.313  17.050  10.063  0.00  0.00     0.032 A 
HETATM   17  C   UNK N   1      34.353  14.937  10.685  0.00  0.00     0.060 A 
HETATM   18  C   UNK N   1      34.295  17.187   9.096  0.00  0.00     0.002 A 
HETATM   19  C   UNK N   1      33.304  16.186   8.944  0.00  0.00     0.002 A 
HETATM   20  C   UNK N   1      33.331  15.035   9.751  0.00  0.00     0.032 A 
HETATM   21  N   UNK N   1      34.609  13.916  11.500  0.00  0.00    -0.339 N 
ATOM     22  HN  UNK N   1      34.080  13.050  11.604  1.00  0.00     0.167 HD
ENDBRANCH  10  12
BRANCH   1  23
HETATM   23  C   UNK N   1      35.205  10.960  17.889  0.00  0.00    -0.023 A 
HETATM   24  C   UNK N   1      34.662   9.670  17.870  0.00  0.00     0.052 A 
HETATM   25  C   UNK N   1      34.326   9.013  19.062  0.00  0.00     0.102 A 
HETATM   26  C   UNK N   1      34.535   9.680  20.299  0.00  0.00     0.099 A 
HETATM   27  C   UNK N   1      35.068  10.967  20.313  0.00  0.00     0.040 A 
HETATM   28  C   UNK N   1      35.402  11.600  19.121  0.00  0.00     0.015 A 
BRANCH  25  29
HETATM   29  O   UNK N   1      33.816   7.758  18.967  0.00  0.00    -0.353 OA
HETATM   30  C   UNK N   1      34.559   6.605  18.854  0.00  0.00     0.210 C 
ENDBRANCH  25  29
BRANCH  26  31
HETATM   31  O   UNK N   1      34.229   9.101  21.473  0.00  0.00    -0.358 OA
HETATM   32  H   UNK N   1      33.490   8.529  21.537  0.00  0.00     0.217 HD
ENDBRANCH  26  31
ENDBRANCH   1  23
TORSDOF 4
ENDMDL
MODEL 5
REMARK VINA RESULT:      -8.0     11.715     14.151
REMARK  4 active torsions:
REMARK  status: ('A' for Active; 'I' for Inactive)
REMARK    1  A    between atoms: O_2  and  C_3 
REMARK    2  A    between atoms: C_5  and  O_6 
REMARK    3  A    between atoms: C_9  and  C_10 
REMARK    4  A    between atoms: C_19  and  C_20 
ROOT
HETATM    1  C   UNK N   1      34.710  15.143   9.176  0.00  0.00    -0.024 A 
HETATM    2  C   UNK N   1      35.974  14.511   9.001  0.00  0.00     0.044 A 
HETATM    3  C   UNK N   1      34.110  15.167  10.458  0.00  0.00     0.013 A 
HETATM    4  C   UNK N   1      34.744  14.598  11.558  0.00  0.00     0.017 A 
HETATM    5  C   UNK N   1      35.980  14.009  11.351  0.00  0.00     0.024 A 
HETATM    6  C   UNK N   1      36.576  13.954  10.134  0.00  0.00     0.061 A 
HETATM    7  N   UNK N   1      37.790  13.380  10.256  0.00  0.00    -0.299 N 
HETATM    8  N   UNK N   1      37.979  13.095  11.547  0.00  0.00    -0.296 N 
ATOM      9  HN  UNK N   1      38.813  12.667  11.951  1.00  0.00     0.187 HD
HETATM   10  C   UNK N   1      36.871  13.472  12.231  0.00  0.00     0.104 A 
HETATM   11  H   UNK N   1      38.425  13.203   9.525  0.00  0.00     0.187 HD
ENDROOT
BRANCH  10  12
HETATM   12  C   UNK N   1      36.673  13.477  13.683  0.00  0.00     0.136 A 
HETATM   13  N   UNK N   1      37.049  14.485  14.513  0.00  0.00    -0.339 N 
HETATM   14  C   UNK N   1      36.467  14.160  15.682  0.00  0.00     0.060 A 
HETATM   15  H   UNK N   1      37.612  15.267  14.308  0.00  0.00     0.167 HD
HETATM   16  C   UNK N   1      36.458  14.879  16.873  0.00  0.00     0.032 A 
HETATM   17  C   UNK N   1      35.787  12.990  15.549  0.00  0.00     0.060 A 
HETATM   18  C   UNK N   1      35.719  14.342  17.949  0.00  0.00     0.002 A 
HETATM   19  C   UNK N   1      35.023  13.117  17.805  0.00  0.00     0.002 A 
HETATM   20  C   UNK N   1      35.052  12.424  16.582  0.00  0.00     0.032 A 
HETATM   21  N   UNK N   1      35.899  12.547  14.299  0.00  0.00    -0.339 N 
ATOM     22  HN  UNK N   1      35.495  11.701  13.896  1.00  0.00     0.167 HD
ENDBRANCH  10  12
BRANCH   1  23
HETATM   23  C   UNK N   1      34.012  15.825   8.065  0.00  0.00    -0.023 A 
HETATM   24  C   UNK N   1      32.729  16.360   8.229  0.00  0.00     0.052 A 
HETATM   25  C   UNK N   1      32.073  16.997   7.166  0.00  0.00     0.102 A 
HETATM   26  C   UNK N   1      32.727  17.086   5.908  0.00  0.00     0.099 A 
HETATM   27  C   UNK N   1      34.001  16.547   5.747  0.00  0.00     0.040 A 
HETATM   28  C   UNK N   1      34.638  15.924   6.814  0.00  0.00     0.015 A 
BRANCH  25  29
HETATM   29  O   UNK N   1      30.835  17.503   7.403  0.00  0.00    -0.353 OA
HETATM   30  C   UNK N   1      30.372  17.930   8.626  0.00  0.00     0.210 C 
ENDBRANCH  25  29
BRANCH  26  31
HETATM   31  O   UNK N   1      32.147  17.683   4.853  0.00  0.00    -0.358 OA
HETATM   32  H   UNK N   1      31.574  18.414   4.981  0.00  0.00     0.217 HD
ENDBRANCH  26  31
ENDBRANCH   1  23
TORSDOF 4
ENDMDL
MODEL 6
REMARK VINA RESULT:      -8.0     11.720     13.737
REMARK  4 active torsions:
REMARK  status: ('A' for Active; 'I' for Inactive)
REMARK    1  A    between atoms: O_2  and  C_3 
REMARK    2  A    between atoms: C_5  and  O_6 
REMARK    3  A    between atoms: C_9  and  C_10 
REMARK    4  A    between atoms: C_19  and  C_20 
ROOT
HETATM    1  C   UNK N   1      34.991  14.968   6.724  0.00  0.00    -0.024 A 
HETATM    2  C   UNK N   1      34.642  16.201   7.345  0.00  0.00     0.044 A 
HETATM    3  C   UNK N   1      35.505  13.909   7.511  0.00  0.00     0.013 A 
HETATM    4  C   UNK N   1      35.660  14.046   8.887  0.00  0.00     0.017 A 
HETATM    5  C   UNK N   1      35.292  15.255   9.455  0.00  0.00     0.024 A 
HETATM    6  C   UNK N   1      34.812  16.295   8.729  0.00  0.00     0.061 A 
HETATM    7  N   UNK N   1      34.485  17.306   9.560  0.00  0.00    -0.299 N 
HETATM    8  N   UNK N   1      34.730  16.903  10.810  0.00  0.00    -0.296 N 
ATOM      9  HN  UNK N   1      34.568  17.448  11.657  1.00  0.00     0.187 HD
HETATM   10  C   UNK N   1      35.232  15.645  10.759  0.00  0.00     0.104 A 
HETATM   11  H   UNK N   1      34.128  18.184   9.293  0.00  0.00     0.187 HD
ENDROOT
BRANCH  10  12
HETATM   12  C   UNK N   1      35.523  14.752  11.884  0.00  0.00     0.136 A 
HETATM   13  N   UNK N   1      36.386  15.035  12.895  0.00  0.00    -0.339 N 
HETATM   14  C   UNK N   1      36.153  14.054  13.786  0.00  0.00     0.060 A 
HETATM   15  H   UNK N   1      37.027  15.779  12.960  0.00  0.00     0.167 HD
HETATM   16  C   UNK N   1      36.709  13.883  15.050  0.00  0.00     0.032 A 
HETATM   17  C   UNK N   1      35.198  13.212  13.307  0.00  0.00     0.060 A 
HETATM   18  C   UNK N   1      36.250  12.793  15.819  0.00  0.00     0.002 A 
HETATM   19  C   UNK N   1      35.263  11.914  15.308  0.00  0.00     0.002 A 
HETATM   20  C   UNK N   1      34.722  12.125  14.028  0.00  0.00     0.032 A 
HETATM   21  N   UNK N   1      34.785  13.636  12.115  0.00  0.00    -0.339 N 
ATOM     22  HN  UNK N   1      34.076  13.217  11.512  1.00  0.00     0.167 HD
ENDBRANCH  10  12
BRANCH   1  23
HETATM   23  C   UNK N   1      34.791  14.731   5.278  0.00  0.00    -0.023 A 
HETATM   24  C   UNK N   1      33.827  15.437   4.550  0.00  0.00     0.052 A 
HETATM   25  C   UNK N   1      33.641  15.197   3.181  0.00  0.00     0.102 A 
HETATM   26  C   UNK N   1      34.441  14.214   2.539  0.00  0.00     0.099 A 
HETATM   27  C   UNK N   1      35.395  13.509   3.269  0.00  0.00     0.040 A 
HETATM   28  C   UNK N   1      35.570  13.764   4.624  0.00  0.00     0.015 A 
BRANCH  25  29
HETATM   29  O   UNK N   1      32.696  15.929   2.537  0.00  0.00    -0.353 OA
HETATM   30  C   UNK N   1      32.168  17.118   2.987  0.00  0.00     0.210 C 
ENDBRANCH  25  29
BRANCH  26  31
HETATM   31  O   UNK N   1      34.306  13.940   1.231  0.00  0.00    -0.358 OA
HETATM   32  H   UNK N   1      33.578  13.432   0.929  0.00  0.00     0.217 HD
ENDBRANCH  26  31
ENDBRANCH   1  23
TORSDOF 4
ENDMDL
MODEL 7
REMARK VINA RESULT:      -7.9      5.478      6.890
REMARK  4 active torsions:
REMARK  status: ('A' for Active; 'I' for Inactive)
REMARK    1  A    between atoms: O_2  and  C_3 
REMARK    2  A    between atoms: C_5  and  O_6 
REMARK    3  A    between atoms: C_9  and  C_10 
REMARK    4  A    between atoms: C_19  and  C_20 
ROOT
HETATM    1  C   UNK N   1      23.864  18.669   3.779  0.00  0.00    -0.024 A 
HETATM    2  C   UNK N   1      24.742  19.733   3.426  0.00  0.00     0.044 A 
HETATM    3  C   UNK N   1      24.369  17.550   4.484  0.00  0.00     0.013 A 
HETATM    4  C   UNK N   1      25.708  17.480   4.856  0.00  0.00     0.017 A 
HETATM    5  C   UNK N   1      26.525  18.543   4.510  0.00  0.00     0.024 A 
HETATM    6  C   UNK N   1      26.078  19.622   3.821  0.00  0.00     0.061 A 
HETATM    7  N   UNK N   1      27.082  20.515   3.688  0.00  0.00    -0.299 N 
HETATM    8  N   UNK N   1      28.153  20.019   4.312  0.00  0.00    -0.296 N 
ATOM      9  HN  UNK N   1      29.062  20.475   4.394  1.00  0.00     0.187 HD
HETATM   10  C   UNK N   1      27.827  18.804   4.817  0.00  0.00     0.104 A 
HETATM   11  H   UNK N   1      27.032  21.377   3.216  0.00  0.00     0.187 HD
ENDROOT
BRANCH  10  12
HETATM   12  C   UNK N   1      28.638  17.950   5.688  0.00  0.00     0.136 A 
HETATM   13  N   UNK N   1      29.410  16.917   5.260  0.00  0.00    -0.339 N 
HETATM   14  C   UNK N   1      30.127  16.591   6.351  0.00  0.00     0.060 A 
HETATM   15  H   UNK N   1      29.437  16.505   4.366  0.00  0.00     0.167 HD
HETATM   16  C   UNK N   1      31.135  15.639   6.471  0.00  0.00     0.032 A 
HETATM   17  C   UNK N   1      29.776  17.394   7.390  0.00  0.00     0.060 A 
HETATM   18  C   UNK N   1      31.778  15.530   7.722  0.00  0.00     0.002 A 
HETATM   19  C   UNK N   1      31.398  16.362   8.803  0.00  0.00     0.002 A 
HETATM   20  C   UNK N   1      30.379  17.316   8.639  0.00  0.00     0.032 A 
HETATM   21  N   UNK N   1      28.846  18.259   6.993  0.00  0.00    -0.339 N 
ATOM     22  HN  UNK N   1      28.391  18.987   7.545  1.00  0.00     0.167 HD
ENDBRANCH  10  12
BRANCH   1  23
HETATM   23  C   UNK N   1      22.418  18.708   3.474  0.00  0.00    -0.023 A 
HETATM   24  C   UNK N   1      21.588  17.611   3.734  0.00  0.00     0.052 A 
HETATM   25  C   UNK N   1      20.220  17.657   3.434  0.00  0.00     0.102 A 
HETATM   26  C   UNK N   1      19.682  18.834   2.849  0.00  0.00     0.099 A 
HETATM   27  C   UNK N   1      20.513  19.921   2.585  0.00  0.00     0.040 A 
HETATM   28  C   UNK N   1      21.866  19.860   2.895  0.00  0.00     0.015 A 
BRANCH  25  29
HETATM   29  O   UNK N   1      19.474  16.560   3.726  0.00  0.00    -0.353 OA
HETATM   30  C   UNK N   1      19.293  16.034   4.984  0.00  0.00     0.210 C 
ENDBRANCH  25  29
BRANCH  26  31
HETATM   31  O   UNK N   1      18.379  18.935   2.536  0.00  0.00    -0.358 OA
HETATM   32  H   UNK N   1      17.942  19.762   2.597  0.00  0.00     0.217 HD
ENDBRANCH  26  31
ENDBRANCH   1  23
TORSDOF 4
ENDMDL
MODEL 8
REMARK VINA RESULT:      -7.8     11.774     15.687
REMARK  4 active torsions:
REMARK  status: ('A' for Active; 'I' for Inactive)
REMARK    1  A    between atoms: O_2  and  C_3 
REMARK    2  A    between atoms: C_5  and  O_6 
REMARK    3  A    between atoms: C_9  and  C_10 
REMARK    4  A    between atoms: C_19  and  C_20 
ROOT
HETATM    1  C   UNK N   1      35.045  14.889  11.440  0.00  0.00    -0.024 A 
HETATM    2  C   UNK N   1      35.518  16.219  11.254  0.00  0.00     0.044 A 
HETATM    3  C   UNK N   1      34.131  14.335  10.512  0.00  0.00     0.013 A 
HETATM    4  C   UNK N   1      33.699  15.063   9.408  0.00  0.00     0.017 A 
HETATM    5  C   UNK N   1      34.196  16.346   9.252  0.00  0.00     0.024 A 
HETATM    6  C   UNK N   1      35.059  16.913  10.131  0.00  0.00     0.061 A 
HETATM    7  N   UNK N   1      35.412  18.137   9.684  0.00  0.00    -0.299 N 
HETATM    8  N   UNK N   1      34.797  18.337   8.516  0.00  0.00    -0.296 N 
ATOM      9  HN  UNK N   1      34.881  19.168   7.930  1.00  0.00     0.187 HD
HETATM   10  C   UNK N   1      34.041  17.246   8.241  0.00  0.00     0.104 A 
HETATM   11  H   UNK N   1      36.015  18.769  10.138  0.00  0.00     0.187 HD
ENDROOT
BRANCH  10  12
HETATM   12  C   UNK N   1      33.298  16.958   7.011  0.00  0.00     0.136 A 
HETATM   13  N   UNK N   1      31.943  16.908   6.918  0.00  0.00    -0.339 N 
HETATM   14  C   UNK N   1      31.724  16.850   5.592  0.00  0.00     0.060 A 
HETATM   15  H   UNK N   1      31.281  16.912   7.647  0.00  0.00     0.167 HD
HETATM   16  C   UNK N   1      30.508  16.851   4.915  0.00  0.00     0.032 A 
HETATM   17  C   UNK N   1      32.910  16.848   4.928  0.00  0.00     0.060 A 
HETATM   18  C   UNK N   1      30.551  16.841   3.505  0.00  0.00     0.002 A 
HETATM   19  C   UNK N   1      31.791  16.828   2.821  0.00  0.00     0.002 A 
HETATM   20  C   UNK N   1      32.998  16.833   3.542  0.00  0.00     0.032 A 
HETATM   21  N   UNK N   1      33.912  16.921   5.801  0.00  0.00    -0.339 N 
ATOM     22  HN  UNK N   1      34.913  16.943   5.605  1.00  0.00     0.167 HD
ENDBRANCH  10  12
BRANCH   1  23
HETATM   23  C   UNK N   1      35.513  14.036  12.553  0.00  0.00    -0.023 A 
HETATM   24  C   UNK N   1      36.241  14.568  13.623  0.00  0.00     0.052 A 
HETATM   25  C   UNK N   1      36.687  13.748  14.670  0.00  0.00     0.102 A 
HETATM   26  C   UNK N   1      36.397  12.357  14.626  0.00  0.00     0.099 A 
HETATM   27  C   UNK N   1      35.678  11.830  13.555  0.00  0.00     0.040 A 
HETATM   28  C   UNK N   1      35.239  12.660  12.530  0.00  0.00     0.015 A 
BRANCH  25  29
HETATM   29  O   UNK N   1      37.376  14.336  15.681  0.00  0.00    -0.353 OA
HETATM   30  C   UNK N   1      37.439  15.690  15.917  0.00  0.00     0.210 C 
ENDBRANCH  25  29
BRANCH  26  31
HETATM   31  O   UNK N   1      36.801  11.522  15.598  0.00  0.00    -0.358 OA
HETATM   32  H   UNK N   1      36.171  11.099  16.148  0.00  0.00     0.217 HD
ENDBRANCH  26  31
ENDBRANCH   1  23
TORSDOF 4
ENDMDL
MODEL 9
REMARK VINA RESULT:      -7.8     10.160     12.295
REMARK  4 active torsions:
REMARK  status: ('A' for Active; 'I' for Inactive)
REMARK    1  A    between atoms: O_2  and  C_3 
REMARK    2  A    between atoms: C_5  and  O_6 
REMARK    3  A    between atoms: C_9  and  C_10 
REMARK    4  A    between atoms: C_19  and  C_20 
ROOT
HETATM    1  C   UNK N   1      32.902  16.187   8.277  0.00  0.00    -0.024 A 
HETATM    2  C   UNK N   1      33.932  17.013   8.812  0.00  0.00     0.044 A 
HETATM    3  C   UNK N   1      32.702  14.888   8.802  0.00  0.00     0.013 A 
HETATM    4  C   UNK N   1      33.486  14.407   9.847  0.00  0.00     0.017 A 
HETATM    5  C   UNK N   1      34.465  15.247  10.351  0.00  0.00     0.024 A 
HETATM    6  C   UNK N   1      34.694  16.491   9.862  0.00  0.00     0.061 A 
HETATM    7  N   UNK N   1      35.660  17.087  10.590  0.00  0.00    -0.299 N 
HETATM    8  N   UNK N   1      36.026  16.239  11.554  0.00  0.00    -0.296 N 
ATOM      9  HN  UNK N   1      36.729  16.416  12.272  1.00  0.00     0.187 HD
HETATM   10  C   UNK N   1      35.303  15.101  11.416  0.00  0.00     0.104 A 
HETATM   11  H   UNK N   1      36.029  17.987  10.438  0.00  0.00     0.187 HD
ENDROOT
BRANCH  10  12
HETATM   12  C   UNK N   1      35.267  13.948  12.319  0.00  0.00     0.136 A 
HETATM   13  N   UNK N   1      35.619  13.980  13.632  0.00  0.00    -0.339 N 
HETATM   14  C   UNK N   1      35.209  12.784  14.093  0.00  0.00     0.060 A 
HETATM   15  H   UNK N   1      36.068  14.704  14.126  0.00  0.00     0.167 HD
HETATM   16  C   UNK N   1      35.252  12.299  15.397  0.00  0.00     0.032 A 
HETATM   17  C   UNK N   1      34.650  12.067  13.083  0.00  0.00     0.060 A 
HETATM   18  C   UNK N   1      34.699  11.023  15.633  0.00  0.00     0.002 A 
HETATM   19  C   UNK N   1      34.129  10.276  14.572  0.00  0.00     0.002 A 
HETATM   20  C   UNK N   1      34.100  10.805  13.270  0.00  0.00     0.032 A 
HETATM   21  N   UNK N   1      34.671  12.782  11.961  0.00  0.00    -0.339 N 
ATOM     22  HN  UNK N   1      34.321  12.514  11.041  1.00  0.00     0.167 HD
ENDBRANCH  10  12
BRANCH   1  23
HETATM   23  C   UNK N   1      31.989  16.658   7.213  0.00  0.00    -0.023 A 
HETATM   24  C   UNK N   1      32.454  16.927   5.921  0.00  0.00     0.052 A 
HETATM   25  C   UNK N   1      31.581  17.380   4.922  0.00  0.00     0.102 A 
HETATM   26  C   UNK N   1      30.210  17.575   5.241  0.00  0.00     0.099 A 
HETATM   27  C   UNK N   1      29.754  17.314   6.531  0.00  0.00     0.040 A 
HETATM   28  C   UNK N   1      30.632  16.859   7.507  0.00  0.00     0.015 A 
BRANCH  25  29
HETATM   29  O   UNK N   1      32.101  17.608   3.688  0.00  0.00    -0.353 OA
HETATM   30  C   UNK N   1      32.730  16.667   2.905  0.00  0.00     0.210 C 
ENDBRANCH  25  29
BRANCH  26  31
HETATM   31  O   UNK N   1      29.328  18.011   4.326  0.00  0.00    -0.358 OA
HETATM   32  H   UNK N   1      29.593  18.129   3.435  0.00  0.00     0.217 HD
ENDBRANCH  26  31
ENDBRANCH   1  23
TORSDOF 4
ENDMDL
