REMARK  3 active torsions:
REMARK  status: ('A' for Active; 'I' for Inactive)
REMARK    1  A    between atoms: C_1  and  C_2 
REMARK    2  A    between atoms: C_2  and  C_10 
REMARK       I    between atoms: C_13  and  N_14 
REMARK    3  A    between atoms: N_14  and  C_21 
REMARK       I    between atoms: C_17  and  N_18 
ROOT
HETATM    1  C   UNK N   1      -0.242  -3.519   0.172  0.00  0.00     0.030 A 
HETATM    2  C   UNK N   1      -0.752  -4.409  -0.735  0.00  0.00     0.031 A 
HETATM    3  C   UNK N   1      -2.098  -4.655  -0.781  0.00  0.00     0.025 A 
HETATM    4  C   UNK N   1      -2.964  -3.975   0.057  0.00  0.00     0.044 A 
HETATM    5  C   UNK N   1      -2.497  -3.010   0.953  0.00  0.00     0.025 A 
HETATM    6  C   UNK N   1      -1.122  -2.769   1.007  0.00  0.00     0.031 A 
HETATM    7  C   UNK N   1      -4.288  -4.461   0.121  0.00  0.00     0.099 C 
HETATM    8  N   UNK N   1      -5.350  -4.907   0.122  0.00  0.00    -0.191 NA
ENDROOT
BRANCH   1   9
HETATM    9  N   UNK N   1       1.050  -3.063  -0.124  0.00  0.00    -0.352 N 
HETATM   10  C   UNK N   1       1.135  -1.814  -0.761  0.00  0.00     0.306 C 
HETATM   11  N   UNK N   1       1.969  -1.009  -0.109  0.00  0.00    -0.341 N 
HETATM   12  N   UNK N   1      -0.082  -1.306  -1.144  0.00  0.00    -0.188 N 
HETATM   13  C   UNK N   1       1.411  -0.089   0.682  0.00  0.00     0.100 C 
ATOM     14  HN  UNK N   1       2.981  -1.090  -0.208  1.00  0.00     0.164 HD
HETATM   15  N   UNK N   1       0.087   0.152   0.637  0.00  0.00    -0.181 N 
HETATM   16  C   UNK N   1      -0.634  -0.354  -0.368  0.00  0.00     0.676 C 
ATOM     17  HN  UNK N   1      -0.360   0.714   1.361  1.00  0.00     0.185 HD
HETATM   18  N   UNK N   1      -1.975   0.039  -0.540  0.00  0.00    -0.235 N 
HETATM   19  H   UNK N   1      -2.206   0.988  -0.660  0.00  0.00     0.174 HD
HETATM   20  H   UNK N   1      -2.687  -0.641  -0.540  0.00  0.00     0.174 HD
ATOM     21  HN  UNK N   1      -0.551  -1.639  -1.987  1.00  0.00     0.181 HD
HETATM   22  H   UNK N   1       1.852  -3.588   0.102  0.00  0.00     0.163 HD
BRANCH  13  23
HETATM   23  C   UNK N   1       2.245   0.825   1.385  0.00  0.00     0.118 C 
BRANCH  23  24
HETATM   24  C   UNK N   1       2.244   2.085   0.585  0.00  0.00    -0.017 C 
HETATM   25  C   UNK N   1       1.079   2.866   0.339  0.00  0.00     0.000 A 
HETATM   26  C   UNK N   1       1.170   4.076  -0.264  0.00  0.00     0.043 A 
HETATM   27  C   UNK N   1      -0.268   2.666   0.600  0.00  0.00     0.031 A 
HETATM   28  N   UNK N   1      -0.037   4.649  -0.401  0.00  0.00    -0.365 N 
HETATM   29  C   UNK N   1       2.387   4.608  -0.666  0.00  0.00     0.032 C 
HETATM   30  C   UNK N   1      -0.930   3.773   0.106  0.00  0.00     0.089 A 
HETATM   31  H   UNK N   1      -0.231   5.531  -0.792  0.00  0.00     0.165 HD
HETATM   32  C   UNK N   1       3.534   3.805  -0.547  0.00  0.00     0.026 C 
HETATM   33  C   UNK N   1       3.462   2.534   0.046  0.00  0.00     0.041 C 
HETATM   34 Cl   UNK N   1       4.888   1.495   0.040  0.00  0.00    -0.084 Cl
ENDBRANCH  23  24
ENDBRANCH  13  23
ENDBRANCH   1   9
TORSDOF 3
