MODEL 1
REMARK VINA RESULT:      -8.6      0.000      0.000
REMARK  3 active torsions:
REMARK  status: ('A' for Active; 'I' for Inactive)
REMARK    1  A    between atoms: C_1  and  C_2 
REMARK    2  A    between atoms: C_2  and  C_10 
REMARK       I    between atoms: C_13  and  N_14 
REMARK    3  A    between atoms: N_14  and  C_21 
REMARK       I    between atoms: C_17  and  N_18 
ROOT
HETATM    1  C   UNK N   1      26.194  19.387   3.779  0.00  0.00     0.030 A 
HETATM    2  C   UNK N   1      25.204  18.561   4.240  0.00  0.00     0.031 A 
HETATM    3  C   UNK N   1      23.892  18.823   3.948  0.00  0.00     0.025 A 
HETATM    4  C   UNK N   1      23.554  19.899   3.146  0.00  0.00     0.044 A 
HETATM    5  C   UNK N   1      24.534  20.731   2.599  0.00  0.00     0.025 A 
HETATM    6  C   UNK N   1      25.871  20.469   2.908  0.00  0.00     0.031 A 
HETATM    7  C   UNK N   1      22.185  20.243   3.100  0.00  0.00     0.099 C 
HETATM    8  N   UNK N   1      21.055  20.465   3.105  0.00  0.00    -0.191 NA
ENDROOT
BRANCH   1   9
HETATM    9  N   UNK N   1      27.478  18.824   3.801  0.00  0.00    -0.352 N 
HETATM   10  C   UNK N   1      28.325  19.257   4.834  0.00  0.00     0.306 C 
HETATM   11  N   UNK N   1      28.834  18.218   5.490  0.00  0.00    -0.341 N 
HETATM   12  N   UNK N   1      27.812  20.295   5.571  0.00  0.00    -0.188 N 
HETATM   13  C   UNK N   1      28.266  17.919   6.661  0.00  0.00     0.100 C 
ATOM     14  HN  UNK N   1      29.617  17.680   5.120  1.00  0.00     0.164 HD
HETATM   15  N   UNK N   1      27.388  18.759   7.240  0.00  0.00    -0.181 N 
HETATM   16  C   UNK N   1      27.267  20.003   6.767  0.00  0.00     0.676 C 
ATOM     17  HN  UNK N   1      26.822  18.451   8.030  1.00  0.00     0.185 HD
HETATM   18  N   UNK N   1      26.501  20.953   7.470  0.00  0.00    -0.235 N 
HETATM   19  H   UNK N   1      26.714  21.174   8.405  0.00  0.00     0.174 HD
HETATM   20  H   UNK N   1      25.746  21.399   7.022  0.00  0.00     0.174 HD
ATOM     21  HN  UNK N   1      27.842  21.255   5.223  1.00  0.00     0.181 HD
HETATM   22  H   UNK N   1      27.768  18.164   3.130  0.00  0.00     0.163 HD
BRANCH  13  23
HETATM   23  C   UNK N   1      28.781  16.838   7.430  0.00  0.00     0.118 C 
BRANCH  23  24
HETATM   24  C   UNK N   1      30.256  17.052   7.508  0.00  0.00    -0.017 C 
HETATM   25  C   UNK N   1      31.195  16.421   6.642  0.00  0.00     0.000 A 
HETATM   26  C   UNK N   1      32.503  16.773   6.664  0.00  0.00     0.043 A 
HETATM   27  C   UNK N   1      31.078  15.432   5.678  0.00  0.00     0.031 A 
HETATM   28  N   UNK N   1      33.217  16.064   5.774  0.00  0.00    -0.365 N 
HETATM   29  C   UNK N   1      32.988  17.753   7.519  0.00  0.00     0.032 C 
HETATM   30  C   UNK N   1      32.349  15.218   5.182  0.00  0.00     0.089 A 
HETATM   31  H   UNK N   1      34.181  16.147   5.591  0.00  0.00     0.165 HD
HETATM   32  C   UNK N   1      32.107  18.301   8.467  0.00  0.00     0.026 C 
HETATM   33  C   UNK N   1      30.752  17.931   8.486  0.00  0.00     0.041 C 
HETATM   34 Cl   UNK N   1      29.713  18.523   9.784  0.00  0.00    -0.084 Cl
ENDBRANCH  23  24
ENDBRANCH  13  23
ENDBRANCH   1   9
TORSDOF 3
ENDMDL
MODEL 2
REMARK VINA RESULT:      -8.2      8.500     12.460
REMARK  3 active torsions:
REMARK  status: ('A' for Active; 'I' for Inactive)
REMARK    1  A    between atoms: C_1  and  C_2 
REMARK    2  A    between atoms: C_2  and  C_10 
REMARK       I    between atoms: C_13  and  N_14 
REMARK    3  A    between atoms: N_14  and  C_21 
REMARK       I    between atoms: C_17  and  N_18 
ROOT
HETATM    1  C   UNK N   1      34.783  14.366  10.804  0.00  0.00     0.030 A 
HETATM    2  C   UNK N   1      35.355  15.470  11.378  0.00  0.00     0.031 A 
HETATM    3  C   UNK N   1      35.312  16.681  10.741  0.00  0.00     0.025 A 
HETATM    4  C   UNK N   1      34.653  16.815   9.532  0.00  0.00     0.044 A 
HETATM    5  C   UNK N   1      33.998  15.732   8.941  0.00  0.00     0.025 A 
HETATM    6  C   UNK N   1      34.053  14.494   9.586  0.00  0.00     0.031 A 
HETATM    7  C   UNK N   1      34.866  18.021   8.830  0.00  0.00     0.099 C 
HETATM    8  N   UNK N   1      35.082  19.027   8.313  0.00  0.00    -0.191 NA
ENDROOT
BRANCH   1   9
HETATM    9  N   UNK N   1      34.546  13.307  11.691  0.00  0.00    -0.352 N 
HETATM   10  C   UNK N   1      35.412  12.206  11.586  0.00  0.00     0.306 C 
HETATM   11  N   UNK N   1      35.931  11.902  12.773  0.00  0.00    -0.341 N 
HETATM   12  N   UNK N   1      36.263  12.274  10.511  0.00  0.00    -0.188 N 
HETATM   13  C   UNK N   1      37.179  12.319  13.001  0.00  0.00     0.100 C 
ATOM     14  HN  UNK N   1      35.403  11.377  13.470  1.00  0.00     0.164 HD
HETATM   15  N   UNK N   1      37.937  12.813  12.005  0.00  0.00    -0.181 N 
HETATM   16  C   UNK N   1      37.532  12.662  10.740  0.00  0.00     0.676 C 
ATOM     17  HN  UNK N   1      38.811  13.297  12.212  1.00  0.00     0.185 HD
HETATM   18  N   UNK N   1      38.394  12.999   9.680  0.00  0.00    -0.235 N 
HETATM   19  H   UNK N   1      39.278  12.574   9.600  0.00  0.00     0.174 HD
HETATM   20  H   UNK N   1      38.110  13.666   9.013  0.00  0.00     0.174 HD
ATOM     21  HN  UNK N   1      35.944  12.038   9.570  1.00  0.00     0.181 HD
HETATM   22  H   UNK N   1      33.814  13.333  12.349  0.00  0.00     0.163 HD
BRANCH  13  23
HETATM   23  C   UNK N   1      37.805  12.000  14.239  0.00  0.00     0.118 C 
BRANCH  23  24
HETATM   24  C   UNK N   1      36.750  12.141  15.285  0.00  0.00    -0.017 C 
HETATM   25  C   UNK N   1      36.137  11.039  15.945  0.00  0.00     0.000 A 
HETATM   26  C   UNK N   1      35.298  11.236  16.991  0.00  0.00     0.043 A 
HETATM   27  C   UNK N   1      36.204   9.666  15.758  0.00  0.00     0.031 A 
HETATM   28  N   UNK N   1      34.830  10.072  17.472  0.00  0.00    -0.365 N 
HETATM   29  C   UNK N   1      34.998  12.505  17.464  0.00  0.00     0.032 C 
HETATM   30  C   UNK N   1      35.364   9.103  16.700  0.00  0.00     0.089 A 
HETATM   31  H   UNK N   1      34.220   9.951  18.235  0.00  0.00     0.165 HD
HETATM   32  C   UNK N   1      35.491  13.612  16.753  0.00  0.00     0.026 C 
HETATM   33  C   UNK N   1      36.338  13.436  15.647  0.00  0.00     0.041 C 
HETATM   34 Cl   UNK N   1      36.813  14.839  14.688  0.00  0.00    -0.084 Cl
ENDBRANCH  23  24
ENDBRANCH  13  23
ENDBRANCH   1   9
TORSDOF 3
ENDMDL
MODEL 3
REMARK VINA RESULT:      -8.1      2.648      4.318
REMARK  3 active torsions:
REMARK  status: ('A' for Active; 'I' for Inactive)
REMARK    1  A    between atoms: C_1  and  C_2 
REMARK    2  A    between atoms: C_2  and  C_10 
REMARK       I    between atoms: C_13  and  N_14 
REMARK    3  A    between atoms: N_14  and  C_21 
REMARK       I    between atoms: C_17  and  N_18 
ROOT
HETATM    1  C   UNK N   1      27.927  18.446   5.184  0.00  0.00     0.030 A 
HETATM    2  C   UNK N   1      28.148  19.604   4.486  0.00  0.00     0.031 A 
HETATM    3  C   UNK N   1      27.112  20.241   3.858  0.00  0.00     0.025 A 
HETATM    4  C   UNK N   1      25.822  19.749   3.957  0.00  0.00     0.044 A 
HETATM    5  C   UNK N   1      25.538  18.608   4.712  0.00  0.00     0.025 A 
HETATM    6  C   UNK N   1      26.598  17.952   5.343  0.00  0.00     0.031 A 
HETATM    7  C   UNK N   1      24.865  20.314   3.087  0.00  0.00     0.099 C 
HETATM    8  N   UNK N   1      24.137  20.821   2.352  0.00  0.00    -0.191 NA
ENDROOT
BRANCH   1   9
HETATM    9  N   UNK N   1      28.945  18.107   6.085  0.00  0.00    -0.352 N 
HETATM   10  C   UNK N   1      29.706  16.972   5.761  0.00  0.00     0.306 C 
HETATM   11  N   UNK N   1      31.005  17.253   5.788  0.00  0.00    -0.341 N 
HETATM   12  N   UNK N   1      29.221  16.271   4.685  0.00  0.00    -0.188 N 
HETATM   13  C   UNK N   1      31.594  17.458   4.606  0.00  0.00     0.100 C 
ATOM     14  HN  UNK N   1      31.525  17.309   6.664  1.00  0.00     0.164 HD
HETATM   15  N   UNK N   1      30.957  17.168   3.456  0.00  0.00    -0.181 N 
HETATM   16  C   UNK N   1      29.831  16.448   3.497  0.00  0.00     0.676 C 
ATOM     17  HN  UNK N   1      31.329  17.493   2.564  1.00  0.00     0.185 HD
HETATM   18  N   UNK N   1      29.254  15.974   2.304  0.00  0.00    -0.235 N 
HETATM   19  H   UNK N   1      29.770  15.400   1.694  0.00  0.00     0.174 HD
HETATM   20  H   UNK N   1      28.328  16.219   2.078  0.00  0.00     0.174 HD
ATOM     21  HN  UNK N   1      28.425  15.639   4.781  1.00  0.00     0.181 HD
HETATM   22  H   UNK N   1      29.117  18.635   6.899  0.00  0.00     0.163 HD
BRANCH  13  23
HETATM   23  C   UNK N   1      32.989  17.732   4.560  0.00  0.00     0.118 C 
BRANCH  23  24
HETATM   24  C   UNK N   1      33.647  16.672   5.380  0.00  0.00    -0.017 C 
HETATM   25  C   UNK N   1      34.024  16.844   6.742  0.00  0.00     0.000 A 
HETATM   26  C   UNK N   1      34.477  15.798   7.473  0.00  0.00     0.043 A 
HETATM   27  C   UNK N   1      34.036  17.941   7.590  0.00  0.00     0.031 A 
HETATM   28  N   UNK N   1      34.776  16.168   8.729  0.00  0.00    -0.365 N 
HETATM   29  C   UNK N   1      34.593  14.522   6.939  0.00  0.00     0.032 C 
HETATM   30  C   UNK N   1      34.531  17.494   8.800  0.00  0.00     0.089 A 
HETATM   31  H   UNK N   1      35.106  15.589   9.453  0.00  0.00     0.165 HD
HETATM   32  C   UNK N   1      34.346  14.353   5.566  0.00  0.00     0.026 C 
HETATM   33  C   UNK N   1      33.905  15.429   4.778  0.00  0.00     0.041 C 
HETATM   34 Cl   UNK N   1      33.752  15.217   3.033  0.00  0.00    -0.084 Cl
ENDBRANCH  23  24
ENDBRANCH  13  23
ENDBRANCH   1   9
TORSDOF 3
ENDMDL
MODEL 4
REMARK VINA RESULT:      -7.8      1.929      2.985
REMARK  3 active torsions:
REMARK  status: ('A' for Active; 'I' for Inactive)
REMARK    1  A    between atoms: C_1  and  C_2 
REMARK    2  A    between atoms: C_2  and  C_10 
REMARK       I    between atoms: C_13  and  N_14 
REMARK    3  A    between atoms: N_14  and  C_21 
REMARK       I    between atoms: C_17  and  N_18 
ROOT
HETATM    1  C   UNK N   1      25.567  19.572   3.786  0.00  0.00     0.030 A 
HETATM    2  C   UNK N   1      24.762  18.653   4.404  0.00  0.00     0.031 A 
HETATM    3  C   UNK N   1      23.403  18.710   4.251  0.00  0.00     0.025 A 
HETATM    4  C   UNK N   1      22.829  19.667   3.433  0.00  0.00     0.044 A 
HETATM    5  C   UNK N   1      23.615  20.584   2.729  0.00  0.00     0.025 A 
HETATM    6  C   UNK N   1      25.000  20.532   2.897  0.00  0.00     0.031 A 
HETATM    7  C   UNK N   1      21.428  19.814   3.525  0.00  0.00     0.099 C 
HETATM    8  N   UNK N   1      20.285  19.878   3.647  0.00  0.00    -0.191 NA
ENDROOT
BRANCH   1   9
HETATM    9  N   UNK N   1      26.914  19.195   3.692  0.00  0.00    -0.352 N 
HETATM   10  C   UNK N   1      27.806  19.866   4.545  0.00  0.00     0.306 C 
HETATM   11  N   UNK N   1      28.540  18.998   5.235  0.00  0.00    -0.341 N 
HETATM   12  N   UNK N   1      27.235  20.912   5.228  0.00  0.00    -0.188 N 
HETATM   13  C   UNK N   1      28.169  18.777   6.498  0.00  0.00     0.100 C 
ATOM     14  HN  UNK N   1      29.345  18.527   4.821  1.00  0.00     0.164 HD
HETATM   15  N   UNK N   1      27.251  19.558   7.097  0.00  0.00    -0.181 N 
HETATM   16  C   UNK N   1      26.888  20.704   6.512  0.00  0.00     0.676 C 
ATOM     17  HN  UNK N   1      26.837  19.280   7.987  1.00  0.00     0.185 HD
HETATM   18  N   UNK N   1      26.078  21.623   7.206  0.00  0.00    -0.235 N 
HETATM   19  H   UNK N   1      26.367  21.989   8.073  0.00  0.00     0.174 HD
HETATM   20  H   UNK N   1      25.216  21.902   6.821  0.00  0.00     0.174 HD
ATOM     21  HN  UNK N   1      27.078  21.814   4.777  1.00  0.00     0.181 HD
HETATM   22  H   UNK N   1      27.218  18.499   3.064  0.00  0.00     0.163 HD
BRANCH  13  23
HETATM   23  C   UNK N   1      28.930  17.883   7.302  0.00  0.00     0.118 C 
BRANCH  23  24
HETATM   24  C   UNK N   1      29.031  16.612   6.526  0.00  0.00    -0.017 C 
HETATM   25  C   UNK N   1      27.916  15.782   6.217  0.00  0.00     0.000 A 
HETATM   26  C   UNK N   1      28.050  14.724   5.382  0.00  0.00     0.043 A 
HETATM   27  C   UNK N   1      26.585  15.801   6.604  0.00  0.00     0.031 A 
HETATM   28  N   UNK N   1      26.885  14.074   5.221  0.00  0.00    -0.365 N 
HETATM   29  C   UNK N   1      29.264  14.401   4.792  0.00  0.00     0.032 C 
HETATM   30  C   UNK N   1      25.985  14.718   5.992  0.00  0.00     0.089 A 
HETATM   31  H   UNK N   1      26.722  13.287   4.653  0.00  0.00     0.165 HD
HETATM   32  C   UNK N   1      30.403  15.128   5.177  0.00  0.00     0.026 C 
HETATM   33  C   UNK N   1      30.297  16.210   6.066  0.00  0.00     0.041 C 
HETATM   34 Cl   UNK N   1      31.764  17.001   6.644  0.00  0.00    -0.084 Cl
ENDBRANCH  23  24
ENDBRANCH  13  23
ENDBRANCH   1   9
TORSDOF 3
ENDMDL
MODEL 5
REMARK VINA RESULT:      -7.6      4.857     10.374
REMARK  3 active torsions:
REMARK  status: ('A' for Active; 'I' for Inactive)
REMARK    1  A    between atoms: C_1  and  C_2 
REMARK    2  A    between atoms: C_2  and  C_10 
REMARK       I    between atoms: C_13  and  N_14 
REMARK    3  A    between atoms: N_14  and  C_21 
REMARK       I    between atoms: C_17  and  N_18 
ROOT
HETATM    1  C   UNK N   1      36.019  14.431  10.548  0.00  0.00     0.030 A 
HETATM    2  C   UNK N   1      35.538  14.971  11.711  0.00  0.00     0.031 A 
HETATM    3  C   UNK N   1      35.678  14.298  12.895  0.00  0.00     0.025 A 
HETATM    4  C   UNK N   1      36.346  13.087  12.939  0.00  0.00     0.044 A 
HETATM    5  C   UNK N   1      36.910  12.529  11.789  0.00  0.00     0.025 A 
HETATM    6  C   UNK N   1      36.756  13.211  10.579  0.00  0.00     0.031 A 
HETATM    7  C   UNK N   1      36.229  12.348  14.136  0.00  0.00     0.099 C 
HETATM    8  N   UNK N   1      36.096  11.801  15.141  0.00  0.00    -0.191 NA
ENDROOT
BRANCH   1   9
HETATM    9  N   UNK N   1      36.171  15.350   9.500  0.00  0.00    -0.352 N 
HETATM   10  C   UNK N   1      35.256  15.236   8.439  0.00  0.00     0.306 C 
HETATM   11  N   UNK N   1      34.679  16.407   8.188  0.00  0.00    -0.341 N 
HETATM   12  N   UNK N   1      34.452  14.126   8.522  0.00  0.00    -0.188 N 
HETATM   13  C   UNK N   1      33.445  16.577   8.670  0.00  0.00     0.100 C 
ATOM     14  HN  UNK N   1      35.153  17.136   7.655  1.00  0.00     0.164 HD
HETATM   15  N   UNK N   1      32.750  15.541   9.175  0.00  0.00    -0.181 N 
HETATM   16  C   UNK N   1      33.195  14.297   8.975  0.00  0.00     0.676 C 
ATOM     17  HN  UNK N   1      31.894  15.704   9.705  1.00  0.00     0.185 HD
HETATM   18  N   UNK N   1      32.392  13.196   9.328  0.00  0.00    -0.235 N 
HETATM   19  H   UNK N   1      31.492  13.091   8.943  0.00  0.00     0.174 HD
HETATM   20  H   UNK N   1      32.733  12.527   9.964  0.00  0.00     0.174 HD
ATOM     21  HN  UNK N   1      34.795  13.204   8.249  1.00  0.00     0.181 HD
HETATM   22  H   UNK N   1      36.877  16.036   9.507  0.00  0.00     0.163 HD
BRANCH  13  23
HETATM   23  C   UNK N   1      32.757  17.796   8.411  0.00  0.00     0.118 C 
BRANCH  23  24
HETATM   24  C   UNK N   1      31.722  17.476   7.385  0.00  0.00    -0.017 C 
HETATM   25  C   UNK N   1      32.006  17.299   6.000  0.00  0.00     0.000 A 
HETATM   26  C   UNK N   1      31.049  16.861   5.146  0.00  0.00     0.043 A 
HETATM   27  C   UNK N   1      33.149  17.483   5.237  0.00  0.00     0.031 A 
HETATM   28  N   UNK N   1      31.519  16.761   3.892  0.00  0.00    -0.365 N 
HETATM   29  C   UNK N   1      29.762  16.566   5.572  0.00  0.00     0.032 C 
HETATM   30  C   UNK N   1      32.805  17.168   3.937  0.00  0.00     0.089 A 
HETATM   31  H   UNK N   1      31.024  16.452   3.100  0.00  0.00     0.165 HD
HETATM   32  C   UNK N   1      29.423  16.850   6.906  0.00  0.00     0.026 C 
HETATM   33  C   UNK N   1      30.388  17.334   7.805  0.00  0.00     0.041 C 
HETATM   34 Cl   UNK N   1      29.892  17.822   9.426  0.00  0.00    -0.084 Cl
ENDBRANCH  23  24
ENDBRANCH  13  23
ENDBRANCH   1   9
TORSDOF 3
ENDMDL
MODEL 6
REMARK VINA RESULT:      -7.5      3.124      7.664
REMARK  3 active torsions:
REMARK  status: ('A' for Active; 'I' for Inactive)
REMARK    1  A    between atoms: C_1  and  C_2 
REMARK    2  A    between atoms: C_2  and  C_10 
REMARK       I    between atoms: C_13  and  N_14 
REMARK    3  A    between atoms: N_14  and  C_21 
REMARK       I    between atoms: C_17  and  N_18 
ROOT
HETATM    1  C   UNK N   1      32.397  17.136   5.779  0.00  0.00     0.030 A 
HETATM    2  C   UNK N   1      31.787  17.245   7.000  0.00  0.00     0.031 A 
HETATM    3  C   UNK N   1      32.500  17.039   8.151  0.00  0.00     0.025 A 
HETATM    4  C   UNK N   1      33.854  16.763   8.096  0.00  0.00     0.044 A 
HETATM    5  C   UNK N   1      34.534  16.708   6.877  0.00  0.00     0.025 A 
HETATM    6  C   UNK N   1      33.802  16.906   5.703  0.00  0.00     0.031 A 
HETATM    7  C   UNK N   1      34.455  16.323   9.295  0.00  0.00     0.099 C 
HETATM    8  N   UNK N   1      34.880  15.973  10.307  0.00  0.00    -0.191 NA
ENDROOT
BRANCH   1   9
HETATM    9  N   UNK N   1      31.696  17.735   4.723  0.00  0.00    -0.352 N 
HETATM   10  C   UNK N   1      30.976  16.867   3.887  0.00  0.00     0.306 C 
HETATM   11  N   UNK N   1      29.714  17.268   3.767  0.00  0.00    -0.341 N 
HETATM   12  N   UNK N   1      31.206  15.537   4.142  0.00  0.00    -0.188 N 
HETATM   13  C   UNK N   1      28.810  16.619   4.505  0.00  0.00     0.100 C 
ATOM     14  HN  UNK N   1      29.450  18.032   3.144  1.00  0.00     0.164 HD
HETATM   15  N   UNK N   1      29.131  15.481   5.150  0.00  0.00    -0.181 N 
HETATM   16  C   UNK N   1      30.282  14.869   4.857  0.00  0.00     0.676 C 
ATOM     17  HN  UNK N   1      28.503  15.091   5.853  1.00  0.00     0.185 HD
HETATM   18  N   UNK N   1      30.550  13.587   5.376  0.00  0.00    -0.235 N 
HETATM   19  H   UNK N   1      29.938  12.838   5.196  0.00  0.00     0.174 HD
HETATM   20  H   UNK N   1      31.355  13.440   5.923  0.00  0.00     0.174 HD
ATOM     21  HN  UNK N   1      32.049  15.073   3.801  1.00  0.00     0.181 HD
HETATM   22  H   UNK N   1      31.708  18.709   4.577  0.00  0.00     0.163 HD
BRANCH  13  23
HETATM   23  C   UNK N   1      27.437  16.977   4.402  0.00  0.00     0.118 C 
BRANCH  23  24
HETATM   24  C   UNK N   1      27.256  18.178   5.270  0.00  0.00    -0.017 C 
HETATM   25  C   UNK N   1      27.588  18.211   6.654  0.00  0.00     0.000 A 
HETATM   26  C   UNK N   1      27.544  19.373   7.350  0.00  0.00     0.043 A 
HETATM   27  C   UNK N   1      27.993  17.238   7.555  0.00  0.00     0.031 A 
HETATM   28  N   UNK N   1      27.894  19.191   8.634  0.00  0.00    -0.365 N 
HETATM   29  C   UNK N   1      27.179  20.573   6.756  0.00  0.00     0.032 C 
HETATM   30  C   UNK N   1      28.146  17.872   8.772  0.00  0.00     0.089 A 
HETATM   31  H   UNK N   1      27.954  19.881   9.333  0.00  0.00     0.165 HD
HETATM   32  C   UNK N   1      26.728  20.544   5.425  0.00  0.00     0.026 C 
HETATM   33  C   UNK N   1      26.734  19.347   4.691  0.00  0.00     0.041 C 
HETATM   34 Cl   UNK N   1      26.021  19.319   3.078  0.00  0.00    -0.084 Cl
ENDBRANCH  23  24
ENDBRANCH  13  23
ENDBRANCH   1   9
TORSDOF 3
ENDMDL
MODEL 7
REMARK VINA RESULT:      -7.4      8.695     12.222
REMARK  3 active torsions:
REMARK  status: ('A' for Active; 'I' for Inactive)
REMARK    1  A    between atoms: C_1  and  C_2 
REMARK    2  A    between atoms: C_2  and  C_10 
REMARK       I    between atoms: C_13  and  N_14 
REMARK    3  A    between atoms: N_14  and  C_21 
REMARK       I    between atoms: C_17  and  N_18 
ROOT
HETATM    1  C   UNK N   1      34.393  14.188  10.529  0.00  0.00     0.030 A 
HETATM    2  C   UNK N   1      34.152  14.410   9.200  0.00  0.00     0.031 A 
HETATM    3  C   UNK N   1      34.403  15.637   8.648  0.00  0.00     0.025 A 
HETATM    4  C   UNK N   1      34.943  16.654   9.415  0.00  0.00     0.044 A 
HETATM    5  C   UNK N   1      35.267  16.454  10.759  0.00  0.00     0.025 A 
HETATM    6  C   UNK N   1      34.999  15.205  11.324  0.00  0.00     0.031 A 
HETATM    7  C   UNK N   1      34.937  17.945   8.842  0.00  0.00     0.099 C 
HETATM    8  N   UNK N   1      34.904  18.968   8.314  0.00  0.00    -0.191 NA
ENDROOT
BRANCH   1   9
HETATM    9  N   UNK N   1      34.474  12.835  10.887  0.00  0.00    -0.352 N 
HETATM   10  C   UNK N   1      35.673  12.179  10.561  0.00  0.00     0.306 C 
HETATM   11  N   UNK N   1      36.180  11.567  11.628  0.00  0.00    -0.341 N 
HETATM   12  N   UNK N   1      36.522  12.934   9.789  0.00  0.00    -0.188 N 
HETATM   13  C   UNK N   1      37.186  12.188  12.248  0.00  0.00     0.100 C 
ATOM     14  HN  UNK N   1      35.818  10.671  11.954  1.00  0.00     0.164 HD
HETATM   15  N   UNK N   1      37.795  13.250  11.688  0.00  0.00    -0.181 N 
HETATM   16  C   UNK N   1      37.558  13.535  10.404  0.00  0.00     0.676 C 
ATOM     17  HN  UNK N   1      38.430  13.829  12.236  1.00  0.00     0.185 HD
HETATM   18  N   UNK N   1      38.323  14.518   9.748  0.00  0.00    -0.235 N 
HETATM   19  H   UNK N   1      39.303  14.439   9.700  0.00  0.00     0.174 HD
HETATM   20  H   UNK N   1      37.874  15.291   9.335  0.00  0.00     0.174 HD
ATOM     21  HN  UNK N   1      36.372  13.035   8.785  1.00  0.00     0.181 HD
HETATM   22  H   UNK N   1      33.734  12.371  11.341  0.00  0.00     0.163 HD
BRANCH  13  23
HETATM   23  C   UNK N   1      37.795  11.573  13.378  0.00  0.00     0.118 C 
BRANCH  23  24
HETATM   24  C   UNK N   1      36.690  11.293  14.342  0.00  0.00    -0.017 C 
HETATM   25  C   UNK N   1      36.174  12.255  15.256  0.00  0.00     0.000 A 
HETATM   26  C   UNK N   1      35.072  11.986  15.997  0.00  0.00     0.043 A 
HETATM   27  C   UNK N   1      36.568  13.538  15.603  0.00  0.00     0.031 A 
HETATM   28  N   UNK N   1      34.750  13.020  16.791  0.00  0.00    -0.365 N 
HETATM   29  C   UNK N   1      34.399  10.776  15.902  0.00  0.00     0.032 C 
HETATM   30  C   UNK N   1      35.684  13.970  16.572  0.00  0.00     0.089 A 
HETATM   31  H   UNK N   1      33.985  13.075  17.408  0.00  0.00     0.165 HD
HETATM   32  C   UNK N   1      34.959   9.767  15.101  0.00  0.00     0.026 C 
HETATM   33  C   UNK N   1      36.118  10.009  14.347  0.00  0.00     0.041 C 
HETATM   34 Cl   UNK N   1      36.877   8.676  13.475  0.00  0.00    -0.084 Cl
ENDBRANCH  23  24
ENDBRANCH  13  23
ENDBRANCH   1   9
TORSDOF 3
ENDMDL
MODEL 8
REMARK VINA RESULT:      -7.3      6.154      9.549
REMARK  3 active torsions:
REMARK  status: ('A' for Active; 'I' for Inactive)
REMARK    1  A    between atoms: C_1  and  C_2 
REMARK    2  A    between atoms: C_2  and  C_10 
REMARK       I    between atoms: C_13  and  N_14 
REMARK    3  A    between atoms: N_14  and  C_21 
REMARK       I    between atoms: C_17  and  N_18 
ROOT
HETATM    1  C   UNK N   1      33.752  17.105   8.270  0.00  0.00     0.030 A 
HETATM    2  C   UNK N   1      34.361  16.871   7.066  0.00  0.00     0.031 A 
HETATM    3  C   UNK N   1      33.642  16.940   5.903  0.00  0.00     0.025 A 
HETATM    4  C   UNK N   1      32.304  17.289   5.925  0.00  0.00     0.044 A 
HETATM    5  C   UNK N   1      31.656  17.601   7.123  0.00  0.00     0.025 A 
HETATM    6  C   UNK N   1      32.387  17.518   8.310  0.00  0.00     0.031 A 
HETATM    7  C   UNK N   1      31.584  17.095   4.726  0.00  0.00     0.099 C 
HETATM    8  N   UNK N   1      31.059  16.915   3.716  0.00  0.00    -0.191 NA
ENDROOT
BRANCH   1   9
HETATM    9  N   UNK N   1      34.633  17.390   9.322  0.00  0.00    -0.352 N 
HETATM   10  C   UNK N   1      34.666  16.458  10.372  0.00  0.00     0.306 C 
HETATM   11  N   UNK N   1      35.914  16.072  10.620  0.00  0.00    -0.341 N 
HETATM   12  N   UNK N   1      33.699  15.487  10.278  0.00  0.00    -0.188 N 
HETATM   13  C   UNK N   1      36.280  14.887  10.126  0.00  0.00     0.100 C 
ATOM     14  HN  UNK N   1      36.558  16.651  11.160  1.00  0.00     0.164 HD
HETATM   15  N   UNK N   1      35.369  14.040   9.610  0.00  0.00    -0.181 N 
HETATM   16  C   UNK N   1      34.070  14.279   9.812  0.00  0.00     0.676 C 
ATOM     17  HN  UNK N   1      35.667  13.227   9.072  1.00  0.00     0.185 HD
HETATM   18  N   UNK N   1      33.112  13.314   9.448  0.00  0.00    -0.235 N 
HETATM   19  H   UNK N   1      33.151  12.404   9.822  0.00  0.00     0.174 HD
HETATM   20  H   UNK N   1      32.397  13.550   8.813  0.00  0.00     0.174 HD
ATOM     21  HN  UNK N   1      32.734  15.674  10.553  1.00  0.00     0.181 HD
HETATM   22  H   UNK N   1      35.197  18.197   9.324  0.00  0.00     0.163 HD
BRANCH  13  23
HETATM   23  C   UNK N   1      37.593  14.400  10.381  0.00  0.00     0.118 C 
BRANCH  23  24
HETATM   24  C   UNK N   1      37.424  13.174  11.215  0.00  0.00    -0.017 C 
HETATM   25  C   UNK N   1      36.820  13.171  12.505  0.00  0.00     0.000 A 
HETATM   26  C   UNK N   1      36.559  12.005  13.145  0.00  0.00     0.043 A 
HETATM   27  C   UNK N   1      36.384  14.180  13.349  0.00  0.00     0.031 A 
HETATM   28  N   UNK N   1      35.988  12.219  14.342  0.00  0.00    -0.365 N 
HETATM   29  C   UNK N   1      36.864  10.773  12.584  0.00  0.00     0.032 C 
HETATM   30  C   UNK N   1      35.902  13.559  14.485  0.00  0.00     0.089 A 
HETATM   31  H   UNK N   1      35.692  11.536  14.986  0.00  0.00     0.165 HD
HETATM   32  C   UNK N   1      37.572  10.754  11.370  0.00  0.00     0.026 C 
HETATM   33  C   UNK N   1      37.882  11.949  10.701  0.00  0.00     0.041 C 
HETATM   34 Cl   UNK N   1      38.902  11.894   9.262  0.00  0.00    -0.084 Cl
ENDBRANCH  23  24
ENDBRANCH  13  23
ENDBRANCH   1   9
TORSDOF 3
ENDMDL
MODEL 9
REMARK VINA RESULT:      -7.3     10.417     13.979
REMARK  3 active torsions:
REMARK  status: ('A' for Active; 'I' for Inactive)
REMARK    1  A    between atoms: C_1  and  C_2 
REMARK    2  A    between atoms: C_2  and  C_10 
REMARK       I    between atoms: C_13  and  N_14 
REMARK    3  A    between atoms: N_14  and  C_21 
REMARK       I    between atoms: C_17  and  N_18 
ROOT
HETATM    1  C   UNK N   1      30.979  21.758  -3.300  0.00  0.00     0.030 A 
HETATM    2  C   UNK N   1      30.525  20.997  -4.344  0.00  0.00     0.031 A 
HETATM    3  C   UNK N   1      31.394  20.222  -5.064  0.00  0.00     0.025 A 
HETATM    4  C   UNK N   1      32.733  20.163  -4.718  0.00  0.00     0.044 A 
HETATM    5  C   UNK N   1      33.229  20.871  -3.621  0.00  0.00     0.025 A 
HETATM    6  C   UNK N   1      32.343  21.671  -2.895  0.00  0.00     0.031 A 
HETATM    7  C   UNK N   1      33.596  19.548  -5.650  0.00  0.00     0.099 C 
HETATM    8  N   UNK N   1      34.242  19.030  -6.452  0.00  0.00    -0.191 NA
ENDROOT
BRANCH   1   9
HETATM    9  N   UNK N   1      29.979  22.187  -2.416  0.00  0.00    -0.352 N 
HETATM   10  C   UNK N   1      29.608  23.538  -2.509  0.00  0.00     0.306 C 
HETATM   11  N   UNK N   1      28.290  23.656  -2.640  0.00  0.00    -0.341 N 
HETATM   12  N   UNK N   1      30.407  24.273  -3.350  0.00  0.00    -0.188 N 
HETATM   13  C   UNK N   1      27.834  23.889  -3.873  0.00  0.00     0.100 C 
ATOM     14  HN  UNK N   1      27.661  23.574  -1.841  1.00  0.00     0.164 HD
HETATM   15  N   UNK N   1      28.675  24.212  -4.874  0.00  0.00    -0.181 N 
HETATM   16  C   UNK N   1      29.938  24.539  -4.583  0.00  0.00     0.676 C 
ATOM     17  HN  UNK N   1      28.353  24.207  -5.841  1.00  0.00     0.185 HD
HETATM   18  N   UNK N   1      30.778  25.061  -5.585  0.00  0.00    -0.235 N 
HETATM   19  H   UNK N   1      30.526  25.877  -6.074  0.00  0.00     0.174 HD
HETATM   20  H   UNK N   1      31.624  24.605  -5.799  0.00  0.00     0.174 HD
ATOM     21  HN  UNK N   1      31.324  24.606  -3.049  1.00  0.00     0.181 HD
HETATM   22  H   UNK N   1      29.561  21.575  -1.767  0.00  0.00     0.163 HD
BRANCH  13  23
HETATM   23  C   UNK N   1      26.436  24.057  -4.080  0.00  0.00     0.118 C 
BRANCH  23  24
HETATM   24  C   UNK N   1      26.289  25.252  -4.961  0.00  0.00    -0.017 C 
HETATM   25  C   UNK N   1      26.299  26.594  -4.485  0.00  0.00     0.000 A 
HETATM   26  C   UNK N   1      26.314  27.637  -5.349  0.00  0.00     0.043 A 
HETATM   27  C   UNK N   1      26.303  27.147  -3.213  0.00  0.00     0.031 A 
HETATM   28  N   UNK N   1      26.324  28.813  -4.701  0.00  0.00    -0.365 N 
HETATM   29  C   UNK N   1      26.321  27.452  -6.725  0.00  0.00     0.032 C 
HETATM   30  C   UNK N   1      26.291  28.518  -3.384  0.00  0.00     0.089 A 
HETATM   31  H   UNK N   1      26.351  29.710  -5.105  0.00  0.00     0.165 HD
HETATM   32  C   UNK N   1      26.185  26.144  -7.219  0.00  0.00     0.026 C 
HETATM   33  C   UNK N   1      26.136  25.047  -6.344  0.00  0.00     0.041 C 
HETATM   34 Cl   UNK N   1      25.813  23.438  -6.991  0.00  0.00    -0.084 Cl
ENDBRANCH  23  24
ENDBRANCH  13  23
ENDBRANCH   1   9
TORSDOF 3
ENDMDL
