MODEL 1
REMARK VINA RESULT:      -7.3      0.000      0.000
REMARK  6 active torsions:
REMARK  status: ('A' for Active; 'I' for Inactive)
REMARK    1  A    between atoms: C_2  and  O_3 
REMARK    2  A    between atoms: C_2  and  C_15 
REMARK    3  A    between atoms: C_5  and  N_7 
REMARK    4  A    between atoms: C_6  and  O_11 
REMARK    5  A    between atoms: O_11  and  C_12 
REMARK    6  A    between atoms: C_18  and  C_21 
ROOT
HETATM    1  C   UNK N   1      19.898  16.239   4.649  0.00  0.00     0.058 A 
HETATM    2  C   UNK N   1      20.981  18.435   4.597  0.00  0.00     0.119 A 
HETATM    3  C   UNK N   1      20.236  16.092   5.991  0.00  0.00     0.077 A 
HETATM    4  C   UNK N   1      21.379  18.214   5.926  0.00  0.00     0.040 A 
HETATM    5  C   UNK N   1      21.019  17.066   6.613  0.00  0.00     0.040 A 
HETATM    6  C   UNK N   1      20.255  17.389   3.919  0.00  0.00     0.073 A 
ENDROOT
BRANCH   3   7
HETATM    7  O   UNK N   1      19.763  15.032   6.692  0.00  0.00    -0.309 OA
BRANCH   7   8
HETATM    8  C   UNK N   1      20.505  14.349   7.609  0.00  0.00     0.097 A 
HETATM    9  C   UNK N   1      20.293  14.607   8.969  0.00  0.00     0.040 A 
HETATM   10  C   UNK N   1      21.015  13.912   9.945  0.00  0.00     0.019 A 
HETATM   11  C   UNK N   1      21.963  12.950   9.572  0.00  0.00     0.049 A 
HETATM   12  C   UNK N   1      22.204  12.713   8.219  0.00  0.00     0.042 A 
HETATM   13  C   UNK N   1      21.500  13.400   7.235  0.00  0.00     0.068 A 
HETATM   14 Cl   UNK N   1      21.956  13.071   5.564  0.00  0.00    -0.081 Cl
BRANCH  11  15
HETATM   15  C   UNK N   1      22.728  12.163  10.593  0.00  0.00     0.417 C 
HETATM   16  F   UNK N   1      22.078  12.162  11.815  0.00  0.00    -0.166 F 
HETATM   17  F   UNK N   1      22.860  10.857  10.157  0.00  0.00    -0.166 F 
HETATM   18  F   UNK N   1      23.987  12.714  10.755  0.00  0.00    -0.166 F 
ENDBRANCH  11  15
ENDBRANCH   7   8
ENDBRANCH   3   7
BRANCH   6  19
HETATM   19  C   UNK N   1      19.845  17.386   2.481  0.00  0.00     0.178 C 
HETATM   20  O   UNK N   1      20.285  16.575   1.687  0.00  0.00    -0.646 OA
BRANCH  19  21
HETATM   21  O   UNK N   1      18.890  18.241   2.063  0.00  0.00    -0.773 OA
HETATM   22  H   UNK N   1      18.696  19.039   2.513  0.00  0.00     0.167 HD
ENDBRANCH  19  21
ENDBRANCH   6  19
BRANCH   2  23
HETATM   23  N   UNK N   1      21.290  19.716   4.029  0.00  0.00    -0.115 N 
HETATM   24  O   UNK N   1      22.445  19.935   3.445  0.00  0.00    -0.532 OA
HETATM   25  O   UNK N   1      20.405  20.498   3.841  0.00  0.00    -0.532 OA
ENDBRANCH   2  23
TORSDOF 6
ENDMDL
MODEL 2
REMARK VINA RESULT:      -7.2     10.877     12.505
REMARK  6 active torsions:
REMARK  status: ('A' for Active; 'I' for Inactive)
REMARK    1  A    between atoms: C_2  and  O_3 
REMARK    2  A    between atoms: C_2  and  C_15 
REMARK    3  A    between atoms: C_5  and  N_7 
REMARK    4  A    between atoms: C_6  and  O_11 
REMARK    5  A    between atoms: O_11  and  C_12 
REMARK    6  A    between atoms: C_18  and  C_21 
ROOT
HETATM    1  C   UNK N   1      32.279  17.060   7.811  0.00  0.00     0.058 A 
HETATM    2  C   UNK N   1      34.089  15.679   6.911  0.00  0.00     0.119 A 
HETATM    3  C   UNK N   1      31.335  16.239   7.203  0.00  0.00     0.077 A 
HETATM    4  C   UNK N   1      33.112  14.923   6.241  0.00  0.00     0.040 A 
HETATM    5  C   UNK N   1      31.760  15.196   6.379  0.00  0.00     0.040 A 
HETATM    6  C   UNK N   1      33.661  16.818   7.686  0.00  0.00     0.073 A 
ENDROOT
BRANCH   3   7
HETATM    7  O   UNK N   1      30.016  16.429   7.454  0.00  0.00    -0.309 OA
BRANCH   7   8
HETATM    8  C   UNK N   1      29.300  17.476   6.955  0.00  0.00     0.097 A 
HETATM    9  C   UNK N   1      29.168  17.597   5.566  0.00  0.00     0.040 A 
HETATM   10  C   UNK N   1      28.423  18.643   5.012  0.00  0.00     0.019 A 
HETATM   11  C   UNK N   1      27.802  19.586   5.842  0.00  0.00     0.049 A 
HETATM   12  C   UNK N   1      27.959  19.492   7.225  0.00  0.00     0.042 A 
HETATM   13  C   UNK N   1      28.702  18.462   7.792  0.00  0.00     0.068 A 
HETATM   14 Cl   UNK N   1      28.894  18.502   9.544  0.00  0.00    -0.081 Cl
BRANCH  11  15
HETATM   15  C   UNK N   1      26.969  20.698   5.281  0.00  0.00     0.417 C 
HETATM   16  F   UNK N   1      27.324  21.917   5.830  0.00  0.00    -0.166 F 
HETATM   17  F   UNK N   1      27.149  20.756   3.910  0.00  0.00    -0.166 F 
HETATM   18  F   UNK N   1      25.633  20.458   5.550  0.00  0.00    -0.166 F 
ENDBRANCH  11  15
ENDBRANCH   7   8
ENDBRANCH   3   7
BRANCH   6  19
HETATM   19  C   UNK N   1      34.548  17.805   8.373  0.00  0.00     0.178 C 
HETATM   20  O   UNK N   1      34.912  18.832   7.830  0.00  0.00    -0.646 OA
BRANCH  19  21
HETATM   21  O   UNK N   1      34.884  17.607   9.663  0.00  0.00    -0.773 OA
HETATM   22  H   UNK N   1      35.711  17.869  10.016  0.00  0.00     0.167 HD
ENDBRANCH  19  21
ENDBRANCH   6  19
BRANCH   2  23
HETATM   23  N   UNK N   1      35.446  15.225   6.808  0.00  0.00    -0.115 N 
HETATM   24  O   UNK N   1      35.979  14.470   7.740  0.00  0.00    -0.532 OA
HETATM   25  O   UNK N   1      36.006  15.299   5.754  0.00  0.00    -0.532 OA
ENDBRANCH   2  23
TORSDOF 6
ENDMDL
MODEL 3
REMARK VINA RESULT:      -7.0      5.627      6.947
REMARK  6 active torsions:
REMARK  status: ('A' for Active; 'I' for Inactive)
REMARK    1  A    between atoms: C_2  and  O_3 
REMARK    2  A    between atoms: C_2  and  C_15 
REMARK    3  A    between atoms: C_5  and  N_7 
REMARK    4  A    between atoms: C_6  and  O_11 
REMARK    5  A    between atoms: O_11  and  C_12 
REMARK    6  A    between atoms: C_18  and  C_21 
ROOT
HETATM    1  C   UNK N   1      24.857  18.513   4.398  0.00  0.00     0.058 A 
HETATM    2  C   UNK N   1      22.982  19.694   3.357  0.00  0.00     0.119 A 
HETATM    3  C   UNK N   1      25.756  19.394   3.805  0.00  0.00     0.077 A 
HETATM    4  C   UNK N   1      23.923  20.510   2.707  0.00  0.00     0.040 A 
HETATM    5  C   UNK N   1      25.284  20.366   2.921  0.00  0.00     0.040 A 
HETATM    6  C   UNK N   1      23.468  18.626   4.196  0.00  0.00     0.073 A 
ENDROOT
BRANCH   3   7
HETATM    7  O   UNK N   1      27.071  19.332   4.127  0.00  0.00    -0.309 OA
BRANCH   7   8
HETATM    8  C   UNK N   1      27.526  18.973   5.361  0.00  0.00     0.097 A 
HETATM    9  C   UNK N   1      27.970  17.659   5.555  0.00  0.00     0.040 A 
HETATM   10  C   UNK N   1      28.466  17.253   6.799  0.00  0.00     0.019 A 
HETATM   11  C   UNK N   1      28.521  18.158   7.867  0.00  0.00     0.049 A 
HETATM   12  C   UNK N   1      28.049  19.459   7.690  0.00  0.00     0.042 A 
HETATM   13  C   UNK N   1      27.546  19.877   6.462  0.00  0.00     0.068 A 
HETATM   14 Cl   UNK N   1      26.903  21.517   6.392  0.00  0.00    -0.081 Cl
BRANCH  11  15
HETATM   15  C   UNK N   1      29.080  17.765   9.201  0.00  0.00     0.417 C 
HETATM   16  F   UNK N   1      28.156  17.046   9.939  0.00  0.00    -0.166 F 
HETATM   17  F   UNK N   1      30.205  16.984   9.012  0.00  0.00    -0.166 F 
HETATM   18  F   UNK N   1      29.433  18.900   9.909  0.00  0.00    -0.166 F 
ENDBRANCH  11  15
ENDBRANCH   7   8
ENDBRANCH   3   7
BRANCH   6  19
HETATM   19  C   UNK N   1      22.636  17.587   4.877  0.00  0.00     0.178 C 
HETATM   20  O   UNK N   1      22.690  16.411   4.565  0.00  0.00    -0.646 OA
BRANCH  19  21
HETATM   21  O   UNK N   1      21.872  17.937   5.931  0.00  0.00    -0.773 OA
HETATM   22  H   UNK N   1      20.938  17.986   5.883  0.00  0.00     0.167 HD
ENDBRANCH  19  21
ENDBRANCH   6  19
BRANCH   2  23
HETATM   23  N   UNK N   1      21.597  20.021   3.170  0.00  0.00    -0.115 N 
HETATM   24  O   UNK N   1      20.793  20.167   4.197  0.00  0.00    -0.532 OA
HETATM   25  O   UNK N   1      21.234  20.429   2.106  0.00  0.00    -0.532 OA
ENDBRANCH   2  23
TORSDOF 6
ENDMDL
MODEL 4
REMARK VINA RESULT:      -6.9      9.615     11.140
REMARK  6 active torsions:
REMARK  status: ('A' for Active; 'I' for Inactive)
REMARK    1  A    between atoms: C_2  and  O_3 
REMARK    2  A    between atoms: C_2  and  C_15 
REMARK    3  A    between atoms: C_5  and  N_7 
REMARK    4  A    between atoms: C_6  and  O_11 
REMARK    5  A    between atoms: O_11  and  C_12 
REMARK    6  A    between atoms: C_18  and  C_21 
ROOT
HETATM    1  C   UNK N   1      30.554  17.255   6.139  0.00  0.00     0.058 A 
HETATM    2  C   UNK N   1      32.776  17.451   7.147  0.00  0.00     0.119 A 
HETATM    3  C   UNK N   1      29.960  17.528   7.368  0.00  0.00     0.077 A 
HETATM    4  C   UNK N   1      32.143  17.638   8.387  0.00  0.00     0.040 A 
HETATM    5  C   UNK N   1      30.762  17.674   8.501  0.00  0.00     0.040 A 
HETATM    6  C   UNK N   1      31.953  17.203   5.989  0.00  0.00     0.073 A 
ENDROOT
BRANCH   3   7
HETATM    7  O   UNK N   1      28.617  17.698   7.445  0.00  0.00    -0.309 OA
BRANCH   7   8
HETATM    8  C   UNK N   1      27.875  18.271   6.456  0.00  0.00     0.097 A 
HETATM    9  C   UNK N   1      27.781  19.668   6.413  0.00  0.00     0.040 A 
HETATM   10  C   UNK N   1      27.049  20.300   5.402  0.00  0.00     0.019 A 
HETATM   11  C   UNK N   1      26.398  19.540   4.421  0.00  0.00     0.049 A 
HETATM   12  C   UNK N   1      26.459  18.148   4.478  0.00  0.00     0.042 A 
HETATM   13  C   UNK N   1      27.177  17.503   5.480  0.00  0.00     0.068 A 
HETATM   14 Cl   UNK N   1      27.107  15.742   5.491  0.00  0.00    -0.081 Cl
BRANCH  11  15
HETATM   15  C   UNK N   1      25.635  20.187   3.304  0.00  0.00     0.417 C 
HETATM   16  F   UNK N   1      25.177  19.247   2.399  0.00  0.00    -0.166 F 
HETATM   17  F   UNK N   1      24.550  20.867   3.828  0.00  0.00    -0.166 F 
HETATM   18  F   UNK N   1      26.453  21.085   2.643  0.00  0.00    -0.166 F 
ENDBRANCH  11  15
ENDBRANCH   7   8
ENDBRANCH   3   7
BRANCH   6  19
HETATM   19  C   UNK N   1      32.436  16.870   4.614  0.00  0.00     0.178 C 
HETATM   20  O   UNK N   1      32.226  17.600   3.662  0.00  0.00    -0.646 OA
BRANCH  19  21
HETATM   21  O   UNK N   1      33.206  15.780   4.429  0.00  0.00    -0.773 OA
HETATM   22  H   UNK N   1      32.941  15.059   3.893  0.00  0.00     0.167 HD
ENDBRANCH  19  21
ENDBRANCH   6  19
BRANCH   2  23
HETATM   23  N   UNK N   1      34.206  17.570   7.122  0.00  0.00    -0.115 N 
HETATM   24  O   UNK N   1      34.809  18.597   7.674  0.00  0.00    -0.532 OA
HETATM   25  O   UNK N   1      34.865  16.611   6.847  0.00  0.00    -0.532 OA
ENDBRANCH   2  23
TORSDOF 6
ENDMDL
MODEL 5
REMARK VINA RESULT:      -6.8     12.600     14.168
REMARK  6 active torsions:
REMARK  status: ('A' for Active; 'I' for Inactive)
REMARK    1  A    between atoms: C_2  and  O_3 
REMARK    2  A    between atoms: C_2  and  C_15 
REMARK    3  A    between atoms: C_5  and  N_7 
REMARK    4  A    between atoms: C_6  and  O_11 
REMARK    5  A    between atoms: O_11  and  C_12 
REMARK    6  A    between atoms: C_18  and  C_21 
ROOT
HETATM    1  C   UNK N   1      34.682  16.000   8.916  0.00  0.00     0.058 A 
HETATM    2  C   UNK N   1      32.338  16.480   8.396  0.00  0.00     0.119 A 
HETATM    3  C   UNK N   1      34.302  14.883   9.653  0.00  0.00     0.077 A 
HETATM    4  C   UNK N   1      31.986  15.396   9.218  0.00  0.00     0.040 A 
HETATM    5  C   UNK N   1      32.945  14.611   9.838  0.00  0.00     0.040 A 
HETATM    6  C   UNK N   1      33.734  16.824   8.279  0.00  0.00     0.073 A 
ENDROOT
BRANCH   3   7
HETATM    7  O   UNK N   1      35.248  14.043  10.141  0.00  0.00    -0.309 OA
BRANCH   7   8
HETATM    8  C   UNK N   1      35.443  13.826  11.472  0.00  0.00     0.097 A 
HETATM    9  C   UNK N   1      36.020  14.845  12.240  0.00  0.00     0.040 A 
HETATM   10  C   UNK N   1      36.219  14.674  13.614  0.00  0.00     0.019 A 
HETATM   11  C   UNK N   1      35.845  13.477  14.238  0.00  0.00     0.049 A 
HETATM   12  C   UNK N   1      35.302  12.444  13.474  0.00  0.00     0.042 A 
HETATM   13  C   UNK N   1      35.104  12.595  12.105  0.00  0.00     0.068 A 
HETATM   14 Cl   UNK N   1      34.489  11.188  11.238  0.00  0.00    -0.081 Cl
BRANCH  11  15
HETATM   15  C   UNK N   1      36.012  13.275  15.714  0.00  0.00     0.417 C 
HETATM   16  F   UNK N   1      36.635  12.071  15.988  0.00  0.00    -0.166 F 
HETATM   17  F   UNK N   1      36.781  14.303  16.230  0.00  0.00    -0.166 F 
HETATM   18  F   UNK N   1      34.771  13.289  16.327  0.00  0.00    -0.166 F 
ENDBRANCH  11  15
ENDBRANCH   7   8
ENDBRANCH   3   7
BRANCH   6  19
HETATM   19  C   UNK N   1      34.298  18.002   7.551  0.00  0.00     0.178 C 
HETATM   20  O   UNK N   1      34.898  18.890   8.128  0.00  0.00    -0.646 OA
BRANCH  19  21
HETATM   21  O   UNK N   1      34.226  18.043   6.205  0.00  0.00    -0.773 OA
HETATM   22  H   UNK N   1      34.509  17.334   5.663  0.00  0.00     0.167 HD
ENDBRANCH  19  21
ENDBRANCH   6  19
BRANCH   2  23
HETATM   23  N   UNK N   1      31.273  17.137   7.694  0.00  0.00    -0.115 N 
HETATM   24  O   UNK N   1      30.501  18.008   8.299  0.00  0.00    -0.532 OA
HETATM   25  O   UNK N   1      31.257  17.104   6.499  0.00  0.00    -0.532 OA
ENDBRANCH   2  23
TORSDOF 6
ENDMDL
MODEL 6
REMARK VINA RESULT:      -6.8      5.286      7.657
REMARK  6 active torsions:
REMARK  status: ('A' for Active; 'I' for Inactive)
REMARK    1  A    between atoms: C_2  and  O_3 
REMARK    2  A    between atoms: C_2  and  C_15 
REMARK    3  A    between atoms: C_5  and  N_7 
REMARK    4  A    between atoms: C_6  and  O_11 
REMARK    5  A    between atoms: O_11  and  C_12 
REMARK    6  A    between atoms: C_18  and  C_21 
ROOT
HETATM    1  C   UNK N   1      21.392  16.536   6.714  0.00  0.00     0.058 A 
HETATM    2  C   UNK N   1      21.317  14.858   8.495  0.00  0.00     0.119 A 
HETATM    3  C   UNK N   1      22.393  15.819   6.066  0.00  0.00     0.077 A 
HETATM    4  C   UNK N   1      22.387  14.207   7.859  0.00  0.00     0.040 A 
HETATM    5  C   UNK N   1      22.919  14.676   6.668  0.00  0.00     0.040 A 
HETATM    6  C   UNK N   1      20.834  16.093   7.929  0.00  0.00     0.073 A 
ENDROOT
BRANCH   3   7
HETATM    7  O   UNK N   1      22.812  16.209   4.836  0.00  0.00    -0.309 OA
BRANCH   7   8
HETATM    8  C   UNK N   1      23.710  17.213   4.633  0.00  0.00     0.097 A 
HETATM    9  C   UNK N   1      25.060  16.975   4.924  0.00  0.00     0.040 A 
HETATM   10  C   UNK N   1      26.019  17.970   4.710  0.00  0.00     0.019 A 
HETATM   11  C   UNK N   1      25.640  19.220   4.203  0.00  0.00     0.049 A 
HETATM   12  C   UNK N   1      24.294  19.476   3.944  0.00  0.00     0.042 A 
HETATM   13  C   UNK N   1      23.325  18.500   4.158  0.00  0.00     0.068 A 
HETATM   14 Cl   UNK N   1      21.652  18.975   3.873  0.00  0.00    -0.081 Cl
BRANCH  11  15
HETATM   15  C   UNK N   1      26.648  20.295   3.929  0.00  0.00     0.417 C 
HETATM   16  F   UNK N   1      26.357  20.968   2.755  0.00  0.00    -0.166 F 
HETATM   17  F   UNK N   1      26.645  21.200   4.975  0.00  0.00    -0.166 F 
HETATM   18  F   UNK N   1      27.908  19.733   3.822  0.00  0.00    -0.166 F 
ENDBRANCH  11  15
ENDBRANCH   7   8
ENDBRANCH   3   7
BRANCH   6  19
HETATM   19  C   UNK N   1      19.789  16.988   8.515  0.00  0.00     0.178 C 
HETATM   20  O   UNK N   1      20.056  18.096   8.943  0.00  0.00    -0.646 OA
BRANCH  19  21
HETATM   21  O   UNK N   1      18.498  16.603   8.489  0.00  0.00    -0.773 OA
HETATM   22  H   UNK N   1      18.123  16.048   9.144  0.00  0.00     0.167 HD
ENDBRANCH  19  21
ENDBRANCH   6  19
BRANCH   2  23
HETATM   23  N   UNK N   1      20.753  14.211   9.645  0.00  0.00    -0.115 N 
HETATM   24  O   UNK N   1      19.454  14.094   9.786  0.00  0.00    -0.532 OA
HETATM   25  O   UNK N   1      21.458  13.538  10.338  0.00  0.00    -0.532 OA
ENDBRANCH   2  23
TORSDOF 6
ENDMDL
MODEL 7
REMARK VINA RESULT:      -6.7      9.588     11.224
REMARK  6 active torsions:
REMARK  status: ('A' for Active; 'I' for Inactive)
REMARK    1  A    between atoms: C_2  and  O_3 
REMARK    2  A    between atoms: C_2  and  C_15 
REMARK    3  A    between atoms: C_5  and  N_7 
REMARK    4  A    between atoms: C_6  and  O_11 
REMARK    5  A    between atoms: O_11  and  C_12 
REMARK    6  A    between atoms: C_18  and  C_21 
ROOT
HETATM    1  C   UNK N   1      30.445  16.682   6.160  0.00  0.00     0.058 A 
HETATM    2  C   UNK N   1      32.834  17.218   6.142  0.00  0.00     0.119 A 
HETATM    3  C   UNK N   1      30.401  16.783   4.773  0.00  0.00     0.077 A 
HETATM    4  C   UNK N   1      32.733  17.396   4.752  0.00  0.00     0.040 A 
HETATM    5  C   UNK N   1      31.541  17.186   4.076  0.00  0.00     0.040 A 
HETATM    6  C   UNK N   1      31.637  16.896   6.879  0.00  0.00     0.073 A 
ENDROOT
BRANCH   3   7
HETATM    7  O   UNK N   1      29.269  16.443   4.109  0.00  0.00    -0.309 OA
BRANCH   7   8
HETATM    8  C   UNK N   1      28.203  17.279   3.965  0.00  0.00     0.097 A 
HETATM    9  C   UNK N   1      28.371  18.637   4.266  0.00  0.00     0.040 A 
HETATM   10  C   UNK N   1      27.310  19.536   4.111  0.00  0.00     0.019 A 
HETATM   11  C   UNK N   1      26.064  19.086   3.656  0.00  0.00     0.049 A 
HETATM   12  C   UNK N   1      25.879  17.730   3.389  0.00  0.00     0.042 A 
HETATM   13  C   UNK N   1      26.921  16.821   3.543  0.00  0.00     0.068 A 
HETATM   14 Cl   UNK N   1      26.537  15.125   3.254  0.00  0.00    -0.081 Cl
BRANCH  11  15
HETATM   15  C   UNK N   1      24.917  20.029   3.447  0.00  0.00     0.417 C 
HETATM   16  F   UNK N   1      24.966  20.606   2.190  0.00  0.00    -0.166 F 
HETATM   17  F   UNK N   1      23.727  19.335   3.573  0.00  0.00    -0.166 F 
HETATM   18  F   UNK N   1      24.959  21.029   4.402  0.00  0.00    -0.166 F 
ENDBRANCH  11  15
ENDBRANCH   7   8
ENDBRANCH   3   7
BRANCH   6  19
HETATM   19  C   UNK N   1      31.517  16.780   8.364  0.00  0.00     0.178 C 
HETATM   20  O   UNK N   1      31.760  15.742   8.952  0.00  0.00    -0.646 OA
BRANCH  19  21
HETATM   21  O   UNK N   1      31.222  17.876   9.092  0.00  0.00    -0.773 OA
HETATM   22  H   UNK N   1      30.342  18.162   9.240  0.00  0.00     0.167 HD
ENDBRANCH  19  21
ENDBRANCH   6  19
BRANCH   2  23
HETATM   23  N   UNK N   1      34.144  17.326   6.717  0.00  0.00    -0.115 N 
HETATM   24  O   UNK N   1      35.052  16.401   6.509  0.00  0.00    -0.532 OA
HETATM   25  O   UNK N   1      34.503  18.379   7.155  0.00  0.00    -0.532 OA
ENDBRANCH   2  23
TORSDOF 6
ENDMDL
MODEL 8
REMARK VINA RESULT:      -6.6     13.802     15.181
REMARK  6 active torsions:
REMARK  status: ('A' for Active; 'I' for Inactive)
REMARK    1  A    between atoms: C_2  and  O_3 
REMARK    2  A    between atoms: C_2  and  C_15 
REMARK    3  A    between atoms: C_5  and  N_7 
REMARK    4  A    between atoms: C_6  and  O_11 
REMARK    5  A    between atoms: O_11  and  C_12 
REMARK    6  A    between atoms: C_18  and  C_21 
ROOT
HETATM    1  C   UNK N   1      35.373  14.497  10.286  0.00  0.00     0.058 A 
HETATM    2  C   UNK N   1      34.671  14.849   7.967  0.00  0.00     0.119 A 
HETATM    3  C   UNK N   1      35.555  13.141  10.037  0.00  0.00     0.077 A 
HETATM    4  C   UNK N   1      34.783  13.462   7.775  0.00  0.00     0.040 A 
HETATM    5  C   UNK N   1      35.214  12.619   8.788  0.00  0.00     0.040 A 
HETATM    6  C   UNK N   1      34.929  15.380   9.283  0.00  0.00     0.073 A 
ENDROOT
BRANCH   3   7
HETATM    7  O   UNK N   1      36.106  12.348  10.989  0.00  0.00    -0.309 OA
BRANCH   7   8
HETATM    8  C   UNK N   1      35.874  12.506  12.323  0.00  0.00     0.097 A 
HETATM    9  C   UNK N   1      36.664  13.413  13.039  0.00  0.00     0.040 A 
HETATM   10  C   UNK N   1      36.445  13.623  14.405  0.00  0.00     0.019 A 
HETATM   11  C   UNK N   1      35.432  12.923  15.074  0.00  0.00     0.049 A 
HETATM   12  C   UNK N   1      34.664  11.992  14.375  0.00  0.00     0.042 A 
HETATM   13  C   UNK N   1      34.873  11.766  13.018  0.00  0.00     0.068 A 
HETATM   14 Cl   UNK N   1      33.895  10.505  12.270  0.00  0.00    -0.081 Cl
BRANCH  11  15
HETATM   15  C   UNK N   1      35.149  13.151  16.528  0.00  0.00     0.417 C 
HETATM   16  F   UNK N   1      35.974  14.131  17.052  0.00  0.00    -0.166 F 
HETATM   17  F   UNK N   1      33.833  13.548  16.679  0.00  0.00    -0.166 F 
HETATM   18  F   UNK N   1      35.348  11.975  17.229  0.00  0.00    -0.166 F 
ENDBRANCH  11  15
ENDBRANCH   7   8
ENDBRANCH   3   7
BRANCH   6  19
HETATM   19  C   UNK N   1      34.755  16.801   9.714  0.00  0.00     0.178 C 
HETATM   20  O   UNK N   1      35.650  17.426  10.254  0.00  0.00    -0.646 OA
BRANCH  19  21
HETATM   21  O   UNK N   1      33.610  17.447   9.416  0.00  0.00    -0.773 OA
HETATM   22  H   UNK N   1      33.273  18.145   9.942  0.00  0.00     0.167 HD
ENDBRANCH  19  21
ENDBRANCH   6  19
BRANCH   2  23
HETATM   23  N   UNK N   1      34.351  15.642   6.814  0.00  0.00    -0.115 N 
HETATM   24  O   UNK N   1      33.171  16.200   6.685  0.00  0.00    -0.532 OA
HETATM   25  O   UNK N   1      35.236  16.023   6.106  0.00  0.00    -0.532 OA
ENDBRANCH   2  23
TORSDOF 6
ENDMDL
MODEL 9
REMARK VINA RESULT:      -6.6     10.894     12.105
REMARK  6 active torsions:
REMARK  status: ('A' for Active; 'I' for Inactive)
REMARK    1  A    between atoms: C_2  and  O_3 
REMARK    2  A    between atoms: C_2  and  C_15 
REMARK    3  A    between atoms: C_5  and  N_7 
REMARK    4  A    between atoms: C_6  and  O_11 
REMARK    5  A    between atoms: O_11  and  C_12 
REMARK    6  A    between atoms: C_18  and  C_21 
ROOT
HETATM    1  C   UNK N   1      31.438  17.362   8.546  0.00  0.00     0.058 A 
HETATM    2  C   UNK N   1      29.567  17.443   6.969  0.00  0.00     0.119 A 
HETATM    3  C   UNK N   1      32.306  17.016   7.516  0.00  0.00     0.077 A 
HETATM    4  C   UNK N   1      30.455  17.009   5.970  0.00  0.00     0.040 A 
HETATM    5  C   UNK N   1      31.799  16.796   6.234  0.00  0.00     0.040 A 
HETATM    6  C   UNK N   1      30.066  17.579   8.316  0.00  0.00     0.073 A 
ENDROOT
BRANCH   3   7
HETATM    7  O   UNK N   1      33.639  16.943   7.753  0.00  0.00    -0.309 OA
BRANCH   7   8
HETATM    8  C   UNK N   1      34.175  16.308   8.833  0.00  0.00     0.097 A 
HETATM    9  C   UNK N   1      34.917  17.059   9.753  0.00  0.00     0.040 A 
HETATM   10  C   UNK N   1      35.466  16.452  10.888  0.00  0.00     0.019 A 
HETATM   11  C   UNK N   1      35.283  15.082  11.115  0.00  0.00     0.049 A 
HETATM   12  C   UNK N   1      34.576  14.320  10.185  0.00  0.00     0.042 A 
HETATM   13  C   UNK N   1      34.028  14.907   9.048  0.00  0.00     0.068 A 
HETATM   14 Cl   UNK N   1      33.230  13.823   7.909  0.00  0.00    -0.081 Cl
BRANCH  11  15
HETATM   15  C   UNK N   1      35.828  14.408  12.338  0.00  0.00     0.417 C 
HETATM   16  F   UNK N   1      36.939  13.641  12.035  0.00  0.00    -0.166 F 
HETATM   17  F   UNK N   1      36.190  15.370  13.264  0.00  0.00    -0.166 F 
HETATM   18  F   UNK N   1      34.857  13.593  12.891  0.00  0.00    -0.166 F 
ENDBRANCH  11  15
ENDBRANCH   7   8
ENDBRANCH   3   7
BRANCH   6  19
HETATM   19  C   UNK N   1      29.259  17.916   9.528  0.00  0.00     0.178 C 
HETATM   20  O   UNK N   1      28.218  17.341   9.791  0.00  0.00    -0.646 OA
BRANCH  19  21
HETATM   21  O   UNK N   1      29.737  18.814  10.412  0.00  0.00    -0.773 OA
HETATM   22  H   UNK N   1      30.652  18.999  10.499  0.00  0.00     0.167 HD
ENDBRANCH  19  21
ENDBRANCH   6  19
BRANCH   2  23
HETATM   23  N   UNK N   1      28.231  17.766   6.556  0.00  0.00    -0.115 N 
HETATM   24  O   UNK N   1      27.271  16.874   6.616  0.00  0.00    -0.532 OA
HETATM   25  O   UNK N   1      27.927  18.914   6.417  0.00  0.00    -0.532 OA
ENDBRANCH   2  23
TORSDOF 6
ENDMDL
