MODEL 1
REMARK VINA RESULT:      -5.6      0.000      0.000
REMARK  1 active torsions:
REMARK  status: ('A' for Active; 'I' for Inactive)
REMARK    1  A    between atoms: C_12  and  O_13 
ROOT
HETATM    1  C   UNK N   1      31.813  14.804   6.605  0.00  0.00     0.159 A 
HETATM    2  N   UNK N   1      32.327  16.112   6.263  0.00  0.00    -0.382 N 
HETATM    3  C   UNK N   1      31.991  16.807   5.047  0.00  0.00     0.150 C 
HETATM    4  C   UNK N   1      33.176  16.601   7.248  0.00  0.00     0.043 A 
HETATM    5  C   UNK N   1      33.817  17.782   7.239  0.00  0.00     0.089 A 
HETATM    6  C   UNK N   1      34.680  18.111   8.397  0.00  0.00     0.223 A 
HETATM    7  O   UNK N   1      35.284  19.172   8.435  0.00  0.00    -0.284 OA
HETATM    8  C   UNK N   1      34.793  17.124   9.505  0.00  0.00     0.222 A 
HETATM    9  O   UNK N   1      35.492  17.351  10.480  0.00  0.00    -0.284 OA
HETATM   10  C   UNK N   1      34.037  15.851   9.404  0.00  0.00     0.071 A 
HETATM   11  C   UNK N   1      33.280  15.644   8.314  0.00  0.00     0.003 A 
HETATM   12  C   UNK N   1      32.436  14.438   8.001  0.00  0.00     0.171 A 
ENDROOT
BRANCH  12  13
HETATM   13  O   UNK N   1      32.456  13.434   8.968  0.00  0.00    -0.389 OA
HETATM   14  H   UNK N   1      33.123  13.452   9.673  0.00  0.00     0.210 HD
ENDBRANCH  12  13
TORSDOF 1
ENDMDL
MODEL 2
REMARK VINA RESULT:      -5.3      2.858      3.287
REMARK  1 active torsions:
REMARK  status: ('A' for Active; 'I' for Inactive)
REMARK    1  A    between atoms: C_12  and  O_13 
ROOT
HETATM    1  C   UNK N   1      29.010  17.182   7.916  0.00  0.00     0.159 A 
HETATM    2  N   UNK N   1      29.871  16.760   6.833  0.00  0.00    -0.382 N 
HETATM    3  C   UNK N   1      29.413  15.997   5.701  0.00  0.00     0.150 C 
HETATM    4  C   UNK N   1      31.181  17.184   7.028  0.00  0.00     0.043 A 
HETATM    5  C   UNK N   1      32.224  16.960   6.212  0.00  0.00     0.089 A 
HETATM    6  C   UNK N   1      33.544  17.503   6.609  0.00  0.00     0.223 A 
HETATM    7  O   UNK N   1      34.523  17.326   5.901  0.00  0.00    -0.284 OA
HETATM    8  C   UNK N   1      33.646  18.264   7.883  0.00  0.00     0.222 A 
HETATM    9  O   UNK N   1      34.713  18.731   8.253  0.00  0.00    -0.284 OA
HETATM   10  C   UNK N   1      32.423  18.448   8.704  0.00  0.00     0.071 A 
HETATM   11  C   UNK N   1      31.272  17.918   8.259  0.00  0.00     0.003 A 
HETATM   12  C   UNK N   1      29.921  17.978   8.918  0.00  0.00     0.171 A 
ENDROOT
BRANCH  12  13
HETATM   13  O   UNK N   1      29.883  18.669  10.129  0.00  0.00    -0.389 OA
HETATM   14  H   UNK N   1      29.340  19.468  10.215  0.00  0.00     0.210 HD
ENDBRANCH  12  13
TORSDOF 1
ENDMDL
MODEL 3
REMARK VINA RESULT:      -5.2     10.545     12.299
REMARK  1 active torsions:
REMARK  status: ('A' for Active; 'I' for Inactive)
REMARK    1  A    between atoms: C_12  and  O_13 
ROOT
HETATM    1  C   UNK N   1      24.549  12.212  10.038  0.00  0.00     0.159 A 
HETATM    2  N   UNK N   1      24.164  13.005   8.890  0.00  0.00    -0.382 N 
HETATM    3  C   UNK N   1      25.054  13.315   7.801  0.00  0.00     0.150 C 
HETATM    4  C   UNK N   1      22.841  13.422   8.978  0.00  0.00     0.043 A 
HETATM    5  C   UNK N   1      22.177  14.170   8.081  0.00  0.00     0.089 A 
HETATM    6  C   UNK N   1      20.763  14.504   8.370  0.00  0.00     0.223 A 
HETATM    7  O   UNK N   1      20.116  15.181   7.586  0.00  0.00    -0.284 OA
HETATM    8  C   UNK N   1      20.154  13.998   9.629  0.00  0.00     0.222 A 
HETATM    9  O   UNK N   1      18.992  14.247   9.911  0.00  0.00    -0.284 OA
HETATM   10  C   UNK N   1      20.988  13.179  10.545  0.00  0.00     0.071 A 
HETATM   11  C   UNK N   1      22.260  12.930  10.196  0.00  0.00     0.003 A 
HETATM   12  C   UNK N   1      23.281  12.131  10.961  0.00  0.00     0.171 A 
ENDROOT
BRANCH  12  13
HETATM   13  O   UNK N   1      22.830  11.598  12.169  0.00  0.00    -0.389 OA
HETATM   14  H   UNK N   1      22.330  10.767  12.176  0.00  0.00     0.210 HD
ENDBRANCH  12  13
TORSDOF 1
ENDMDL
MODEL 4
REMARK VINA RESULT:      -5.2      1.621      3.712
REMARK  1 active torsions:
REMARK  status: ('A' for Active; 'I' for Inactive)
REMARK    1  A    between atoms: C_12  and  O_13 
ROOT
HETATM    1  C   UNK N   1      33.312  17.542   7.379  0.00  0.00     0.159 A 
HETATM    2  N   UNK N   1      32.922  16.259   7.922  0.00  0.00    -0.382 N 
HETATM    3  C   UNK N   1      31.911  15.419   7.335  0.00  0.00     0.150 C 
HETATM    4  C   UNK N   1      33.643  15.950   9.069  0.00  0.00     0.043 A 
HETATM    5  C   UNK N   1      33.525  14.837   9.814  0.00  0.00     0.089 A 
HETATM    6  C   UNK N   1      34.395  14.705  11.005  0.00  0.00     0.223 A 
HETATM    7  O   UNK N   1      34.325  13.712  11.713  0.00  0.00    -0.284 OA
HETATM    8  C   UNK N   1      35.350  15.803  11.315  0.00  0.00     0.222 A 
HETATM    9  O   UNK N   1      36.088  15.739  12.287  0.00  0.00    -0.284 OA
HETATM   10  C   UNK N   1      35.392  16.985  10.419  0.00  0.00     0.071 A 
HETATM   11  C   UNK N   1      34.563  17.013   9.363  0.00  0.00     0.003 A 
HETATM   12  C   UNK N   1      34.432  18.099   8.329  0.00  0.00     0.171 A 
ENDROOT
BRANCH  12  13
HETATM   13  O   UNK N   1      35.280  19.192   8.509  0.00  0.00    -0.389 OA
HETATM   14  H   UNK N   1      36.105  19.089   9.010  0.00  0.00     0.210 HD
ENDBRANCH  12  13
TORSDOF 1
ENDMDL
MODEL 5
REMARK VINA RESULT:      -5.1     12.468     14.171
REMARK  1 active torsions:
REMARK  status: ('A' for Active; 'I' for Inactive)
REMARK    1  A    between atoms: C_12  and  O_13 
ROOT
HETATM    1  C   UNK N   1      29.392  21.457  -7.038  0.00  0.00     0.159 A 
HETATM    2  N   UNK N   1      28.967  22.327  -5.963  0.00  0.00    -0.382 N 
HETATM    3  C   UNK N   1      27.823  23.197  -6.048  0.00  0.00     0.150 C 
HETATM    4  C   UNK N   1      29.798  22.213  -4.856  0.00  0.00     0.043 A 
HETATM    5  C   UNK N   1      29.682  22.881  -3.695  0.00  0.00     0.089 A 
HETATM    6  C   UNK N   1      30.681  22.609  -2.636  0.00  0.00     0.223 A 
HETATM    7  O   UNK N   1      30.617  23.190  -1.564  0.00  0.00    -0.284 OA
HETATM    8  C   UNK N   1      31.756  21.617  -2.909  0.00  0.00     0.222 A 
HETATM    9  O   UNK N   1      32.602  21.360  -2.066  0.00  0.00    -0.284 OA
HETATM   10  C   UNK N   1      31.784  20.941  -4.230  0.00  0.00     0.071 A 
HETATM   11  C   UNK N   1      30.833  21.255  -5.126  0.00  0.00     0.003 A 
HETATM   12  C   UNK N   1      30.665  20.701  -6.515  0.00  0.00     0.171 A 
ENDROOT
BRANCH  12  13
HETATM   13  O   UNK N   1      31.618  19.755  -6.894  0.00  0.00    -0.389 OA
HETATM   14  H   UNK N   1      31.356  18.994  -7.435  0.00  0.00     0.210 HD
ENDBRANCH  12  13
TORSDOF 1
ENDMDL
MODEL 6
REMARK VINA RESULT:      -5.1      1.782      2.926
REMARK  1 active torsions:
REMARK  status: ('A' for Active; 'I' for Inactive)
REMARK    1  A    between atoms: C_12  and  O_13 
ROOT
HETATM    1  C   UNK N   1      32.692  14.302   6.268  0.00  0.00     0.159 A 
HETATM    2  N   UNK N   1      33.289  14.231   7.584  0.00  0.00    -0.382 N 
HETATM    3  C   UNK N   1      33.336  13.029   8.374  0.00  0.00     0.150 C 
HETATM    4  C   UNK N   1      33.803  15.461   7.977  0.00  0.00     0.043 A 
HETATM    5  C   UNK N   1      34.421  15.736   9.138  0.00  0.00     0.089 A 
HETATM    6  C   UNK N   1      34.897  17.120   9.360  0.00  0.00     0.223 A 
HETATM    7  O   UNK N   1      35.464  17.420  10.399  0.00  0.00    -0.284 OA
HETATM    8  C   UNK N   1      34.668  18.132   8.292  0.00  0.00     0.222 A 
HETATM    9  O   UNK N   1      35.042  19.286   8.429  0.00  0.00    -0.284 OA
HETATM   10  C   UNK N   1      33.973  17.711   7.050  0.00  0.00     0.071 A 
HETATM   11  C   UNK N   1      33.579  16.431   6.942  0.00  0.00     0.003 A 
HETATM   12  C   UNK N   1      32.865  15.787   5.786  0.00  0.00     0.171 A 
ENDROOT
BRANCH  12  13
HETATM   13  O   UNK N   1      32.590  16.635   4.713  0.00  0.00    -0.389 OA
HETATM   14  H   UNK N   1      33.315  16.970   4.161  0.00  0.00     0.210 HD
ENDBRANCH  12  13
TORSDOF 1
ENDMDL
MODEL 7
REMARK VINA RESULT:      -5.0     12.485     14.329
REMARK  1 active torsions:
REMARK  status: ('A' for Active; 'I' for Inactive)
REMARK    1  A    between atoms: C_12  and  O_13 
ROOT
HETATM    1  C   UNK N   1      29.334  21.734  -7.013  0.00  0.00     0.159 A 
HETATM    2  N   UNK N   1      30.503  21.128  -6.413  0.00  0.00    -0.382 N 
HETATM    3  C   UNK N   1      31.369  20.211  -7.107  0.00  0.00     0.150 C 
HETATM    4  C   UNK N   1      30.675  21.543  -5.098  0.00  0.00     0.043 A 
HETATM    5  C   UNK N   1      31.659  21.169  -4.263  0.00  0.00     0.089 A 
HETATM    6  C   UNK N   1      31.657  21.733  -2.893  0.00  0.00     0.223 A 
HETATM    7  O   UNK N   1      32.530  21.424  -2.097  0.00  0.00    -0.284 OA
HETATM    8  C   UNK N   1      30.573  22.679  -2.514  0.00  0.00     0.222 A 
HETATM    9  O   UNK N   1      30.530  23.170  -1.396  0.00  0.00    -0.284 OA
HETATM   10  C   UNK N   1      29.539  23.019  -3.522  0.00  0.00     0.071 A 
HETATM   11  C   UNK N   1      29.626  22.456  -4.739  0.00  0.00     0.003 A 
HETATM   12  C   UNK N   1      28.699  22.652  -5.907  0.00  0.00     0.171 A 
ENDROOT
BRANCH  12  13
HETATM   13  O   UNK N   1      27.633  23.523  -5.678  0.00  0.00    -0.389 OA
HETATM   14  H   UNK N   1      27.719  24.463  -5.903  0.00  0.00     0.210 HD
ENDBRANCH  12  13
TORSDOF 1
ENDMDL
MODEL 8
REMARK VINA RESULT:      -5.0      3.145      3.896
REMARK  1 active torsions:
REMARK  status: ('A' for Active; 'I' for Inactive)
REMARK    1  A    between atoms: C_12  and  O_13 
ROOT
HETATM    1  C   UNK N   1      28.560  16.986   6.937  0.00  0.00     0.159 A 
HETATM    2  N   UNK N   1      29.351  17.387   8.080  0.00  0.00    -0.382 N 
HETATM    3  C   UNK N   1      28.796  17.639   9.385  0.00  0.00     0.150 C 
HETATM    4  C   UNK N   1      30.698  17.496   7.756  0.00  0.00     0.043 A 
HETATM    5  C   UNK N   1      31.695  17.848   8.585  0.00  0.00     0.089 A 
HETATM    6  C   UNK N   1      33.068  17.903   8.033  0.00  0.00     0.223 A 
HETATM    7  O   UNK N   1      34.008  18.217   8.747  0.00  0.00    -0.284 OA
HETATM    8  C   UNK N   1      33.273  17.568   6.598  0.00  0.00     0.222 A 
HETATM    9  O   UNK N   1      34.387  17.600   6.098  0.00  0.00    -0.284 OA
HETATM   10  C   UNK N   1      32.094  17.194   5.778  0.00  0.00     0.071 A 
HETATM   11  C   UNK N   1      30.888  17.172   6.370  0.00  0.00     0.003 A 
HETATM   12  C   UNK N   1      29.566  16.826   5.741  0.00  0.00     0.171 A 
ENDROOT
BRANCH  12  13
HETATM   13  O   UNK N   1      29.623  16.491   4.388  0.00  0.00    -0.389 OA
HETATM   14  H   UNK N   1      29.028  16.924   3.756  0.00  0.00     0.210 HD
ENDBRANCH  12  13
TORSDOF 1
ENDMDL
MODEL 9
REMARK VINA RESULT:      -5.0      2.928      4.165
REMARK  1 active torsions:
REMARK  status: ('A' for Active; 'I' for Inactive)
REMARK    1  A    between atoms: C_12  and  O_13 
ROOT
HETATM    1  C   UNK N   1      29.650  16.515   3.762  0.00  0.00     0.159 A 
HETATM    2  N   UNK N   1      29.571  16.523   5.206  0.00  0.00    -0.382 N 
HETATM    3  C   UNK N   1      28.375  16.204   5.942  0.00  0.00     0.150 C 
HETATM    4  C   UNK N   1      30.786  16.877   5.781  0.00  0.00     0.043 A 
HETATM    5  C   UNK N   1      31.051  16.979   7.095  0.00  0.00     0.089 A 
HETATM    6  C   UNK N   1      32.421  17.372   7.497  0.00  0.00     0.223 A 
HETATM    7  O   UNK N   1      32.710  17.478   8.679  0.00  0.00    -0.284 OA
HETATM    8  C   UNK N   1      33.429  17.632   6.434  0.00  0.00     0.222 A 
HETATM    9  O   UNK N   1      34.571  17.958   6.716  0.00  0.00    -0.284 OA
HETATM   10  C   UNK N   1      33.020  17.487   5.014  0.00  0.00     0.071 A 
HETATM   11  C   UNK N   1      31.754  17.126   4.750  0.00  0.00     0.003 A 
HETATM   12  C   UNK N   1      31.123  16.920   3.399  0.00  0.00     0.171 A 
ENDROOT
BRANCH  12  13
HETATM   13  O   UNK N   1      31.970  17.134   2.311  0.00  0.00    -0.389 OA
HETATM   14  H   UNK N   1      32.664  17.810   2.363  0.00  0.00     0.210 HD
ENDBRANCH  12  13
TORSDOF 1
ENDMDL
