REMARK  1 active torsions:
REMARK  status: ('A' for Active; 'I' for Inactive)
REMARK    1  A    between atoms: C_12  and  O_13 
ROOT
HETATM    1  C   UNK N   1      -2.530  -0.128   0.000  0.00  0.00     0.159 A 
HETATM    2  N   UNK N   1      -1.555  -1.197   0.000  0.00  0.00    -0.382 N 
HETATM    3  C   UNK N   1      -1.904  -2.594   0.000  0.00  0.00     0.150 C 
HETATM    4  C   UNK N   1      -0.256  -0.703  -0.000  0.00  0.00     0.043 A 
HETATM    5  C   UNK N   1       0.876  -1.427   0.000  0.00  0.00     0.089 A 
HETATM    6  C   UNK N   1       2.165  -0.698  -0.000  0.00  0.00     0.223 A 
HETATM    7  O   UNK N   1       3.221  -1.311  -0.000  0.00  0.00    -0.284 OA
HETATM    8  C   UNK N   1       2.142   0.790   0.000  0.00  0.00     0.222 A 
HETATM    9  O   UNK N   1       3.179   1.435   0.000  0.00  0.00    -0.284 OA
HETATM   10  C   UNK N   1       0.829   1.482  -0.000  0.00  0.00     0.071 A 
HETATM   11  C   UNK N   1      -0.286   0.733  -0.000  0.00  0.00     0.003 A 
HETATM   12  C   UNK N   1      -1.712   1.213  -0.000  0.00  0.00     0.171 A 
ENDROOT
BRANCH  12  13
HETATM   13  O   UNK N   1      -1.870   2.599   0.000  0.00  0.00    -0.389 OA
HETATM   14  H   UNK N   1      -1.090   3.176   0.000  0.00  0.00     0.210 HD
ENDBRANCH  12  13
TORSDOF 1
