MODEL 1
REMARK VINA RESULT:      -8.3      0.000      0.000
REMARK  4 active torsions:
REMARK  status: ('A' for Active; 'I' for Inactive)
REMARK    1  A    between atoms: C_6  and  N_7 
REMARK    2  A    between atoms: N_7  and  C_8 
REMARK       I    between atoms: C_19  and  N_20 
REMARK    3  A    between atoms: N_20  and  C_21 
REMARK    4  A    between atoms: C_26  and  N_27 
ROOT
HETATM    1  C   UNK N   1      36.383  14.068  12.800  0.00  0.00     0.148 A 
HETATM    2  N   UNK N   1      35.699  15.212  12.469  0.00  0.00    -0.174 N 
ATOM      3  HN  UNK N   1      35.145  15.695  13.177  1.00  0.00     0.186 HD
HETATM    4  C   UNK N   1      37.107  13.422  11.801  0.00  0.00     0.123 A 
HETATM    5  N   UNK N   1      37.802  12.276  11.833  0.00  0.00    -0.346 N 
ATOM      6  HN  UNK N   1      37.941  11.650  12.626  1.00  0.00     0.167 HD
HETATM    7  C   UNK N   1      38.281  12.140  10.566  0.00  0.00     0.182 A 
HETATM    8  N   UNK N   1      37.896  13.166   9.764  0.00  0.00    -0.336 N 
HETATM    9  C   UNK N   1      37.167  13.943  10.573  0.00  0.00     0.152 A 
HETATM   10  N   UNK N   1      36.518  15.066  10.241  0.00  0.00    -0.174 N 
ATOM     11  HN  UNK N   1      36.589  15.443   9.296  1.00  0.00     0.186 HD
HETATM   12  C   UNK N   1      35.758  15.707  11.189  0.00  0.00     0.686 A 
HETATM   13  N   UNK N   1      34.895  16.756  10.764  0.00  0.00    -0.192 N 
HETATM   14  H   UNK N   1      38.104  13.305   8.812  0.00  0.00     0.168 HD
HETATM   15  H   UNK N   1      34.626  17.490  11.362  0.00  0.00     0.184 HD
ENDROOT
BRANCH  13  16
HETATM   16  C   UNK N   1      34.449  16.674   9.418  0.00  0.00     0.049 A 
HETATM   17  C   UNK N   1      33.659  15.605   8.982  0.00  0.00     0.032 A 
HETATM   18  C   UNK N   1      32.920  15.733   7.790  0.00  0.00     0.031 A 
HETATM   19  C   UNK N   1      32.951  16.943   7.060  0.00  0.00     0.030 A 
HETATM   20  C   UNK N   1      33.810  17.962   7.471  0.00  0.00     0.031 A 
HETATM   21  C   UNK N   1      34.549  17.826   8.625  0.00  0.00     0.032 A 
BRANCH  19  22
HETATM   22  N   UNK N   1      32.077  17.178   5.959  0.00  0.00    -0.377 N 
HETATM   23  C   UNK N   1      32.611  17.434   4.629  0.00  0.00     0.149 C 
HETATM   24  C   UNK N   1      31.674  16.889   3.542  0.00  0.00     0.187 C 
HETATM   25  O   UNK N   1      30.345  17.245   3.819  0.00  0.00    -0.388 OA
HETATM   26  C   UNK N   1      29.982  16.459   4.919  0.00  0.00     0.187 C 
HETATM   27  C   UNK N   1      30.637  17.057   6.157  0.00  0.00     0.149 C 
ENDBRANCH  19  22
ENDBRANCH  13  16
BRANCH   1  28
HETATM   28  N   UNK N   1      36.301  13.527  14.101  0.00  0.00    -0.369 N 
HETATM   29  H   UNK N   1      37.129  13.387  14.617  0.00  0.00     0.161 HD
BRANCH  28  30
HETATM   30  C   UNK N   1      35.033  13.176  14.694  0.00  0.00     0.083 C 
HETATM   31  C   UNK N   1      35.151  12.942  16.210  0.00  0.00     0.025 C 
HETATM   32  C   UNK N   1      35.851  11.618  16.526  0.00  0.00     0.002 C 
HETATM   33  C   UNK N   1      35.261  10.426  15.763  0.00  0.00     0.000 C 
HETATM   34  C   UNK N   1      34.077  10.807  14.875  0.00  0.00     0.002 C 
HETATM   35  C   UNK N   1      34.457  11.962  13.949  0.00  0.00     0.025 C 
ENDBRANCH  28  30
ENDBRANCH   1  28
TORSDOF 4
ENDMDL
MODEL 2
REMARK VINA RESULT:      -8.1      1.213      1.679
REMARK  4 active torsions:
REMARK  status: ('A' for Active; 'I' for Inactive)
REMARK    1  A    between atoms: C_6  and  N_7 
REMARK    2  A    between atoms: N_7  and  C_8 
REMARK       I    between atoms: C_19  and  N_20 
REMARK    3  A    between atoms: N_20  and  C_21 
REMARK    4  A    between atoms: C_26  and  N_27 
ROOT
HETATM    1  C   UNK N   1      36.570  13.995  12.364  0.00  0.00     0.148 A 
HETATM    2  N   UNK N   1      35.845  15.150  12.201  0.00  0.00    -0.174 N 
ATOM      3  HN  UNK N   1      35.357  15.560  12.998  1.00  0.00     0.186 HD
HETATM    4  C   UNK N   1      37.201  13.451  11.248  0.00  0.00     0.123 A 
HETATM    5  N   UNK N   1      37.907  12.320  11.113  0.00  0.00    -0.346 N 
ATOM      6  HN  UNK N   1      38.129  11.631  11.832  1.00  0.00     0.167 HD
HETATM    7  C   UNK N   1      38.264  12.302   9.799  0.00  0.00     0.182 A 
HETATM    8  N   UNK N   1      37.793  13.386   9.131  0.00  0.00    -0.336 N 
HETATM    9  C   UNK N   1      37.137  14.077  10.070  0.00  0.00     0.152 A 
HETATM   10  N   UNK N   1      36.447  15.212   9.901  0.00  0.00    -0.174 N 
ATOM     11  HN  UNK N   1      36.423  15.670   8.990  1.00  0.00     0.186 HD
HETATM   12  C   UNK N   1      35.775  15.755  10.969  0.00  0.00     0.686 A 
HETATM   13  N   UNK N   1      34.864  16.820  10.722  0.00  0.00    -0.192 N 
HETATM   14  H   UNK N   1      37.907  13.611   8.179  0.00  0.00     0.168 HD
HETATM   15  H   UNK N   1      34.646  17.494  11.405  0.00  0.00     0.184 HD
ENDROOT
BRANCH  13  16
HETATM   16  C   UNK N   1      34.292  16.846   9.422  0.00  0.00     0.049 A 
HETATM   17  C   UNK N   1      34.482  17.938   8.569  0.00  0.00     0.032 A 
HETATM   18  C   UNK N   1      34.250  17.787   7.189  0.00  0.00     0.031 A 
HETATM   19  C   UNK N   1      33.861  16.532   6.666  0.00  0.00     0.030 A 
HETATM   20  C   UNK N   1      33.598  15.483   7.546  0.00  0.00     0.031 A 
HETATM   21  C   UNK N   1      33.804  15.639   8.899  0.00  0.00     0.032 A 
BRANCH  19  22
HETATM   22  N   UNK N   1      33.799  16.289   5.264  0.00  0.00    -0.377 N 
HETATM   23  C   UNK N   1      34.274  15.031   4.706  0.00  0.00     0.149 C 
HETATM   24  C   UNK N   1      33.462  14.633   3.466  0.00  0.00     0.187 C 
HETATM   25  O   UNK N   1      33.303  15.736   2.612  0.00  0.00    -0.388 OA
HETATM   26  C   UNK N   1      32.403  16.579   3.274  0.00  0.00     0.187 C 
HETATM   27  C   UNK N   1      33.157  17.275   4.400  0.00  0.00     0.149 C 
ENDBRANCH  19  22
ENDBRANCH  13  16
BRANCH   1  28
HETATM   28  N   UNK N   1      36.620  13.343  13.615  0.00  0.00    -0.369 N 
HETATM   29  H   UNK N   1      37.485  13.010  13.950  0.00  0.00     0.161 HD
BRANCH  28  30
HETATM   30  C   UNK N   1      35.433  13.153  14.415  0.00  0.00     0.083 C 
HETATM   31  C   UNK N   1      35.772  12.826  15.879  0.00  0.00     0.025 C 
HETATM   32  C   UNK N   1      36.302  11.399  16.033  0.00  0.00     0.002 C 
HETATM   33  C   UNK N   1      35.413  10.348  15.358  0.00  0.00     0.000 C 
HETATM   34  C   UNK N   1      34.167  10.945  14.703  0.00  0.00     0.002 C 
HETATM   35  C   UNK N   1      34.557  12.078  13.753  0.00  0.00     0.025 C 
ENDBRANCH  28  30
ENDBRANCH   1  28
TORSDOF 4
ENDMDL
MODEL 3
REMARK VINA RESULT:      -8.0      6.173     10.310
REMARK  4 active torsions:
REMARK  status: ('A' for Active; 'I' for Inactive)
REMARK    1  A    between atoms: C_6  and  N_7 
REMARK    2  A    between atoms: N_7  and  C_8 
REMARK       I    between atoms: C_19  and  N_20 
REMARK    3  A    between atoms: N_20  and  C_21 
REMARK    4  A    between atoms: C_26  and  N_27 
ROOT
HETATM    1  C   UNK N   1      30.362  17.009   5.584  0.00  0.00     0.148 A 
HETATM    2  N   UNK N   1      29.576  18.128   5.714  0.00  0.00    -0.174 N 
ATOM      3  HN  UNK N   1      29.668  18.720   6.540  1.00  0.00     0.186 HD
HETATM    4  C   UNK N   1      30.191  16.212   4.455  0.00  0.00     0.123 A 
HETATM    5  N   UNK N   1      30.769  15.052   4.113  0.00  0.00    -0.346 N 
ATOM      6  HN  UNK N   1      31.474  14.528   4.631  1.00  0.00     0.167 HD
HETATM    7  C   UNK N   1      30.203  14.736   2.916  0.00  0.00     0.182 A 
HETATM    8  N   UNK N   1      29.296  15.666   2.521  0.00  0.00    -0.336 N 
HETATM    9  C   UNK N   1      29.319  16.569   3.509  0.00  0.00     0.152 A 
HETATM   10  N   UNK N   1      28.559  17.666   3.614  0.00  0.00    -0.174 N 
ATOM     11  HN  UNK N   1      27.906  17.916   2.871  1.00  0.00     0.186 HD
HETATM   12  C   UNK N   1      28.668  18.453   4.735  0.00  0.00     0.686 A 
HETATM   13  N   UNK N   1      27.698  19.473   4.940  0.00  0.00    -0.192 N 
HETATM   14  H   UNK N   1      28.749  15.674   1.703  0.00  0.00     0.168 HD
HETATM   15  H   UNK N   1      27.892  20.288   5.457  0.00  0.00     0.184 HD
ENDROOT
BRANCH  13  16
HETATM   16  C   UNK N   1      26.429  19.238   4.346  0.00  0.00     0.049 A 
HETATM   17  C   UNK N   1      25.539  18.303   4.888  0.00  0.00     0.032 A 
HETATM   18  C   UNK N   1      24.177  18.361   4.537  0.00  0.00     0.031 A 
HETATM   19  C   UNK N   1      23.708  19.376   3.673  0.00  0.00     0.030 A 
HETATM   20  C   UNK N   1      24.626  20.244   3.083  0.00  0.00     0.031 A 
HETATM   21  C   UNK N   1      25.963  20.171   3.410  0.00  0.00     0.032 A 
BRANCH  19  22
HETATM   22  N   UNK N   1      22.316  19.584   3.444  0.00  0.00    -0.377 N 
HETATM   23  C   UNK N   1      21.861  20.614   2.521  0.00  0.00     0.149 C 
HETATM   24  C   UNK N   1      20.557  20.198   1.826  0.00  0.00     0.187 C 
HETATM   25  O   UNK N   1      19.650  19.677   2.762  0.00  0.00    -0.388 OA
HETATM   26  C   UNK N   1      20.180  18.433   3.126  0.00  0.00     0.187 C 
HETATM   27  C   UNK N   1      21.352  18.682   4.065  0.00  0.00     0.149 C 
ENDBRANCH  19  22
ENDBRANCH  13  16
BRANCH   1  28
HETATM   28  N   UNK N   1      31.272  16.643   6.599  0.00  0.00    -0.369 N 
HETATM   29  H   UNK N   1      31.124  15.807   7.099  0.00  0.00     0.161 HD
BRANCH  28  30
HETATM   30  C   UNK N   1      32.415  17.464   6.921  0.00  0.00     0.083 C 
HETATM   31  C   UNK N   1      33.471  17.444   5.802  0.00  0.00     0.025 C 
HETATM   32  C   UNK N   1      34.230  16.116   5.764  0.00  0.00     0.002 C 
HETATM   33  C   UNK N   1      34.775  15.692   7.132  0.00  0.00     0.000 C 
HETATM   34  C   UNK N   1      34.474  16.702   8.239  0.00  0.00     0.002 C 
HETATM   35  C   UNK N   1      32.979  17.018   8.278  0.00  0.00     0.025 C 
ENDBRANCH  28  30
ENDBRANCH   1  28
TORSDOF 4
ENDMDL
MODEL 4
REMARK VINA RESULT:      -7.9      1.830      3.068
REMARK  4 active torsions:
REMARK  status: ('A' for Active; 'I' for Inactive)
REMARK    1  A    between atoms: C_6  and  N_7 
REMARK    2  A    between atoms: N_7  and  C_8 
REMARK       I    between atoms: C_19  and  N_20 
REMARK    3  A    between atoms: N_20  and  C_21 
REMARK    4  A    between atoms: C_26  and  N_27 
ROOT
HETATM    1  C   UNK N   1      35.080  12.712  14.225  0.00  0.00     0.148 A 
HETATM    2  N   UNK N   1      35.813  13.787  13.787  0.00  0.00    -0.174 N 
ATOM      3  HN  UNK N   1      36.160  14.473  14.459  1.00  0.00     0.186 HD
HETATM    4  C   UNK N   1      34.602  11.811  13.276  0.00  0.00     0.123 A 
HETATM    5  N   UNK N   1      33.822  10.731  13.418  0.00  0.00    -0.346 N 
ATOM      6  HN  UNK N   1      33.431  10.350  14.279  1.00  0.00     0.167 HD
HETATM    7  C   UNK N   1      33.674  10.256  12.151  0.00  0.00     0.182 A 
HETATM    8  N   UNK N   1      34.337  11.017  11.242  0.00  0.00    -0.336 N 
HETATM    9  C   UNK N   1      34.903  11.975  11.986  0.00  0.00     0.152 A 
HETATM   10  N   UNK N   1      35.631  13.010  11.547  0.00  0.00    -0.174 N 
ATOM     11  HN  UNK N   1      35.849  13.103  10.555  1.00  0.00     0.186 HD
HETATM   12  C   UNK N   1      36.082  13.943  12.449  0.00  0.00     0.686 A 
HETATM   13  N   UNK N   1      36.647  15.148  11.945  0.00  0.00    -0.192 N 
HETATM   14  H   UNK N   1      34.390  10.893  10.267  0.00  0.00     0.168 HD
HETATM   15  H   UNK N   1      37.312  15.668  12.451  0.00  0.00     0.184 HD
ENDROOT
BRANCH  13  16
HETATM   16  C   UNK N   1      36.189  15.549  10.662  0.00  0.00     0.049 A 
HETATM   17  C   UNK N   1      36.337  14.716   9.548  0.00  0.00     0.032 A 
HETATM   18  C   UNK N   1      35.552  14.948   8.402  0.00  0.00     0.031 A 
HETATM   19  C   UNK N   1      34.600  15.992   8.391  0.00  0.00     0.030 A 
HETATM   20  C   UNK N   1      34.530  16.858   9.482  0.00  0.00     0.031 A 
HETATM   21  C   UNK N   1      35.315  16.643  10.594  0.00  0.00     0.032 A 
BRANCH  19  22
HETATM   22  N   UNK N   1      33.660  16.141   7.330  0.00  0.00    -0.377 N 
HETATM   23  C   UNK N   1      32.229  16.128   7.597  0.00  0.00     0.149 C 
HETATM   24  C   UNK N   1      31.474  17.034   6.616  0.00  0.00     0.187 C 
HETATM   25  O   UNK N   1      31.920  16.812   5.303  0.00  0.00    -0.388 OA
HETATM   26  C   UNK N   1      33.205  17.366   5.260  0.00  0.00     0.187 C 
HETATM   27  C   UNK N   1      34.149  16.413   5.983  0.00  0.00     0.149 C 
ENDBRANCH  19  22
ENDBRANCH  13  16
BRANCH   1  28
HETATM   28  N   UNK N   1      34.764  12.560  15.592  0.00  0.00    -0.369 N 
HETATM   29  H   UNK N   1      33.831  12.675  15.886  0.00  0.00     0.161 HD
BRANCH  28  30
HETATM   30  C   UNK N   1      35.777  12.240  16.570  0.00  0.00     0.083 C 
HETATM   31  C   UNK N   1      36.327  10.816  16.383  0.00  0.00     0.025 C 
HETATM   32  C   UNK N   1      35.321   9.757  16.839  0.00  0.00     0.002 C 
HETATM   33  C   UNK N   1      34.758  10.021  18.240  0.00  0.00     0.000 C 
HETATM   34  C   UNK N   1      35.346  11.268  18.899  0.00  0.00     0.002 C 
HETATM   35  C   UNK N   1      35.202  12.477  17.974  0.00  0.00     0.025 C 
ENDBRANCH  28  30
ENDBRANCH   1  28
TORSDOF 4
ENDMDL
MODEL 5
REMARK VINA RESULT:      -7.8      1.234      1.638
REMARK  4 active torsions:
REMARK  status: ('A' for Active; 'I' for Inactive)
REMARK    1  A    between atoms: C_6  and  N_7 
REMARK    2  A    between atoms: N_7  and  C_8 
REMARK       I    between atoms: C_19  and  N_20 
REMARK    3  A    between atoms: N_20  and  C_21 
REMARK    4  A    between atoms: C_26  and  N_27 
ROOT
HETATM    1  C   UNK N   1      36.778  13.137  13.343  0.00  0.00     0.148 A 
HETATM    2  N   UNK N   1      36.254  14.386  13.117  0.00  0.00    -0.174 N 
ATOM      3  HN  UNK N   1      35.939  14.955  13.904  1.00  0.00     0.186 HD
HETATM    4  C   UNK N   1      37.175  12.381  12.243  0.00  0.00     0.123 A 
HETATM    5  N   UNK N   1      37.652  11.130  12.174  0.00  0.00    -0.346 N 
ATOM      6  HN  UNK N   1      37.827  10.484  12.943  1.00  0.00     0.167 HD
HETATM    7  C   UNK N   1      37.850  10.920  10.844  0.00  0.00     0.182 A 
HETATM    8  N   UNK N   1      37.507  12.005  10.102  0.00  0.00    -0.336 N 
HETATM    9  C   UNK N   1      37.092  12.892  11.013  0.00  0.00     0.152 A 
HETATM   10  N   UNK N   1      36.598  14.115  10.779  0.00  0.00    -0.174 N 
ATOM     11  HN  UNK N   1      36.553  14.480   9.828  1.00  0.00     0.186 HD
HETATM   12  C   UNK N   1      36.155  14.873  11.836  0.00  0.00     0.686 A 
HETATM   13  N   UNK N   1      35.425  16.061  11.553  0.00  0.00    -0.192 N 
HETATM   14  H   UNK N   1      37.551  12.112   9.124  0.00  0.00     0.168 HD
HETATM   15  H   UNK N   1      35.406  16.827  12.172  0.00  0.00     0.184 HD
ENDROOT
BRANCH  13  16
HETATM   16  C   UNK N   1      34.724  16.069  10.317  0.00  0.00     0.049 A 
HETATM   17  C   UNK N   1      33.659  15.193  10.085  0.00  0.00     0.032 A 
HETATM   18  C   UNK N   1      32.751  15.469   9.045  0.00  0.00     0.031 A 
HETATM   19  C   UNK N   1      32.896  16.640   8.266  0.00  0.00     0.030 A 
HETATM   20  C   UNK N   1      34.012  17.453   8.464  0.00  0.00     0.031 A 
HETATM   21  C   UNK N   1      34.912  17.168   9.468  0.00  0.00     0.032 A 
BRANCH  19  22
HETATM   22  N   UNK N   1      31.898  17.052   7.335  0.00  0.00    -0.377 N 
HETATM   23  C   UNK N   1      32.209  17.172   5.918  0.00  0.00     0.149 C 
HETATM   24  C   UNK N   1      30.988  16.836   5.052  0.00  0.00     0.187 C 
HETATM   25  O   UNK N   1      29.843  17.478   5.552  0.00  0.00    -0.388 OA
HETATM   26  C   UNK N   1      29.538  16.800   6.739  0.00  0.00     0.187 C 
HETATM   27  C   UNK N   1      30.530  17.251   7.802  0.00  0.00     0.149 C 
ENDBRANCH  19  22
ENDBRANCH  13  16
BRANCH   1  28
HETATM   28  N   UNK N   1      36.851  12.610  14.651  0.00  0.00    -0.369 N 
HETATM   29  H   UNK N   1      37.608  12.863  15.230  0.00  0.00     0.161 HD
BRANCH  28  30
HETATM   30  C   UNK N   1      35.844  11.710  15.159  0.00  0.00     0.083 C 
HETATM   31  C   UNK N   1      34.546  12.449  15.528  0.00  0.00     0.025 C 
HETATM   32  C   UNK N   1      34.703  13.261  16.815  0.00  0.00     0.002 C 
HETATM   33  C   UNK N   1      35.300  12.451  17.972  0.00  0.00     0.000 C 
HETATM   34  C   UNK N   1      35.581  10.994  17.604  0.00  0.00     0.002 C 
HETATM   35  C   UNK N   1      36.434  10.920  16.337  0.00  0.00     0.025 C 
ENDBRANCH  28  30
ENDBRANCH   1  28
TORSDOF 4
ENDMDL
MODEL 6
REMARK VINA RESULT:      -7.8      1.821      2.549
REMARK  4 active torsions:
REMARK  status: ('A' for Active; 'I' for Inactive)
REMARK    1  A    between atoms: C_6  and  N_7 
REMARK    2  A    between atoms: N_7  and  C_8 
REMARK       I    between atoms: C_19  and  N_20 
REMARK    3  A    between atoms: N_20  and  C_21 
REMARK    4  A    between atoms: C_26  and  N_27 
ROOT
HETATM    1  C   UNK N   1      34.848  14.359  11.263  0.00  0.00     0.148 A 
HETATM    2  N   UNK N   1      34.708  15.699  11.000  0.00  0.00    -0.174 N 
ATOM      3  HN  UNK N   1      34.692  16.369  11.769  1.00  0.00     0.186 HD
HETATM    4  C   UNK N   1      34.840  13.472  10.189  0.00  0.00     0.123 A 
HETATM    5  N   UNK N   1      34.894  12.133  10.166  0.00  0.00    -0.346 N 
ATOM      6  HN  UNK N   1      34.965  11.496  10.959  1.00  0.00     0.167 HD
HETATM    7  C   UNK N   1      34.836  11.819   8.843  0.00  0.00     0.182 A 
HETATM    8  N   UNK N   1      34.745  12.925   8.061  0.00  0.00    -0.336 N 
HETATM    9  C   UNK N   1      34.751  13.934   8.940  0.00  0.00     0.152 A 
HETATM   10  N   UNK N   1      34.631  15.240   8.667  0.00  0.00    -0.174 N 
ATOM     11  HN  UNK N   1      34.571  15.562   7.701  1.00  0.00     0.186 HD
HETATM   12  C   UNK N   1      34.590  16.141   9.704  0.00  0.00     0.686 A 
HETATM   13  N   UNK N   1      34.229  17.486   9.413  0.00  0.00    -0.192 N 
HETATM   14  H   UNK N   1      34.687  12.974   7.080  0.00  0.00     0.168 HD
HETATM   15  H   UNK N   1      34.531  18.242   9.966  0.00  0.00     0.184 HD
ENDROOT
BRANCH  13  16
HETATM   16  C   UNK N   1      33.404  17.665   8.271  0.00  0.00     0.049 A 
HETATM   17  C   UNK N   1      33.952  17.727   6.985  0.00  0.00     0.032 A 
HETATM   18  C   UNK N   1      33.122  17.515   5.868  0.00  0.00     0.031 A 
HETATM   19  C   UNK N   1      31.754  17.208   6.047  0.00  0.00     0.030 A 
HETATM   20  C   UNK N   1      31.215  17.233   7.333  0.00  0.00     0.031 A 
HETATM   21  C   UNK N   1      32.025  17.463   8.423  0.00  0.00     0.032 A 
BRANCH  19  22
HETATM   22  N   UNK N   1      30.927  16.802   4.959  0.00  0.00    -0.377 N 
HETATM   23  C   UNK N   1      31.515  16.342   3.710  0.00  0.00     0.149 C 
HETATM   24  C   UNK N   1      30.634  15.278   3.042  0.00  0.00     0.187 C 
HETATM   25  O   UNK N   1      29.289  15.681   3.050  0.00  0.00    -0.388 OA
HETATM   26  C   UNK N   1      28.888  15.575   4.387  0.00  0.00     0.187 C 
HETATM   27  C   UNK N   1      29.481  16.754   5.148  0.00  0.00     0.149 C 
ENDBRANCH  19  22
ENDBRANCH  13  16
BRANCH   1  28
HETATM   28  N   UNK N   1      34.932  13.888  12.592  0.00  0.00    -0.369 N 
HETATM   29  H   UNK N   1      34.103  13.755  13.108  0.00  0.00     0.161 HD
BRANCH  28  30
HETATM   30  C   UNK N   1      36.203  13.596  13.210  0.00  0.00     0.083 C 
HETATM   31  C   UNK N   1      36.214  12.209  13.876  0.00  0.00     0.025 C 
HETATM   32  C   UNK N   1      35.397  12.196  15.169  0.00  0.00     0.002 C 
HETATM   33  C   UNK N   1      35.758  13.340  16.124  0.00  0.00     0.000 C 
HETATM   34  C   UNK N   1      36.881  14.232  15.596  0.00  0.00     0.002 C 
HETATM   35  C   UNK N   1      36.549  14.728  14.189  0.00  0.00     0.025 C 
ENDBRANCH  28  30
ENDBRANCH   1  28
TORSDOF 4
ENDMDL
MODEL 7
REMARK VINA RESULT:      -7.7      3.342      9.685
REMARK  4 active torsions:
REMARK  status: ('A' for Active; 'I' for Inactive)
REMARK    1  A    between atoms: C_6  and  N_7 
REMARK    2  A    between atoms: N_7  and  C_8 
REMARK       I    between atoms: C_19  and  N_20 
REMARK    3  A    between atoms: N_20  and  C_21 
REMARK    4  A    between atoms: C_26  and  N_27 
ROOT
HETATM    1  C   UNK N   1      30.818  17.233   6.594  0.00  0.00     0.148 A 
HETATM    2  N   UNK N   1      32.163  16.994   6.734  0.00  0.00    -0.174 N 
ATOM      3  HN  UNK N   1      32.721  16.734   5.920  1.00  0.00     0.186 HD
HETATM    4  C   UNK N   1      30.085  17.563   7.732  0.00  0.00     0.123 A 
HETATM    5  N   UNK N   1      28.773  17.780   7.888  0.00  0.00    -0.346 N 
ATOM      6  HN  UNK N   1      28.045  17.754   7.175  1.00  0.00     0.167 HD
HETATM    7  C   UNK N   1      28.633  18.046   9.216  0.00  0.00     0.182 A 
HETATM    8  N   UNK N   1      29.821  17.994   9.872  0.00  0.00    -0.336 N 
HETATM    9  C   UNK N   1      30.700  17.691   8.910  0.00  0.00     0.152 A 
HETATM   10  N   UNK N   1      32.014  17.477   9.059  0.00  0.00    -0.174 N 
ATOM     11  HN  UNK N   1      32.455  17.589   9.972  1.00  0.00     0.186 HD
HETATM   12  C   UNK N   1      32.761  17.107   7.967  0.00  0.00     0.686 A 
HETATM   13  N   UNK N   1      34.094  16.659   8.183  0.00  0.00    -0.192 N 
HETATM   14  H   UNK N   1      29.994  18.144  10.830  0.00  0.00     0.168 HD
HETATM   15  H   UNK N   1      34.794  16.743   7.496  0.00  0.00     0.184 HD
ENDROOT
BRANCH  13  16
HETATM   16  C   UNK N   1      34.347  16.084   9.457  0.00  0.00     0.049 A 
HETATM   17  C   UNK N   1      33.945  14.777   9.753  0.00  0.00     0.032 A 
HETATM   18  C   UNK N   1      34.530  14.104  10.843  0.00  0.00     0.031 A 
HETATM   19  C   UNK N   1      35.539  14.732  11.609  0.00  0.00     0.030 A 
HETATM   20  C   UNK N   1      35.861  16.063  11.345  0.00  0.00     0.031 A 
HETATM   21  C   UNK N   1      35.272  16.728  10.292  0.00  0.00     0.032 A 
BRANCH  19  22
HETATM   22  N   UNK N   1      36.284  14.023  12.595  0.00  0.00    -0.377 N 
HETATM   23  C   UNK N   1      36.437  14.560  13.939  0.00  0.00     0.149 C 
HETATM   24  C   UNK N   1      36.522  13.435  14.979  0.00  0.00     0.187 C 
HETATM   25  O   UNK N   1      37.405  12.434  14.544  0.00  0.00    -0.388 OA
HETATM   26  C   UNK N   1      36.737  11.793  13.495  0.00  0.00     0.187 C 
HETATM   27  C   UNK N   1      36.807  12.699  12.273  0.00  0.00     0.149 C 
ENDBRANCH  19  22
ENDBRANCH  13  16
BRANCH   1  28
HETATM   28  N   UNK N   1      30.184  17.085   5.341  0.00  0.00    -0.369 N 
HETATM   29  H   UNK N   1      29.610  17.811   5.004  0.00  0.00     0.161 HD
BRANCH  28  30
HETATM   30  C   UNK N   1      30.360  15.895   4.543  0.00  0.00     0.083 C 
HETATM   31  C   UNK N   1      29.834  16.082   3.109  0.00  0.00     0.025 C 
HETATM   32  C   UNK N   1      28.304  16.085   3.064  0.00  0.00     0.002 C 
HETATM   33  C   UNK N   1      27.675  14.896   3.800  0.00  0.00     0.000 C 
HETATM   34  C   UNK N   1      28.710  13.942   4.396  0.00  0.00     0.002 C 
HETATM   35  C   UNK N   1      29.703  14.711   5.268  0.00  0.00     0.025 C 
ENDBRANCH  28  30
ENDBRANCH   1  28
TORSDOF 4
ENDMDL
MODEL 8
REMARK VINA RESULT:      -7.6      3.642     10.240
REMARK  4 active torsions:
REMARK  status: ('A' for Active; 'I' for Inactive)
REMARK    1  A    between atoms: C_6  and  N_7 
REMARK    2  A    between atoms: N_7  and  C_8 
REMARK       I    between atoms: C_19  and  N_20 
REMARK    3  A    between atoms: N_20  and  C_21 
REMARK    4  A    between atoms: C_26  and  N_27 
ROOT
HETATM    1  C   UNK N   1      29.037  17.407   6.087  0.00  0.00     0.148 A 
HETATM    2  N   UNK N   1      30.196  16.961   5.500  0.00  0.00    -0.174 N 
ATOM      3  HN  UNK N   1      30.203  16.717   4.509  1.00  0.00     0.186 HD
HETATM    4  C   UNK N   1      29.060  17.706   7.447  0.00  0.00     0.123 A 
HETATM    5  N   UNK N   1      28.075  18.092   8.269  0.00  0.00    -0.346 N 
ATOM      6  HN  UNK N   1      27.095  18.255   8.038  1.00  0.00     0.167 HD
HETATM    7  C   UNK N   1      28.681  18.221   9.481  0.00  0.00     0.182 A 
HETATM    8  N   UNK N   1      30.004  17.922   9.421  0.00  0.00    -0.336 N 
HETATM    9  C   UNK N   1      30.199  17.606   8.135  0.00  0.00     0.152 A 
HETATM   10  N   UNK N   1      31.340  17.189   7.573  0.00  0.00    -0.174 N 
ATOM     11  HN  UNK N   1      32.196  17.129   8.125  1.00  0.00     0.186 HD
HETATM   12  C   UNK N   1      31.346  16.842   6.244  0.00  0.00     0.686 A 
HETATM   13  N   UNK N   1      32.495  16.184   5.723  0.00  0.00    -0.192 N 
HETATM   14  H   UNK N   1      30.664  17.933  10.151  0.00  0.00     0.168 HD
HETATM   15  H   UNK N   1      32.751  16.243   4.775  0.00  0.00     0.184 HD
ENDROOT
BRANCH  13  16
HETATM   16  C   UNK N   1      33.250  15.435   6.666  0.00  0.00     0.049 A 
HETATM   17  C   UNK N   1      34.422  15.952   7.228  0.00  0.00     0.032 A 
HETATM   18  C   UNK N   1      34.929  15.386   8.412  0.00  0.00     0.031 A 
HETATM   19  C   UNK N   1      34.240  14.327   9.047  0.00  0.00     0.030 A 
HETATM   20  C   UNK N   1      33.121  13.776   8.423  0.00  0.00     0.031 A 
HETATM   21  C   UNK N   1      32.639  14.317   7.251  0.00  0.00     0.032 A 
BRANCH  19  22
HETATM   22  N   UNK N   1      34.613  13.855  10.338  0.00  0.00    -0.377 N 
HETATM   23  C   UNK N   1      34.990  12.463  10.540  0.00  0.00     0.149 C 
HETATM   24  C   UNK N   1      36.044  12.329  11.647  0.00  0.00     0.187 C 
HETATM   25  O   UNK N   1      35.683  13.102  12.762  0.00  0.00    -0.388 OA
HETATM   26  C   UNK N   1      35.870  14.429  12.358  0.00  0.00     0.187 C 
HETATM   27  C   UNK N   1      34.715  14.806  11.440  0.00  0.00     0.149 C 
ENDBRANCH  19  22
ENDBRANCH  13  16
BRANCH   1  28
HETATM   28  N   UNK N   1      27.840  17.498   5.344  0.00  0.00    -0.369 N 
HETATM   29  H   UNK N   1      27.075  16.928   5.593  0.00  0.00     0.161 HD
BRANCH  28  30
HETATM   30  C   UNK N   1      27.709  18.406   4.230  0.00  0.00     0.083 C 
HETATM   31  C   UNK N   1      28.159  19.831   4.594  0.00  0.00     0.025 C 
HETATM   32  C   UNK N   1      27.142  20.533   5.496  0.00  0.00     0.002 C 
HETATM   33  C   UNK N   1      25.707  20.458   4.961  0.00  0.00     0.000 C 
HETATM   34  C   UNK N   1      25.601  19.727   3.623  0.00  0.00     0.002 C 
HETATM   35  C   UNK N   1      26.263  18.352   3.714  0.00  0.00     0.025 C 
ENDBRANCH  28  30
ENDBRANCH   1  28
TORSDOF 4
ENDMDL
MODEL 9
REMARK VINA RESULT:      -7.1      3.153      4.937
REMARK  4 active torsions:
REMARK  status: ('A' for Active; 'I' for Inactive)
REMARK    1  A    between atoms: C_6  and  N_7 
REMARK    2  A    between atoms: N_7  and  C_8 
REMARK       I    between atoms: C_19  and  N_20 
REMARK    3  A    between atoms: N_20  and  C_21 
REMARK    4  A    between atoms: C_26  and  N_27 
ROOT
HETATM    1  C   UNK N   1      33.388  14.416   9.387  0.00  0.00     0.148 A 
HETATM    2  N   UNK N   1      32.283  15.116   9.805  0.00  0.00    -0.174 N 
ATOM      3  HN  UNK N   1      31.758  14.797  10.620  1.00  0.00     0.186 HD
HETATM    4  C   UNK N   1      34.065  14.868   8.257  0.00  0.00     0.123 A 
HETATM    5  N   UNK N   1      35.116  14.349   7.607  0.00  0.00    -0.346 N 
ATOM      6  HN  UNK N   1      35.637  13.503   7.835  1.00  0.00     0.167 HD
HETATM    7  C   UNK N   1      35.329  15.210   6.574  0.00  0.00     0.182 A 
HETATM    8  N   UNK N   1      34.438  16.235   6.575  0.00  0.00    -0.336 N 
HETATM    9  C   UNK N   1      33.669  15.984   7.640  0.00  0.00     0.152 A 
HETATM   10  N   UNK N   1      32.604  16.686   8.047  0.00  0.00    -0.174 N 
ATOM     11  HN  UNK N   1      32.330  17.539   7.558  1.00  0.00     0.186 HD
HETATM   12  C   UNK N   1      31.884  16.246   9.132  0.00  0.00     0.686 A 
HETATM   13  N   UNK N   1      30.632  16.864   9.405  0.00  0.00    -0.192 N 
HETATM   14  H   UNK N   1      34.374  16.986   5.941  0.00  0.00     0.168 HD
HETATM   15  H   UNK N   1      30.250  16.899  10.312  0.00  0.00     0.184 HD
ENDROOT
BRANCH  13  16
HETATM   16  C   UNK N   1      29.969  17.427   8.282  0.00  0.00     0.049 A 
HETATM   17  C   UNK N   1      29.727  16.669   7.131  0.00  0.00     0.032 A 
HETATM   18  C   UNK N   1      28.754  17.103   6.210  0.00  0.00     0.031 A 
HETATM   19  C   UNK N   1      28.006  18.275   6.464  0.00  0.00     0.030 A 
HETATM   20  C   UNK N   1      28.324  19.055   7.576  0.00  0.00     0.031 A 
HETATM   21  C   UNK N   1      29.292  18.641   8.464  0.00  0.00     0.032 A 
BRANCH  19  22
HETATM   22  N   UNK N   1      26.890  18.643   5.659  0.00  0.00    -0.377 N 
HETATM   23  C   UNK N   1      26.572  20.045   5.426  0.00  0.00     0.149 C 
HETATM   24  C   UNK N   1      25.952  20.250   4.038  0.00  0.00     0.187 C 
HETATM   25  O   UNK N   1      24.965  19.282   3.795  0.00  0.00    -0.388 OA
HETATM   26  C   UNK N   1      25.669  18.086   3.612  0.00  0.00     0.187 C 
HETATM   27  C   UNK N   1      26.129  17.600   4.980  0.00  0.00     0.149 C 
ENDBRANCH  19  22
ENDBRANCH  13  16
BRANCH   1  28
HETATM   28  N   UNK N   1      33.787  13.234  10.047  0.00  0.00    -0.369 N 
HETATM   29  H   UNK N   1      33.179  12.458  10.053  0.00  0.00     0.161 HD
BRANCH  28  30
HETATM   30  C   UNK N   1      35.065  13.133  10.710  0.00  0.00     0.083 C 
HETATM   31  C   UNK N   1      35.446  11.673  11.008  0.00  0.00     0.025 C 
HETATM   32  C   UNK N   1      34.619  11.096  12.159  0.00  0.00     0.002 C 
HETATM   33  C   UNK N   1      34.604  11.994  13.402  0.00  0.00     0.000 C 
HETATM   34  C   UNK N   1      35.445  13.260  13.239  0.00  0.00     0.002 C 
HETATM   35  C   UNK N   1      35.038  14.010  11.971  0.00  0.00     0.025 C 
ENDBRANCH  28  30
ENDBRANCH   1  28
TORSDOF 4
ENDMDL
