REMARK  4 active torsions:
REMARK  status: ('A' for Active; 'I' for Inactive)
REMARK    1  A    between atoms: C_6  and  N_7 
REMARK    2  A    between atoms: N_7  and  C_8 
REMARK       I    between atoms: C_19  and  N_20 
REMARK    3  A    between atoms: N_20  and  C_21 
REMARK    4  A    between atoms: C_26  and  N_27 
ROOT
HETATM    1  C   UNK N   1       5.468   2.444  -0.252  0.00  0.00     0.148 A 
HETATM    2  N   UNK N   1       6.801   2.133  -0.141  0.00  0.00    -0.174 N 
ATOM      3  HN  UNK N   1       7.507   2.836  -0.362  1.00  0.00     0.186 HD
HETATM    4  C   UNK N   1       4.534   1.451   0.034  0.00  0.00     0.123 A 
HETATM    5  N   UNK N   1       3.197   1.464  -0.052  0.00  0.00    -0.346 N 
ATOM      6  HN  UNK N   1       2.596   2.235  -0.343  1.00  0.00     0.167 HD
HETATM    7  C   UNK N   1       2.824   0.215   0.340  0.00  0.00     0.182 A 
HETATM    8  N   UNK N   1       3.894  -0.558   0.659  0.00  0.00    -0.336 N 
HETATM    9  C   UNK N   1       4.940   0.251   0.455  0.00  0.00     0.152 A 
HETATM   10  N   UNK N   1       6.236  -0.061   0.584  0.00  0.00    -0.174 N 
ATOM     11  HN  UNK N   1       6.514  -0.985   0.914  1.00  0.00     0.186 HD
HETATM   12  C   UNK N   1       7.187   0.879   0.268  0.00  0.00     0.686 A 
HETATM   13  N   UNK N   1       8.545   0.462   0.185  0.00  0.00    -0.192 N 
HETATM   14  H   UNK N   1       3.899  -1.493   0.967  0.00  0.00     0.168 HD
HETATM   15  H   UNK N   1       9.295   1.079   0.346  0.00  0.00     0.184 HD
ENDROOT
BRANCH  13  16
HETATM   16  C   UNK N   1       8.746  -0.905  -0.145  0.00  0.00     0.049 A 
HETATM   17  C   UNK N   1       9.534  -1.735   0.660  0.00  0.00     0.032 A 
HETATM   18  C   UNK N   1       9.408  -3.132   0.544  0.00  0.00     0.031 A 
HETATM   19  C   UNK N   1       8.469  -3.690  -0.353  0.00  0.00     0.030 A 
HETATM   20  C   UNK N   1       7.756  -2.844  -1.202  0.00  0.00     0.031 A 
HETATM   21  C   UNK N   1       7.897  -1.477  -1.103  0.00  0.00     0.032 A 
BRANCH  19  22
HETATM   22  N   UNK N   1       8.178  -5.085  -0.365  0.00  0.00    -0.377 N 
HETATM   23  C   UNK N   1       8.969  -6.016   0.427  0.00  0.00     0.149 C 
HETATM   24  C   UNK N   1       8.115  -7.194   0.914  0.00  0.00     0.187 C 
HETATM   25  O   UNK N   1       7.329  -7.695  -0.136  0.00  0.00    -0.388 OA
HETATM   26  C   UNK N   1       6.353  -6.716  -0.356  0.00  0.00     0.187 C 
HETATM   27  C   UNK N   1       7.010  -5.560  -1.099  0.00  0.00     0.149 C 
ENDBRANCH  19  22
ENDBRANCH  13  16
BRANCH   1  28
HETATM   28  N   UNK N   1       5.058   3.716  -0.707  0.00  0.00    -0.369 N 
HETATM   29  H   UNK N   1       5.021   3.891  -1.676  0.00  0.00     0.161 HD
BRANCH  28  30
HETATM   30  C   UNK N   1       4.691   4.765   0.214  0.00  0.00     0.083 C 
HETATM   31  C   UNK N   1       3.567   4.326   1.168  0.00  0.00     0.025 C 
HETATM   32  C   UNK N   1       2.215   4.255   0.455  0.00  0.00     0.002 C 
HETATM   33  C   UNK N   1       1.885   5.522  -0.343  0.00  0.00     0.000 C 
HETATM   34  C   UNK N   1       2.962   6.601  -0.230  0.00  0.00     0.002 C 
HETATM   35  C   UNK N   1       4.332   6.025  -0.588  0.00  0.00     0.025 C 
ENDBRANCH  28  30
ENDBRANCH   1  28
TORSDOF 4
