MODEL 1
REMARK VINA RESULT:      -6.3      0.000      0.000
REMARK  16 active torsions:
REMARK  status: ('A' for Active; 'I' for Inactive)
REMARK    1  A    between atoms: C_1  and  C_2 
REMARK    2  A    between atoms: C_1  and  C_28 
REMARK    3  A    between atoms: C_2  and  C_3 
REMARK    4  A    between atoms: C_3  and  C_4 
REMARK    5  A    between atoms: C_4  and  C_5 
REMARK    6  A    between atoms: C_5  and  C_6 
REMARK    7  A    between atoms: C_6  and  O_7 
REMARK    8  A    between atoms: C_8  and  O_7 
REMARK    9  A    between atoms: C_10  and  C_11 
REMARK   10  A    between atoms: C_11  and  O_12 
REMARK   11  A    between atoms: C_13  and  O_14 
REMARK   12  A    between atoms: C_15  and  N_16 
REMARK   13  A    between atoms: C_17  and  O_18 
REMARK   14  A    between atoms: C_19  and  O_18 
REMARK   15  A    between atoms: C_24  and  O_25 
REMARK   16  A    between atoms: C_26  and  O_27 
ROOT
HETATM    1  C   UNK N   1      32.423  16.825   7.804  0.00  0.00     0.291 C 
HETATM    2  O   UNK N   1      31.873  17.371   6.598  0.00  0.00    -0.349 OA
HETATM    3  C   UNK N   1      32.449  16.791   5.459  0.00  0.00     0.179 C 
HETATM    4  C   UNK N   1      32.013  15.310   5.336  0.00  0.00     0.174 C 
HETATM    5  C   UNK N   1      31.929  14.624   6.726  0.00  0.00     0.139 C 
HETATM    6  C   UNK N   1      32.916  15.329   7.701  0.00  0.00     0.204 C 
ENDROOT
BRANCH   6   7
HETATM    7  O   UNK N   1      33.010  14.864   9.054  0.00  0.00    -0.349 OA
BRANCH   7   8
HETATM    8  C   UNK N   1      34.293  14.555   9.549  0.00  0.00     0.263 C 
HETATM    9  C   UNK N   1      34.804  15.675  10.485  0.00  0.00     0.095 C 
HETATM   10  C   UNK N   1      36.104  15.303  11.207  0.00  0.00     0.154 C 
HETATM   11  C   UNK N   1      36.562  13.893  10.820  0.00  0.00     0.175 C 
HETATM   12  C   UNK N   1      35.364  12.920  10.956  0.00  0.00     0.151 C 
HETATM   13  O   UNK N   1      34.183  13.327  10.261  0.00  0.00    -0.354 OA
HETATM   14  C   UNK N   1      34.995  12.724  12.421  0.00  0.00     0.042 C 
BRANCH  10  15
HETATM   15  O   UNK N   1      37.100  16.232  10.899  0.00  0.00    -0.393 OA
HETATM   16  H   UNK N   1      36.937  17.186  10.962  0.00  0.00     0.210 HD
ENDBRANCH  10  15
BRANCH  11  17
HETATM   17  O   UNK N   1      37.640  13.484  11.608  0.00  0.00    -0.390 OA
HETATM   18  H   UNK N   1      38.447  14.021  11.644  0.00  0.00     0.210 HD
ENDBRANCH  11  17
ENDBRANCH   7   8
ENDBRANCH   6   7
BRANCH   1  19
HETATM   19  O   UNK N   1      31.389  16.892   8.771  0.00  0.00    -0.359 OA
BRANCH  19  20
HETATM   20  C   UNK N   1      30.843  18.192   8.788  0.00  0.00     0.171 C 
BRANCH  20  21
HETATM   21  C   UNK N   1      29.608  18.234   9.668  0.00  0.00     0.026 C 
BRANCH  21  22
HETATM   22  C   UNK N   1      28.374  17.820   8.885  0.00  0.00     0.002 C 
BRANCH  22  23
HETATM   23  C   UNK N   1      28.546  18.214   7.428  0.00  0.00     0.000 C 
BRANCH  23  24
HETATM   24  C   UNK N   1      27.854  19.532   7.116  0.00  0.00     0.000 C 
BRANCH  24  25
HETATM   25  C   UNK N   1      27.791  19.778   5.618  0.00  0.00    -0.000 C 
BRANCH  25  26
HETATM   26  C   UNK N   1      26.937  20.995   5.320  0.00  0.00    -0.005 C 
HETATM   27  C   UNK N   1      26.496  21.647   6.616  0.00  0.00     0.005 C 
ENDBRANCH  25  26
ENDBRANCH  24  25
ENDBRANCH  23  24
ENDBRANCH  22  23
ENDBRANCH  21  22
ENDBRANCH  20  21
ENDBRANCH  19  20
ENDBRANCH   1  19
BRANCH   5  28
HETATM   28  N   UNK N   1      32.188  13.205   6.528  0.00  0.00    -0.421 N 
HETATM   29  H   UNK N   1      32.781  12.698   7.185  0.00  0.00     0.150 HD
HETATM   30  H   UNK N   1      31.776  12.718   5.732  0.00  0.00     0.150 HD
ENDBRANCH   5  28
BRANCH   4  31
HETATM   31  O   UNK N   1      30.774  15.179   4.702  0.00  0.00    -0.391 OA
HETATM   32  H   UNK N   1      30.057  14.747   4.212  0.00  0.00     0.210 HD
ENDBRANCH   4  31
BRANCH   3  33
HETATM   33  C   UNK N   1      32.084  17.613   4.224  0.00  0.00     0.198 C 
BRANCH  33  34
HETATM   34  O   UNK N   1      30.743  17.998   4.264  0.00  0.00    -0.398 OA
HETATM   35  H   UNK N   1      30.013  17.380   4.428  0.00  0.00     0.209 HD
ENDBRANCH  33  34
ENDBRANCH   3  33
TORSDOF 16
ENDMDL
MODEL 2
REMARK VINA RESULT:      -6.1     10.412     13.603
REMARK  16 active torsions:
REMARK  status: ('A' for Active; 'I' for Inactive)
REMARK    1  A    between atoms: C_1  and  C_2 
REMARK    2  A    between atoms: C_1  and  C_28 
REMARK    3  A    between atoms: C_2  and  C_3 
REMARK    4  A    between atoms: C_3  and  C_4 
REMARK    5  A    between atoms: C_4  and  C_5 
REMARK    6  A    between atoms: C_5  and  C_6 
REMARK    7  A    between atoms: C_6  and  O_7 
REMARK    8  A    between atoms: C_8  and  O_7 
REMARK    9  A    between atoms: C_10  and  C_11 
REMARK   10  A    between atoms: C_11  and  O_12 
REMARK   11  A    between atoms: C_13  and  O_14 
REMARK   12  A    between atoms: C_15  and  N_16 
REMARK   13  A    between atoms: C_17  and  O_18 
REMARK   14  A    between atoms: C_19  and  O_18 
REMARK   15  A    between atoms: C_24  and  O_25 
REMARK   16  A    between atoms: C_26  and  O_27 
ROOT
HETATM    1  C   UNK N   1      22.202  18.211   4.408  0.00  0.00     0.291 C 
HETATM    2  O   UNK N   1      23.227  19.212   4.465  0.00  0.00    -0.349 OA
HETATM    3  C   UNK N   1      23.606  19.636   3.184  0.00  0.00     0.179 C 
HETATM    4  C   UNK N   1      22.454  20.433   2.523  0.00  0.00     0.174 C 
HETATM    5  C   UNK N   1      21.068  19.828   2.875  0.00  0.00     0.139 C 
HETATM    6  C   UNK N   1      21.236  18.309   3.164  0.00  0.00     0.204 C 
ENDROOT
BRANCH   6   7
HETATM    7  O   UNK N   1      20.081  17.535   3.516  0.00  0.00    -0.349 OA
BRANCH   7   8
HETATM    8  C   UNK N   1      19.787  16.406   2.725  0.00  0.00     0.263 C 
HETATM    9  C   UNK N   1      19.556  16.813   1.251  0.00  0.00     0.095 C 
HETATM   10  C   UNK N   1      19.429  15.608   0.311  0.00  0.00     0.154 C 
HETATM   11  C   UNK N   1      19.579  14.293   1.083  0.00  0.00     0.175 C 
HETATM   12  C   UNK N   1      20.843  14.375   1.976  0.00  0.00     0.151 C 
HETATM   13  O   UNK N   1      20.901  15.523   2.825  0.00  0.00    -0.354 OA
HETATM   14  C   UNK N   1      22.105  14.367   1.122  0.00  0.00     0.042 C 
BRANCH  10  15
HETATM   15  O   UNK N   1      18.195  15.644  -0.340  0.00  0.00    -0.393 OA
HETATM   16  H   UNK N   1      17.367  15.492   0.141  0.00  0.00     0.210 HD
ENDBRANCH  10  15
BRANCH  11  17
HETATM   17  O   UNK N   1      19.644  13.205   0.210  0.00  0.00    -0.390 OA
HETATM   18  H   UNK N   1      19.751  13.353  -0.743  0.00  0.00     0.210 HD
ENDBRANCH  11  17
ENDBRANCH   7   8
ENDBRANCH   6   7
BRANCH   1  19
HETATM   19  O   UNK N   1      21.433  18.370   5.588  0.00  0.00    -0.359 OA
BRANCH  19  20
HETATM   20  C   UNK N   1      21.720  17.319   6.482  0.00  0.00     0.171 C 
BRANCH  20  21
HETATM   21  C   UNK N   1      20.439  16.628   6.913  0.00  0.00     0.026 C 
BRANCH  21  22
HETATM   22  C   UNK N   1      20.225  16.776   8.409  0.00  0.00     0.002 C 
BRANCH  22  23
HETATM   23  C   UNK N   1      19.920  15.415   9.012  0.00  0.00     0.000 C 
BRANCH  23  24
HETATM   24  C   UNK N   1      21.063  14.435   8.793  0.00  0.00     0.000 C 
BRANCH  24  25
HETATM   25  C   UNK N   1      21.210  13.493   9.977  0.00  0.00    -0.000 C 
BRANCH  25  26
HETATM   26  C   UNK N   1      22.664  13.097  10.155  0.00  0.00    -0.005 C 
HETATM   27  C   UNK N   1      22.763  11.613  10.450  0.00  0.00     0.005 C 
ENDBRANCH  25  26
ENDBRANCH  24  25
ENDBRANCH  23  24
ENDBRANCH  22  23
ENDBRANCH  21  22
ENDBRANCH  20  21
ENDBRANCH  19  20
ENDBRANCH   1  19
BRANCH   5  28
HETATM   28  N   UNK N   1      20.165  20.138   1.776  0.00  0.00    -0.421 N 
HETATM   29  H   UNK N   1      19.834  21.093   1.642  0.00  0.00     0.150 HD
HETATM   30  H   UNK N   1      19.866  19.400   1.140  0.00  0.00     0.150 HD
ENDBRANCH   5  28
BRANCH   4  31
HETATM   31  O   UNK N   1      22.461  21.778   2.904  0.00  0.00    -0.391 OA
HETATM   32  H   UNK N   1      22.758  22.701   2.936  0.00  0.00     0.210 HD
ENDBRANCH   4  31
BRANCH   3  33
HETATM   33  C   UNK N   1      24.900  20.443   3.273  0.00  0.00     0.198 C 
BRANCH  33  34
HETATM   34  O   UNK N   1      25.237  20.977   2.028  0.00  0.00    -0.398 OA
HETATM   35  H   UNK N   1      25.912  20.593   1.446  0.00  0.00     0.209 HD
ENDBRANCH  33  34
ENDBRANCH   3  33
TORSDOF 16
ENDMDL
MODEL 3
REMARK VINA RESULT:      -6.0      2.455      6.370
REMARK  16 active torsions:
REMARK  status: ('A' for Active; 'I' for Inactive)
REMARK    1  A    between atoms: C_1  and  C_2 
REMARK    2  A    between atoms: C_1  and  C_28 
REMARK    3  A    between atoms: C_2  and  C_3 
REMARK    4  A    between atoms: C_3  and  C_4 
REMARK    5  A    between atoms: C_4  and  C_5 
REMARK    6  A    between atoms: C_5  and  C_6 
REMARK    7  A    between atoms: C_6  and  O_7 
REMARK    8  A    between atoms: C_8  and  O_7 
REMARK    9  A    between atoms: C_10  and  C_11 
REMARK   10  A    between atoms: C_11  and  O_12 
REMARK   11  A    between atoms: C_13  and  O_14 
REMARK   12  A    between atoms: C_15  and  N_16 
REMARK   13  A    between atoms: C_17  and  O_18 
REMARK   14  A    between atoms: C_19  and  O_18 
REMARK   15  A    between atoms: C_24  and  O_25 
REMARK   16  A    between atoms: C_26  and  O_27 
ROOT
HETATM    1  C   UNK N   1      31.106  16.709   7.940  0.00  0.00     0.291 C 
HETATM    2  O   UNK N   1      32.296  16.923   8.709  0.00  0.00    -0.349 OA
HETATM    3  C   UNK N   1      33.389  16.227   8.175  0.00  0.00     0.179 C 
HETATM    4  C   UNK N   1      33.802  16.844   6.816  0.00  0.00     0.174 C 
HETATM    5  C   UNK N   1      32.565  17.301   5.998  0.00  0.00     0.139 C 
HETATM    6  C   UNK N   1      31.340  16.433   6.403  0.00  0.00     0.204 C 
ENDROOT
BRANCH   6   7
HETATM    7  O   UNK N   1      30.074  16.676   5.774  0.00  0.00    -0.349 OA
BRANCH   7   8
HETATM    8  C   UNK N   1      29.580  15.688   4.899  0.00  0.00     0.263 C 
HETATM    9  C   UNK N   1      29.150  16.314   3.552  0.00  0.00     0.095 C 
HETATM   10  C   UNK N   1      28.792  15.265   2.493  0.00  0.00     0.154 C 
HETATM   11  C   UNK N   1      28.966  13.847   3.046  0.00  0.00     0.175 C 
HETATM   12  C   UNK N   1      30.357  13.737   3.721  0.00  0.00     0.151 C 
HETATM   13  O   UNK N   1      30.629  14.747   4.695  0.00  0.00    -0.354 OA
HETATM   14  C   UNK N   1      31.465  13.790   2.678  0.00  0.00     0.042 C 
BRANCH  10  15
HETATM   15  O   UNK N   1      27.477  15.455   2.065  0.00  0.00    -0.393 OA
HETATM   16  H   UNK N   1      26.849  15.983   2.582  0.00  0.00     0.210 HD
ENDBRANCH  10  15
BRANCH  11  17
HETATM   17  O   UNK N   1      28.815  12.894   2.036  0.00  0.00    -0.390 OA
HETATM   18  H   UNK N   1      28.482  12.008   2.250  0.00  0.00     0.210 HD
ENDBRANCH  11  17
ENDBRANCH   7   8
ENDBRANCH   6   7
BRANCH   1  19
HETATM   19  O   UNK N   1      30.336  17.891   8.071  0.00  0.00    -0.359 OA
BRANCH  19  20
HETATM   20  C   UNK N   1      29.349  17.703   9.060  0.00  0.00     0.171 C 
BRANCH  20  21
HETATM   21  C   UNK N   1      28.126  18.547   8.753  0.00  0.00     0.026 C 
BRANCH  21  22
HETATM   22  C   UNK N   1      28.140  19.010   7.306  0.00  0.00     0.002 C 
BRANCH  22  23
HETATM   23  C   UNK N   1      27.276  20.252   7.166  0.00  0.00     0.000 C 
BRANCH  23  24
HETATM   24  C   UNK N   1      27.537  20.973   5.852  0.00  0.00     0.000 C 
BRANCH  24  25
HETATM   25  C   UNK N   1      27.982  20.001   4.772  0.00  0.00    -0.000 C 
BRANCH  25  26
HETATM   26  C   UNK N   1      26.979  19.986   3.634  0.00  0.00    -0.005 C 
HETATM   27  C   UNK N   1      26.100  18.755   3.735  0.00  0.00     0.005 C 
ENDBRANCH  25  26
ENDBRANCH  24  25
ENDBRANCH  23  24
ENDBRANCH  22  23
ENDBRANCH  21  22
ENDBRANCH  20  21
ENDBRANCH  19  20
ENDBRANCH   1  19
BRANCH   5  28
HETATM   28  N   UNK N   1      32.921  17.222   4.588  0.00  0.00    -0.421 N 
HETATM   29  H   UNK N   1      33.329  18.030   4.119  0.00  0.00     0.150 HD
HETATM   30  H   UNK N   1      32.763  16.357   4.071  0.00  0.00     0.150 HD
ENDBRANCH   5  28
BRANCH   4  31
HETATM   31  O   UNK N   1      34.657  17.939   6.977  0.00  0.00    -0.391 OA
HETATM   32  H   UNK N   1      35.496  18.421   7.044  0.00  0.00     0.210 HD
ENDBRANCH   4  31
BRANCH   3  33
HETATM   33  C   UNK N   1      34.534  16.215   9.186  0.00  0.00     0.198 C 
BRANCH  33  34
HETATM   34  O   UNK N   1      34.510  17.366   9.975  0.00  0.00    -0.398 OA
HETATM   35  H   UNK N   1      33.748  17.628  10.517  0.00  0.00     0.209 HD
ENDBRANCH  33  34
ENDBRANCH   3  33
TORSDOF 16
ENDMDL
MODEL 4
REMARK VINA RESULT:      -5.9     13.410     17.368
REMARK  16 active torsions:
REMARK  status: ('A' for Active; 'I' for Inactive)
REMARK    1  A    between atoms: C_1  and  C_2 
REMARK    2  A    between atoms: C_1  and  C_28 
REMARK    3  A    between atoms: C_2  and  C_3 
REMARK    4  A    between atoms: C_3  and  C_4 
REMARK    5  A    between atoms: C_4  and  C_5 
REMARK    6  A    between atoms: C_5  and  C_6 
REMARK    7  A    between atoms: C_6  and  O_7 
REMARK    8  A    between atoms: C_8  and  O_7 
REMARK    9  A    between atoms: C_10  and  C_11 
REMARK   10  A    between atoms: C_11  and  O_12 
REMARK   11  A    between atoms: C_13  and  O_14 
REMARK   12  A    between atoms: C_15  and  N_16 
REMARK   13  A    between atoms: C_17  and  O_18 
REMARK   14  A    between atoms: C_19  and  O_18 
REMARK   15  A    between atoms: C_24  and  O_25 
REMARK   16  A    between atoms: C_26  and  O_27 
ROOT
HETATM    1  C   UNK N   1      26.272  26.163  -6.235  0.00  0.00     0.291 C 
HETATM    2  O   UNK N   1      25.541  26.357  -7.452  0.00  0.00    -0.349 OA
HETATM    3  C   UNK N   1      26.102  25.634  -8.514  0.00  0.00     0.179 C 
HETATM    4  C   UNK N   1      25.902  24.114  -8.289  0.00  0.00     0.174 C 
HETATM    5  C   UNK N   1      26.049  23.735  -6.791  0.00  0.00     0.139 C 
HETATM    6  C   UNK N   1      26.988  24.763  -6.097  0.00  0.00     0.204 C 
ENDROOT
BRANCH   6   7
HETATM    7  O   UNK N   1      27.272  24.615  -4.700  0.00  0.00    -0.349 OA
BRANCH   7   8
HETATM    8  C   UNK N   1      28.569  24.197  -4.338  0.00  0.00     0.263 C 
HETATM    9  C   UNK N   1      28.538  23.393  -3.017  0.00  0.00     0.095 C 
HETATM   10  C   UNK N   1      29.886  22.746  -2.680  0.00  0.00     0.154 C 
HETATM   11  C   UNK N   1      30.927  23.056  -3.760  0.00  0.00     0.175 C 
HETATM   12  C   UNK N   1      30.316  22.753  -5.151  0.00  0.00     0.151 C 
HETATM   13  O   UNK N   1      29.058  23.384  -5.400  0.00  0.00    -0.354 OA
HETATM   14  C   UNK N   1      30.126  21.253  -5.339  0.00  0.00     0.042 C 
BRANCH  10  15
HETATM   15  O   UNK N   1      30.332  23.201  -1.438  0.00  0.00    -0.393 OA
HETATM   16  H   UNK N   1      30.997  23.904  -1.368  0.00  0.00     0.210 HD
ENDBRANCH  10  15
BRANCH  11  17
HETATM   17  O   UNK N   1      32.098  22.324  -3.550  0.00  0.00    -0.390 OA
HETATM   18  H   UNK N   1      32.962  22.724  -3.737  0.00  0.00     0.210 HD
ENDBRANCH  11  17
ENDBRANCH   7   8
ENDBRANCH   6   7
BRANCH   1  19
HETATM   19  O   UNK N   1      25.328  26.289  -5.186  0.00  0.00    -0.359 OA
BRANCH  19  20
HETATM   20  C   UNK N   1      25.332  27.614  -4.706  0.00  0.00     0.171 C 
BRANCH  20  21
HETATM   21  C   UNK N   1      25.921  27.668  -3.308  0.00  0.00     0.026 C 
BRANCH  21  22
HETATM   22  C   UNK N   1      26.958  28.772  -3.202  0.00  0.00     0.002 C 
BRANCH  22  23
HETATM   23  C   UNK N   1      26.386  30.057  -3.780  0.00  0.00     0.000 C 
BRANCH  23  24
HETATM   24  C   UNK N   1      27.446  30.864  -4.513  0.00  0.00     0.000 C 
BRANCH  24  25
HETATM   25  C   UNK N   1      28.587  29.974  -4.979  0.00  0.00    -0.000 C 
BRANCH  25  26
HETATM   26  C   UNK N   1      28.818  30.154  -6.468  0.00  0.00    -0.005 C 
HETATM   27  C   UNK N   1      28.375  28.911  -7.214  0.00  0.00     0.005 C 
ENDBRANCH  25  26
ENDBRANCH  24  25
ENDBRANCH  23  24
ENDBRANCH  22  23
ENDBRANCH  21  22
ENDBRANCH  20  21
ENDBRANCH  19  20
ENDBRANCH   1  19
BRANCH   5  28
HETATM   28  N   UNK N   1      26.515  22.357  -6.734  0.00  0.00    -0.421 N 
HETATM   29  H   UNK N   1      26.162  21.729  -6.011  0.00  0.00     0.150 HD
HETATM   30  H   UNK N   1      27.193  22.020  -7.417  0.00  0.00     0.150 HD
ENDBRANCH   5  28
BRANCH   4  31
HETATM   31  O   UNK N   1      24.651  23.680  -8.736  0.00  0.00    -0.391 OA
HETATM   32  H   UNK N   1      23.997  23.296  -9.342  0.00  0.00     0.210 HD
ENDBRANCH   4  31
BRANCH   3  33
HETATM   33  C   UNK N   1      25.506  26.115  -9.835  0.00  0.00     0.198 C 
BRANCH  33  34
HETATM   34  O   UNK N   1      26.514  26.431 -10.747  0.00  0.00    -0.398 OA
HETATM   35  H   UNK N   1      26.857  27.331 -10.875  0.00  0.00     0.209 HD
ENDBRANCH  33  34
ENDBRANCH   3  33
TORSDOF 16
ENDMDL
MODEL 5
REMARK VINA RESULT:      -5.9      9.677     12.390
REMARK  16 active torsions:
REMARK  status: ('A' for Active; 'I' for Inactive)
REMARK    1  A    between atoms: C_1  and  C_2 
REMARK    2  A    between atoms: C_1  and  C_28 
REMARK    3  A    between atoms: C_2  and  C_3 
REMARK    4  A    between atoms: C_3  and  C_4 
REMARK    5  A    between atoms: C_4  and  C_5 
REMARK    6  A    between atoms: C_5  and  C_6 
REMARK    7  A    between atoms: C_6  and  O_7 
REMARK    8  A    between atoms: C_8  and  O_7 
REMARK    9  A    between atoms: C_10  and  C_11 
REMARK   10  A    between atoms: C_11  and  O_12 
REMARK   11  A    between atoms: C_13  and  O_14 
REMARK   12  A    between atoms: C_15  and  N_16 
REMARK   13  A    between atoms: C_17  and  O_18 
REMARK   14  A    between atoms: C_19  and  O_18 
REMARK   15  A    between atoms: C_24  and  O_25 
REMARK   16  A    between atoms: C_26  and  O_27 
ROOT
HETATM    1  C   UNK N   1      21.474  17.282   4.495  0.00  0.00     0.291 C 
HETATM    2  O   UNK N   1      20.891  18.591   4.461  0.00  0.00    -0.349 OA
HETATM    3  C   UNK N   1      20.881  19.119   3.162  0.00  0.00     0.179 C 
HETATM    4  C   UNK N   1      19.885  18.330   2.274  0.00  0.00     0.174 C 
HETATM    5  C   UNK N   1      19.901  16.815   2.608  0.00  0.00     0.139 C 
HETATM    6  C   UNK N   1      21.299  16.434   3.175  0.00  0.00     0.204 C 
ENDROOT
BRANCH   6   7
HETATM    7  O   UNK N   1      21.548  15.075   3.558  0.00  0.00    -0.349 OA
BRANCH   7   8
HETATM    8  C   UNK N   1      22.732  14.472   3.087  0.00  0.00     0.263 C 
HETATM    9  C   UNK N   1      22.829  14.580   1.548  0.00  0.00     0.095 C 
HETATM   10  C   UNK N   1      24.185  14.120   1.001  0.00  0.00     0.154 C 
HETATM   11  C   UNK N   1      25.112  13.677   2.137  0.00  0.00     0.175 C 
HETATM   12  C   UNK N   1      25.117  14.768   3.237  0.00  0.00     0.151 C 
HETATM   13  O   UNK N   1      23.822  15.154   3.700  0.00  0.00    -0.354 OA
HETATM   14  C   UNK N   1      25.826  16.024   2.744  0.00  0.00     0.042 C 
BRANCH  10  15
HETATM   15  O   UNK N   1      24.000  13.071   0.097  0.00  0.00    -0.393 OA
HETATM   16  H   UNK N   1      23.127  12.876  -0.276  0.00  0.00     0.210 HD
ENDBRANCH  10  15
BRANCH  11  17
HETATM   17  O   UNK N   1      26.402  13.429   1.662  0.00  0.00    -0.390 OA
HETATM   18  H   UNK N   1      26.770  13.973   0.948  0.00  0.00     0.210 HD
ENDBRANCH  11  17
ENDBRANCH   7   8
ENDBRANCH   6   7
BRANCH   1  19
HETATM   19  O   UNK N   1      20.835  16.596   5.557  0.00  0.00    -0.359 OA
BRANCH  19  20
HETATM   20  C   UNK N   1      21.034  17.302   6.761  0.00  0.00     0.171 C 
BRANCH  20  21
HETATM   21  C   UNK N   1      20.815  16.387   7.952  0.00  0.00     0.026 C 
BRANCH  21  22
HETATM   22  C   UNK N   1      20.605  14.953   7.499  0.00  0.00     0.002 C 
BRANCH  22  23
HETATM   23  C   UNK N   1      21.284  14.010   8.478  0.00  0.00     0.000 C 
BRANCH  23  24
HETATM   24  C   UNK N   1      20.559  13.971   9.815  0.00  0.00     0.000 C 
BRANCH  24  25
HETATM   25  C   UNK N   1      21.021  12.791  10.654  0.00  0.00    -0.000 C 
BRANCH  25  26
HETATM   26  C   UNK N   1      22.532  12.665  10.596  0.00  0.00    -0.005 C 
HETATM   27  C   UNK N   1      23.034  11.905  11.808  0.00  0.00     0.005 C 
ENDBRANCH  25  26
ENDBRANCH  24  25
ENDBRANCH  23  24
ENDBRANCH  22  23
ENDBRANCH  21  22
ENDBRANCH  20  21
ENDBRANCH  19  20
ENDBRANCH   1  19
BRANCH   5  28
HETATM   28  N   UNK N   1      19.524  16.098   1.398  0.00  0.00    -0.421 N 
HETATM   29  H   UNK N   1      18.650  15.573   1.367  0.00  0.00     0.150 HD
HETATM   30  H   UNK N   1      20.134  16.122   0.581  0.00  0.00     0.150 HD
ENDBRANCH   5  28
BRANCH   4  31
HETATM   31  O   UNK N   1      18.576  18.802   2.410  0.00  0.00    -0.391 OA
HETATM   32  H   UNK N   1      17.607  18.780   2.384  0.00  0.00     0.210 HD
ENDBRANCH   4  31
BRANCH   3  33
HETATM   33  C   UNK N   1      20.562  20.611   3.217  0.00  0.00     0.198 C 
BRANCH  33  34
HETATM   34  O   UNK N   1      21.660  21.368   2.805  0.00  0.00    -0.398 OA
HETATM   35  H   UNK N   1      22.093  21.258   1.943  0.00  0.00     0.209 HD
ENDBRANCH  33  34
ENDBRANCH   3  33
TORSDOF 16
ENDMDL
MODEL 6
REMARK VINA RESULT:      -5.8     13.085     16.797
REMARK  16 active torsions:
REMARK  status: ('A' for Active; 'I' for Inactive)
REMARK    1  A    between atoms: C_1  and  C_2 
REMARK    2  A    between atoms: C_1  and  C_28 
REMARK    3  A    between atoms: C_2  and  C_3 
REMARK    4  A    between atoms: C_3  and  C_4 
REMARK    5  A    between atoms: C_4  and  C_5 
REMARK    6  A    between atoms: C_5  and  C_6 
REMARK    7  A    between atoms: C_6  and  O_7 
REMARK    8  A    between atoms: C_8  and  O_7 
REMARK    9  A    between atoms: C_10  and  C_11 
REMARK   10  A    between atoms: C_11  and  O_12 
REMARK   11  A    between atoms: C_13  and  O_14 
REMARK   12  A    between atoms: C_15  and  N_16 
REMARK   13  A    between atoms: C_17  and  O_18 
REMARK   14  A    between atoms: C_19  and  O_18 
REMARK   15  A    between atoms: C_24  and  O_25 
REMARK   16  A    between atoms: C_26  and  O_27 
ROOT
HETATM    1  C   UNK N   1      27.314  24.942  -5.396  0.00  0.00     0.291 C 
HETATM    2  O   UNK N   1      26.292  25.947  -5.402  0.00  0.00    -0.349 OA
HETATM    3  C   UNK N   1      26.661  27.064  -4.641  0.00  0.00     0.179 C 
HETATM    4  C   UNK N   1      27.822  27.821  -5.333  0.00  0.00     0.174 C 
HETATM    5  C   UNK N   1      28.823  26.841  -6.000  0.00  0.00     0.139 C 
HETATM    6  C   UNK N   1      28.788  25.484  -5.240  0.00  0.00     0.204 C 
ENDROOT
BRANCH   6   7
HETATM    7  O   UNK N   1      29.636  24.416  -5.682  0.00  0.00    -0.349 OA
BRANCH   7   8
HETATM    8  C   UNK N   1      30.444  23.782  -4.716  0.00  0.00     0.263 C 
HETATM    9  C   UNK N   1      29.594  23.309  -3.514  0.00  0.00     0.095 C 
HETATM   10  C   UNK N   1      30.384  22.441  -2.529  0.00  0.00     0.154 C 
HETATM   11  C   UNK N   1      31.829  22.253  -3.001  0.00  0.00     0.175 C 
HETATM   12  C   UNK N   1      31.820  21.819  -4.489  0.00  0.00     0.151 C 
HETATM   13  O   UNK N   1      31.063  22.669  -5.353  0.00  0.00    -0.354 OA
HETATM   14  C   UNK N   1      31.271  20.405  -4.633  0.00  0.00     0.042 C 
BRANCH  10  15
HETATM   15  O   UNK N   1      30.367  23.027  -1.262  0.00  0.00    -0.393 OA
HETATM   16  H   UNK N   1      30.289  23.988  -1.152  0.00  0.00     0.210 HD
ENDBRANCH  10  15
BRANCH  11  17
HETATM   17  O   UNK N   1      32.498  21.320  -2.205  0.00  0.00    -0.390 OA
HETATM   18  H   UNK N   1      33.408  21.061  -2.420  0.00  0.00     0.210 HD
ENDBRANCH  11  17
ENDBRANCH   7   8
ENDBRANCH   6   7
BRANCH   1  19
HETATM   19  O   UNK N   1      27.211  24.270  -6.640  0.00  0.00    -0.359 OA
BRANCH  19  20
HETATM   20  C   UNK N   1      25.894  24.386  -7.130  0.00  0.00     0.171 C 
BRANCH  20  21
HETATM   21  C   UNK N   1      25.597  23.268  -8.112  0.00  0.00     0.026 C 
BRANCH  21  22
HETATM   22  C   UNK N   1      25.261  21.982  -7.379  0.00  0.00     0.002 C 
BRANCH  22  23
HETATM   23  C   UNK N   1      25.700  20.793  -8.218  0.00  0.00     0.000 C 
BRANCH  23  24
HETATM   24  C   UNK N   1      27.088  21.001  -8.803  0.00  0.00     0.000 C 
BRANCH  24  25
HETATM   25  C   UNK N   1      28.134  20.220  -8.025  0.00  0.00    -0.000 C 
BRANCH  25  26
HETATM   26  C   UNK N   1      29.377  21.066  -7.820  0.00  0.00    -0.005 C 
HETATM   27  C   UNK N   1      29.263  22.354  -8.613  0.00  0.00     0.005 C 
ENDBRANCH  25  26
ENDBRANCH  24  25
ENDBRANCH  23  24
ENDBRANCH  22  23
ENDBRANCH  21  22
ENDBRANCH  20  21
ENDBRANCH  19  20
ENDBRANCH   1  19
BRANCH   5  28
HETATM   28  N   UNK N   1      30.126  27.492  -6.014  0.00  0.00    -0.421 N 
HETATM   29  H   UNK N   1      30.947  26.996  -5.668  0.00  0.00     0.150 HD
HETATM   30  H   UNK N   1      30.216  28.443  -6.369  0.00  0.00     0.150 HD
ENDBRANCH   5  28
BRANCH   4  31
HETATM   31  O   UNK N   1      27.359  28.713  -6.305  0.00  0.00    -0.391 OA
HETATM   32  H   UNK N   1      27.148  29.044  -7.192  0.00  0.00     0.210 HD
ENDBRANCH   4  31
BRANCH   3  33
HETATM   33  C   UNK N   1      25.440  27.951  -4.406  0.00  0.00     0.198 C 
BRANCH  33  34
HETATM   34  O   UNK N   1      25.812  29.157  -3.809  0.00  0.00    -0.398 OA
HETATM   35  H   UNK N   1      25.638  29.369  -2.878  0.00  0.00     0.209 HD
ENDBRANCH  33  34
ENDBRANCH   3  33
TORSDOF 16
ENDMDL
MODEL 7
REMARK VINA RESULT:      -5.7      2.270      3.350
REMARK  16 active torsions:
REMARK  status: ('A' for Active; 'I' for Inactive)
REMARK    1  A    between atoms: C_1  and  C_2 
REMARK    2  A    between atoms: C_1  and  C_28 
REMARK    3  A    between atoms: C_2  and  C_3 
REMARK    4  A    between atoms: C_3  and  C_4 
REMARK    5  A    between atoms: C_4  and  C_5 
REMARK    6  A    between atoms: C_5  and  C_6 
REMARK    7  A    between atoms: C_6  and  O_7 
REMARK    8  A    between atoms: C_8  and  O_7 
REMARK    9  A    between atoms: C_10  and  C_11 
REMARK   10  A    between atoms: C_11  and  O_12 
REMARK   11  A    between atoms: C_13  and  O_14 
REMARK   12  A    between atoms: C_15  and  N_16 
REMARK   13  A    between atoms: C_17  and  O_18 
REMARK   14  A    between atoms: C_19  and  O_18 
REMARK   15  A    between atoms: C_24  and  O_25 
REMARK   16  A    between atoms: C_26  and  O_27 
ROOT
HETATM    1  C   UNK N   1      35.076  15.472   8.713  0.00  0.00     0.291 C 
HETATM    2  O   UNK N   1      34.843  15.586   7.304  0.00  0.00    -0.349 OA
HETATM    3  C   UNK N   1      34.748  14.328   6.692  0.00  0.00     0.179 C 
HETATM    4  C   UNK N   1      33.454  13.609   7.148  0.00  0.00     0.174 C 
HETATM    5  C   UNK N   1      33.144  13.886   8.643  0.00  0.00     0.139 C 
HETATM    6  C   UNK N   1      34.476  14.179   9.391  0.00  0.00     0.204 C 
ENDROOT
BRANCH   6   7
HETATM    7  O   UNK N   1      34.438  14.467  10.796  0.00  0.00    -0.349 OA
BRANCH   7   8
HETATM    8  C   UNK N   1      35.021  13.528  11.670  0.00  0.00     0.263 C 
HETATM    9  C   UNK N   1      36.494  13.259  11.285  0.00  0.00     0.095 C 
HETATM   10  C   UNK N   1      37.234  12.400  12.316  0.00  0.00     0.154 C 
HETATM   11  C   UNK N   1      36.314  12.034  13.485  0.00  0.00     0.175 C 
HETATM   12  C   UNK N   1      35.613  13.319  13.995  0.00  0.00     0.151 C 
HETATM   13  O   UNK N   1      34.945  14.075  12.983  0.00  0.00    -0.354 OA
HETATM   14  C   UNK N   1      36.614  14.242  14.678  0.00  0.00     0.042 C 
BRANCH  10  15
HETATM   15  O   UNK N   1      37.718  11.240  11.707  0.00  0.00    -0.393 OA
HETATM   16  H   UNK N   1      37.122  10.524  11.441  0.00  0.00     0.210 HD
ENDBRANCH  10  15
BRANCH  11  17
HETATM   17  O   UNK N   1      37.031  11.407  14.508  0.00  0.00    -0.390 OA
HETATM   18  H   UNK N   1      37.604  10.651  14.307  0.00  0.00     0.210 HD
ENDBRANCH  11  17
ENDBRANCH   7   8
ENDBRANCH   6   7
BRANCH   1  19
HETATM   19  O   UNK N   1      34.472  16.610   9.303  0.00  0.00    -0.359 OA
BRANCH  19  20
HETATM   20  C   UNK N   1      34.378  17.642   8.348  0.00  0.00     0.171 C 
BRANCH  20  21
HETATM   21  C   UNK N   1      32.992  18.262   8.375  0.00  0.00     0.026 C 
BRANCH  21  22
HETATM   22  C   UNK N   1      31.970  17.323   7.760  0.00  0.00     0.002 C 
BRANCH  22  23
HETATM   23  C   UNK N   1      30.818  17.125   8.731  0.00  0.00     0.000 C 
BRANCH  23  24
HETATM   24  C   UNK N   1      30.221  18.453   9.171  0.00  0.00     0.000 C 
BRANCH  24  25
HETATM   25  C   UNK N   1      28.709  18.453   9.014  0.00  0.00    -0.000 C 
BRANCH  25  26
HETATM   26  C   UNK N   1      28.322  19.022   7.662  0.00  0.00    -0.005 C 
HETATM   27  C   UNK N   1      27.905  17.901   6.729  0.00  0.00     0.005 C 
ENDBRANCH  25  26
ENDBRANCH  24  25
ENDBRANCH  23  24
ENDBRANCH  22  23
ENDBRANCH  21  22
ENDBRANCH  20  21
ENDBRANCH  19  20
ENDBRANCH   1  19
BRANCH   5  28
HETATM   28  N   UNK N   1      32.404  12.742   9.154  0.00  0.00    -0.421 N 
HETATM   29  H   UNK N   1      31.821  12.189   8.525  0.00  0.00     0.150 HD
HETATM   30  H   UNK N   1      32.468  12.493  10.141  0.00  0.00     0.150 HD
ENDBRANCH   5  28
BRANCH   4  31
HETATM   31  O   UNK N   1      32.346  13.994   6.387  0.00  0.00    -0.391 OA
HETATM   32  H   UNK N   1      31.854  14.306   5.611  0.00  0.00     0.210 HD
ENDBRANCH   4  31
BRANCH   3  33
HETATM   33  C   UNK N   1      34.828  14.487   5.175  0.00  0.00     0.198 C 
BRANCH  33  34
HETATM   34  O   UNK N   1      34.172  15.648   4.764  0.00  0.00    -0.398 OA
HETATM   35  H   UNK N   1      33.206  15.730   4.719  0.00  0.00     0.209 HD
ENDBRANCH  33  34
ENDBRANCH   3  33
TORSDOF 16
ENDMDL
MODEL 8
REMARK VINA RESULT:      -5.7      7.462     11.050
REMARK  16 active torsions:
REMARK  status: ('A' for Active; 'I' for Inactive)
REMARK    1  A    between atoms: C_1  and  C_2 
REMARK    2  A    between atoms: C_1  and  C_28 
REMARK    3  A    between atoms: C_2  and  C_3 
REMARK    4  A    between atoms: C_3  and  C_4 
REMARK    5  A    between atoms: C_4  and  C_5 
REMARK    6  A    between atoms: C_5  and  C_6 
REMARK    7  A    between atoms: C_6  and  O_7 
REMARK    8  A    between atoms: C_8  and  O_7 
REMARK    9  A    between atoms: C_10  and  C_11 
REMARK   10  A    between atoms: C_11  and  O_12 
REMARK   11  A    between atoms: C_13  and  O_14 
REMARK   12  A    between atoms: C_15  and  N_16 
REMARK   13  A    between atoms: C_17  and  O_18 
REMARK   14  A    between atoms: C_19  and  O_18 
REMARK   15  A    between atoms: C_24  and  O_25 
REMARK   16  A    between atoms: C_26  and  O_27 
ROOT
HETATM    1  C   UNK N   1      22.130  17.705   5.401  0.00  0.00     0.291 C 
HETATM    2  O   UNK N   1      20.805  17.785   4.861  0.00  0.00    -0.349 OA
HETATM    3  C   UNK N   1      20.822  17.902   3.464  0.00  0.00     0.179 C 
HETATM    4  C   UNK N   1      21.323  16.583   2.824  0.00  0.00     0.174 C 
HETATM    5  C   UNK N   1      22.453  15.934   3.667  0.00  0.00     0.139 C 
HETATM    6  C   UNK N   1      23.205  17.047   4.452  0.00  0.00     0.204 C 
ENDROOT
BRANCH   6   7
HETATM    7  O   UNK N   1      24.297  16.681   5.306  0.00  0.00    -0.349 OA
BRANCH   7   8
HETATM    8  C   UNK N   1      25.503  17.398   5.166  0.00  0.00     0.263 C 
HETATM    9  C   UNK N   1      26.341  16.836   3.994  0.00  0.00     0.095 C 
HETATM   10  C   UNK N   1      27.566  17.699   3.670  0.00  0.00     0.154 C 
HETATM   11  C   UNK N   1      27.638  18.918   4.595  0.00  0.00     0.175 C 
HETATM   12  C   UNK N   1      26.256  19.617   4.614  0.00  0.00     0.151 C 
HETATM   13  O   UNK N   1      25.156  18.757   4.920  0.00  0.00    -0.354 OA
HETATM   14  C   UNK N   1      25.968  20.276   3.271  0.00  0.00     0.042 C 
BRANCH  10  15
HETATM   15  O   UNK N   1      28.729  16.935   3.792  0.00  0.00    -0.393 OA
HETATM   16  H   UNK N   1      29.195  16.598   3.012  0.00  0.00     0.210 HD
ENDBRANCH  10  15
BRANCH  11  17
HETATM   17  O   UNK N   1      28.645  19.796   4.187  0.00  0.00    -0.390 OA
HETATM   18  H   UNK N   1      29.077  19.674   3.327  0.00  0.00     0.210 HD
ENDBRANCH  11  17
ENDBRANCH   7   8
ENDBRANCH   6   7
BRANCH   1  19
HETATM   19  O   UNK N   1      22.027  16.920   6.576  0.00  0.00    -0.359 OA
BRANCH  19  20
HETATM   20  C   UNK N   1      20.735  17.055   7.122  0.00  0.00     0.171 C 
BRANCH  20  21
HETATM   21  C   UNK N   1      20.479  15.968   8.151  0.00  0.00     0.026 C 
BRANCH  21  22
HETATM   22  C   UNK N   1      20.636  14.591   7.529  0.00  0.00     0.002 C 
BRANCH  22  23
HETATM   23  C   UNK N   1      21.489  13.722   8.438  0.00  0.00     0.000 C 
BRANCH  23  24
HETATM   24  C   UNK N   1      21.058  13.837   9.892  0.00  0.00     0.000 C 
BRANCH  24  25
HETATM   25  C   UNK N   1      21.265  12.525  10.630  0.00  0.00    -0.000 C 
BRANCH  25  26
HETATM   26  C   UNK N   1      22.746  12.232  10.776  0.00  0.00    -0.005 C 
HETATM   27  C   UNK N   1      23.074  11.933  12.226  0.00  0.00     0.005 C 
ENDBRANCH  25  26
ENDBRANCH  24  25
ENDBRANCH  23  24
ENDBRANCH  22  23
ENDBRANCH  21  22
ENDBRANCH  20  21
ENDBRANCH  19  20
ENDBRANCH   1  19
BRANCH   5  28
HETATM   28  N   UNK N   1      23.290  15.167   2.755  0.00  0.00    -0.421 N 
HETATM   29  H   UNK N   1      23.304  14.148   2.810  0.00  0.00     0.150 HD
HETATM   30  H   UNK N   1      23.862  15.648   2.062  0.00  0.00     0.150 HD
ENDBRANCH   5  28
BRANCH   4  31
HETATM   31  O   UNK N   1      20.292  15.652   2.671  0.00  0.00    -0.391 OA
HETATM   32  H   UNK N   1      19.842  14.793   2.722  0.00  0.00     0.210 HD
ENDBRANCH   4  31
BRANCH   3  33
HETATM   33  C   UNK N   1      19.436  18.307   2.966  0.00  0.00     0.198 C 
BRANCH  33  34
HETATM   34  O   UNK N   1      19.268  17.949   1.627  0.00  0.00    -0.398 OA
HETATM   35  H   UNK N   1      19.530  18.517   0.884  0.00  0.00     0.209 HD
ENDBRANCH  33  34
ENDBRANCH   3  33
TORSDOF 16
ENDMDL
MODEL 9
REMARK VINA RESULT:      -5.7      3.379      4.665
REMARK  16 active torsions:
REMARK  status: ('A' for Active; 'I' for Inactive)
REMARK    1  A    between atoms: C_1  and  C_2 
REMARK    2  A    between atoms: C_1  and  C_28 
REMARK    3  A    between atoms: C_2  and  C_3 
REMARK    4  A    between atoms: C_3  and  C_4 
REMARK    5  A    between atoms: C_4  and  C_5 
REMARK    6  A    between atoms: C_5  and  C_6 
REMARK    7  A    between atoms: C_6  and  O_7 
REMARK    8  A    between atoms: C_8  and  O_7 
REMARK    9  A    between atoms: C_10  and  C_11 
REMARK   10  A    between atoms: C_11  and  O_12 
REMARK   11  A    between atoms: C_13  and  O_14 
REMARK   12  A    between atoms: C_15  and  N_16 
REMARK   13  A    between atoms: C_17  and  O_18 
REMARK   14  A    between atoms: C_19  and  O_18 
REMARK   15  A    between atoms: C_24  and  O_25 
REMARK   16  A    between atoms: C_26  and  O_27 
ROOT
HETATM    1  C   UNK N   1      35.386  15.186   9.439  0.00  0.00     0.291 C 
HETATM    2  O   UNK N   1      35.353  15.341   8.015  0.00  0.00    -0.349 OA
HETATM    3  C   UNK N   1      35.376  14.103   7.359  0.00  0.00     0.179 C 
HETATM    4  C   UNK N   1      34.047  13.345   7.604  0.00  0.00     0.174 C 
HETATM    5  C   UNK N   1      33.522  13.567   9.047  0.00  0.00     0.139 C 
HETATM    6  C   UNK N   1      34.727  13.861   9.986  0.00  0.00     0.204 C 
ENDROOT
BRANCH   6   7
HETATM    7  O   UNK N   1      34.483  14.101  11.378  0.00  0.00    -0.349 OA
BRANCH   7   8
HETATM    8  C   UNK N   1      35.053  13.205  12.305  0.00  0.00     0.263 C 
HETATM    9  C   UNK N   1      36.500  12.841  11.898  0.00  0.00     0.095 C 
HETATM   10  C   UNK N   1      37.236  12.030  12.971  0.00  0.00     0.154 C 
HETATM   11  C   UNK N   1      36.340  11.796  14.191  0.00  0.00     0.175 C 
HETATM   12  C   UNK N   1      35.712  13.146  14.620  0.00  0.00     0.151 C 
HETATM   13  O   UNK N   1      35.044  13.853  13.574  0.00  0.00    -0.354 OA
HETATM   14  C   UNK N   1      36.773  14.072  15.201  0.00  0.00     0.042 C 
BRANCH  10  15
HETATM   15  O   UNK N   1      37.649  10.807  12.438  0.00  0.00    -0.393 OA
HETATM   16  H   UNK N   1      38.523  10.439  12.641  0.00  0.00     0.210 HD
ENDBRANCH  10  15
BRANCH  11  17
HETATM   17  O   UNK N   1      37.062  11.216  15.237  0.00  0.00    -0.390 OA
HETATM   18  H   UNK N   1      38.006  11.025  15.128  0.00  0.00     0.210 HD
ENDBRANCH  11  17
ENDBRANCH   7   8
ENDBRANCH   6   7
BRANCH   1  19
HETATM   19  O   UNK N   1      34.678  16.293   9.970  0.00  0.00    -0.359 OA
BRANCH  19  20
HETATM   20  C   UNK N   1      34.329  17.174   8.927  0.00  0.00     0.171 C 
BRANCH  20  21
HETATM   21  C   UNK N   1      32.820  17.296   8.821  0.00  0.00     0.026 C 
BRANCH  21  22
HETATM   22  C   UNK N   1      32.372  17.189   7.374  0.00  0.00     0.002 C 
BRANCH  22  23
HETATM   23  C   UNK N   1      33.455  17.750   6.468  0.00  0.00     0.000 C 
BRANCH  23  24
HETATM   24  C   UNK N   1      33.469  17.059   5.114  0.00  0.00     0.000 C 
BRANCH  24  25
HETATM   25  C   UNK N   1      32.479  17.705   4.159  0.00  0.00    -0.000 C 
BRANCH  25  26
HETATM   26  C   UNK N   1      32.250  16.810   2.955  0.00  0.00    -0.005 C 
HETATM   27  C   UNK N   1      33.374  15.798   2.841  0.00  0.00     0.005 C 
ENDBRANCH  25  26
ENDBRANCH  24  25
ENDBRANCH  23  24
ENDBRANCH  22  23
ENDBRANCH  21  22
ENDBRANCH  20  21
ENDBRANCH  19  20
ENDBRANCH   1  19
BRANCH   5  28
HETATM   28  N   UNK N   1      32.743  12.392   9.413  0.00  0.00    -0.421 N 
HETATM   29  H   UNK N   1      32.539  12.201  10.394  0.00  0.00     0.150 HD
HETATM   30  H   UNK N   1      32.403  11.761   8.688  0.00  0.00     0.150 HD
ENDBRANCH   5  28
BRANCH   4  31
HETATM   31  O   UNK N   1      33.050  13.733   6.704  0.00  0.00    -0.391 OA
HETATM   32  H   UNK N   1      32.653  14.190   5.946  0.00  0.00     0.210 HD
ENDBRANCH   4  31
BRANCH   3  33
HETATM   33  C   UNK N   1      35.666  14.313   5.874  0.00  0.00     0.198 C 
BRANCH  33  34
HETATM   34  O   UNK N   1      36.912  14.915   5.693  0.00  0.00    -0.398 OA
HETATM   35  H   UNK N   1      37.740  14.545   6.038  0.00  0.00     0.209 HD
ENDBRANCH  33  34
ENDBRANCH   3  33
TORSDOF 16
ENDMDL
