MODEL 1
REMARK VINA RESULT:      -6.3      0.000      0.000
REMARK  3 active torsions:
REMARK  status: ('A' for Active; 'I' for Inactive)
REMARK    1  A    between atoms: N_1  and  C_7 
REMARK    2  A    between atoms: C_7  and  C_8 
REMARK    3  A    between atoms: C_10  and  C_8 
ROOT
HETATM    1  C   UNK N   1      26.946  25.757  -4.397  0.00  0.00     0.023 C 
HETATM    2  C   UNK N   1      26.002  25.108  -5.434  0.00  0.00     0.022 C 
HETATM    3  C   UNK N   1      26.146  26.783  -3.569  0.00  0.00     0.022 C 
HETATM    4  C   UNK N   1      28.070  26.493  -5.155  0.00  0.00     0.022 C 
HETATM    5  C   UNK N   1      27.484  27.576  -6.070  0.00  0.00    -0.013 C 
HETATM    6  C   UNK N   1      26.561  26.905  -7.096  0.00  0.00     0.009 C 
HETATM    7  C   UNK N   1      26.673  28.578  -5.232  0.00  0.00     0.009 C 
HETATM    8  C   UNK N   1      25.537  27.849  -4.499  0.00  0.00    -0.013 C 
HETATM    9  C   UNK N   1      24.618  27.177  -5.535  0.00  0.00     0.009 C 
HETATM   10  C   UNK N   1      25.420  26.172  -6.371  0.00  0.00    -0.013 C 
ENDROOT
BRANCH   1  11
HETATM   11  C   UNK N   1      27.548  24.701  -3.499  0.00  0.00     0.153 C 
HETATM   12  O   UNK N   1      26.831  23.907  -2.907  0.00  0.00    -0.295 OA
BRANCH  11  13
HETATM   13  C   UNK N   1      29.036  24.527  -3.419  0.00  0.00     0.208 C 
BRANCH  13  14
HETATM   14  N   UNK N   1      29.396  23.272  -4.068  0.00  0.00    -0.345 N 
HETATM   15  C   UNK N   1      29.169  22.930  -5.349  0.00  0.00     0.182 A 
HETATM   16  N   UNK N   1      29.686  21.719  -5.623  0.00  0.00    -0.361 N 
HETATM   17  C   UNK N   1      30.256  21.292  -4.474  0.00  0.00     0.106 A 
ATOM     18  HN  UNK N   1      29.656  21.225  -6.515  1.00  0.00     0.166 HD
HETATM   19  C   UNK N   1      30.076  22.260  -3.506  0.00  0.00     0.109 A 
ENDBRANCH  13  14
ENDBRANCH  11  13
ENDBRANCH   1  11
TORSDOF 3
ENDMDL
MODEL 2
REMARK VINA RESULT:      -6.3      0.027      1.778
REMARK  3 active torsions:
REMARK  status: ('A' for Active; 'I' for Inactive)
REMARK    1  A    between atoms: N_1  and  C_7 
REMARK    2  A    between atoms: C_7  and  C_8 
REMARK    3  A    between atoms: C_10  and  C_8 
ROOT
HETATM    1  C   UNK N   1      26.956  25.735  -4.427  0.00  0.00     0.023 C 
HETATM    2  C   UNK N   1      28.073  26.492  -5.178  0.00  0.00     0.022 C 
HETATM    3  C   UNK N   1      26.016  25.082  -5.460  0.00  0.00     0.022 C 
HETATM    4  C   UNK N   1      26.152  26.754  -3.593  0.00  0.00     0.022 C 
HETATM    5  C   UNK N   1      25.532  27.824  -4.500  0.00  0.00    -0.013 C 
HETATM    6  C   UNK N   1      26.661  28.568  -5.225  0.00  0.00     0.009 C 
HETATM    7  C   UNK N   1      24.614  27.155  -5.537  0.00  0.00     0.009 C 
HETATM    8  C   UNK N   1      25.421  26.160  -6.385  0.00  0.00    -0.013 C 
HETATM    9  C   UNK N   1      26.553  26.914  -7.106  0.00  0.00     0.009 C 
HETATM   10  C   UNK N   1      27.475  27.580  -6.077  0.00  0.00    -0.013 C 
ENDROOT
BRANCH   1  11
HETATM   11  C   UNK N   1      27.551  24.689  -3.512  0.00  0.00     0.153 C 
HETATM   12  O   UNK N   1      26.828  23.908  -2.910  0.00  0.00    -0.295 OA
BRANCH  11  13
HETATM   13  C   UNK N   1      29.037  24.509  -3.424  0.00  0.00     0.208 C 
BRANCH  13  14
HETATM   14  N   UNK N   1      29.396  23.262  -4.087  0.00  0.00    -0.345 N 
HETATM   15  C   UNK N   1      29.161  22.930  -5.370  0.00  0.00     0.182 A 
HETATM   16  N   UNK N   1      29.681  21.724  -5.659  0.00  0.00    -0.361 N 
HETATM   17  C   UNK N   1      30.261  21.288  -4.518  0.00  0.00     0.106 A 
ATOM     18  HN  UNK N   1      29.646  21.238  -6.555  1.00  0.00     0.166 HD
HETATM   19  C   UNK N   1      30.085  22.247  -3.540  0.00  0.00     0.109 A 
ENDBRANCH  13  14
ENDBRANCH  11  13
ENDBRANCH   1  11
TORSDOF 3
ENDMDL
MODEL 3
REMARK VINA RESULT:      -5.9     20.583     24.044
REMARK  3 active torsions:
REMARK  status: ('A' for Active; 'I' for Inactive)
REMARK    1  A    between atoms: N_1  and  C_7 
REMARK    2  A    between atoms: C_7  and  C_8 
REMARK    3  A    between atoms: C_10  and  C_8 
ROOT
HETATM    1  C   UNK N   1      35.985  12.491  14.151  0.00  0.00     0.023 C 
HETATM    2  C   UNK N   1      35.177  11.570  13.210  0.00  0.00     0.022 C 
HETATM    3  C   UNK N   1      37.234  11.730  14.638  0.00  0.00     0.022 C 
HETATM    4  C   UNK N   1      35.103  12.836  15.369  0.00  0.00     0.022 C 
HETATM    5  C   UNK N   1      34.694  11.561  16.118  0.00  0.00    -0.013 C 
HETATM    6  C   UNK N   1      33.885  10.671  15.165  0.00  0.00     0.009 C 
HETATM    7  C   UNK N   1      35.951  10.805  16.578  0.00  0.00     0.009 C 
HETATM    8  C   UNK N   1      36.815  10.437  15.362  0.00  0.00    -0.013 C 
HETATM    9  C   UNK N   1      35.995   9.547  14.412  0.00  0.00     0.009 C 
HETATM   10  C   UNK N   1      34.741  10.298  13.944  0.00  0.00    -0.013 C 
ENDROOT
BRANCH   1  11
HETATM   11  C   UNK N   1      36.379  13.762  13.436  0.00  0.00     0.153 C 
HETATM   12  O   UNK N   1      36.582  14.791  14.065  0.00  0.00    -0.295 OA
BRANCH  11  13
HETATM   13  C   UNK N   1      36.654  13.753  11.961  0.00  0.00     0.208 C 
BRANCH  13  14
HETATM   14  N   UNK N   1      35.805  14.750  11.322  0.00  0.00    -0.345 N 
HETATM   15  C   UNK N   1      34.465  14.720  11.208  0.00  0.00     0.182 A 
HETATM   16  N   UNK N   1      34.006  15.833  10.610  0.00  0.00    -0.361 N 
HETATM   17  C   UNK N   1      35.097  16.585  10.342  0.00  0.00     0.106 A 
ATOM     18  HN  UNK N   1      33.034  16.064  10.402  1.00  0.00     0.166 HD
HETATM   19  C   UNK N   1      36.217  15.911  10.787  0.00  0.00     0.109 A 
ENDBRANCH  13  14
ENDBRANCH  11  13
ENDBRANCH   1  11
TORSDOF 3
ENDMDL
MODEL 4
REMARK VINA RESULT:      -5.8     20.523     23.985
REMARK  3 active torsions:
REMARK  status: ('A' for Active; 'I' for Inactive)
REMARK    1  A    between atoms: N_1  and  C_7 
REMARK    2  A    between atoms: C_7  and  C_8 
REMARK    3  A    between atoms: C_10  and  C_8 
ROOT
HETATM    1  C   UNK N   1      35.899  12.486  14.093  0.00  0.00     0.023 C 
HETATM    2  C   UNK N   1      35.082  12.817  15.362  0.00  0.00     0.022 C 
HETATM    3  C   UNK N   1      35.028  11.633  13.149  0.00  0.00     0.022 C 
HETATM    4  C   UNK N   1      37.136  11.663  14.512  0.00  0.00     0.022 C 
HETATM    5  C   UNK N   1      36.710  10.364  15.207  0.00  0.00    -0.013 C 
HETATM    6  C   UNK N   1      35.911  10.721  16.467  0.00  0.00     0.009 C 
HETATM    7  C   UNK N   1      35.825   9.536  14.260  0.00  0.00     0.009 C 
HETATM    8  C   UNK N   1      34.580  10.345  13.866  0.00  0.00    -0.013 C 
HETATM    9  C   UNK N   1      33.787  10.701  15.136  0.00  0.00     0.009 C 
HETATM   10  C   UNK N   1      34.663  11.532  16.083  0.00  0.00    -0.013 C 
ENDROOT
BRANCH   1  11
HETATM   11  C   UNK N   1      36.345  13.756  13.406  0.00  0.00     0.153 C 
HETATM   12  O   UNK N   1      36.575  14.765  14.056  0.00  0.00    -0.295 OA
BRANCH  11  13
HETATM   13  C   UNK N   1      36.635  13.764  11.934  0.00  0.00     0.208 C 
BRANCH  13  14
HETATM   14  N   UNK N   1      35.793  14.769  11.298  0.00  0.00    -0.345 N 
HETATM   15  C   UNK N   1      34.455  14.735  11.162  0.00  0.00     0.182 A 
HETATM   16  N   UNK N   1      34.002  15.857  10.574  0.00  0.00    -0.361 N 
HETATM   17  C   UNK N   1      35.094  16.616  10.336  0.00  0.00     0.106 A 
ATOM     18  HN  UNK N   1      33.033  16.087  10.355  1.00  0.00     0.166 HD
HETATM   19  C   UNK N   1      36.209  15.939  10.788  0.00  0.00     0.109 A 
ENDBRANCH  13  14
ENDBRANCH  11  13
ENDBRANCH   1  11
TORSDOF 3
ENDMDL
MODEL 5
REMARK VINA RESULT:      -5.8     13.550     15.967
REMARK  3 active torsions:
REMARK  status: ('A' for Active; 'I' for Inactive)
REMARK    1  A    between atoms: N_1  and  C_7 
REMARK    2  A    between atoms: C_7  and  C_8 
REMARK    3  A    between atoms: C_10  and  C_8 
ROOT
HETATM    1  C   UNK N   1      32.978  16.623   5.998  0.00  0.00     0.023 C 
HETATM    2  C   UNK N   1      31.700  17.003   6.778  0.00  0.00     0.022 C 
HETATM    3  C   UNK N   1      33.062  17.493   4.727  0.00  0.00     0.022 C 
HETATM    4  C   UNK N   1      32.873  15.141   5.583  0.00  0.00     0.022 C 
HETATM    5  C   UNK N   1      31.641  14.914   4.699  0.00  0.00    -0.013 C 
HETATM    6  C   UNK N   1      30.386  15.287   5.501  0.00  0.00     0.009 C 
HETATM    7  C   UNK N   1      31.729  15.803   3.448  0.00  0.00     0.009 C 
HETATM    8  C   UNK N   1      31.806  17.281   3.861  0.00  0.00    -0.013 C 
HETATM    9  C   UNK N   1      30.546  17.646   4.666  0.00  0.00     0.009 C 
HETATM   10  C   UNK N   1      30.454  16.765   5.919  0.00  0.00    -0.013 C 
ENDROOT
BRANCH   1  11
HETATM   11  C   UNK N   1      34.203  16.822   6.861  0.00  0.00     0.153 C 
HETATM   12  O   UNK N   1      34.556  17.946   7.187  0.00  0.00    -0.295 OA
BRANCH  11  13
HETATM   13  C   UNK N   1      34.929  15.642   7.437  0.00  0.00     0.208 C 
BRANCH  13  14
HETATM   14  N   UNK N   1      34.590  15.530   8.850  0.00  0.00    -0.345 N 
HETATM   15  C   UNK N   1      33.436  15.077   9.373  0.00  0.00     0.182 A 
HETATM   16  N   UNK N   1      33.490  15.057  10.716  0.00  0.00    -0.361 N 
HETATM   17  C   UNK N   1      34.720  15.512  11.044  0.00  0.00     0.106 A 
ATOM     18  HN  UNK N   1      32.755  14.759  11.357  1.00  0.00     0.166 HD
HETATM   19  C   UNK N   1      35.406  15.805   9.881  0.00  0.00     0.109 A 
ENDBRANCH  13  14
ENDBRANCH  11  13
ENDBRANCH   1  11
TORSDOF 3
ENDMDL
MODEL 6
REMARK VINA RESULT:      -5.6      3.321      4.931
REMARK  3 active torsions:
REMARK  status: ('A' for Active; 'I' for Inactive)
REMARK    1  A    between atoms: N_1  and  C_7 
REMARK    2  A    between atoms: C_7  and  C_8 
REMARK    3  A    between atoms: C_10  and  C_8 
ROOT
HETATM    1  C   UNK N   1      26.431  27.380  -4.924  0.00  0.00     0.023 C 
HETATM    2  C   UNK N   1      25.130  26.749  -5.466  0.00  0.00     0.022 C 
HETATM    3  C   UNK N   1      27.118  28.159  -6.064  0.00  0.00     0.022 C 
HETATM    4  C   UNK N   1      27.367  26.244  -4.461  0.00  0.00     0.022 C 
HETATM    5  C   UNK N   1      27.695  25.305  -5.628  0.00  0.00    -0.013 C 
HETATM    6  C   UNK N   1      26.388  24.684  -6.140  0.00  0.00     0.009 C 
HETATM    7  C   UNK N   1      28.359  26.101  -6.764  0.00  0.00     0.009 C 
HETATM    8  C   UNK N   1      27.416  27.215  -7.243  0.00  0.00    -0.013 C 
HETATM    9  C   UNK N   1      26.108  26.583  -7.752  0.00  0.00     0.009 C 
HETATM   10  C   UNK N   1      25.437  25.791  -6.622  0.00  0.00    -0.013 C 
ENDROOT
BRANCH   1  11
HETATM   11  C   UNK N   1      26.130  28.294  -3.759  0.00  0.00     0.153 C 
HETATM   12  O   UNK N   1      25.469  27.894  -2.812  0.00  0.00    -0.295 OA
BRANCH  11  13
HETATM   13  C   UNK N   1      26.741  29.662  -3.685  0.00  0.00     0.208 C 
BRANCH  13  14
HETATM   14  N   UNK N   1      27.891  29.612  -2.791  0.00  0.00    -0.345 N 
HETATM   15  C   UNK N   1      29.108  29.108  -3.066  0.00  0.00     0.182 A 
HETATM   16  N   UNK N   1      29.946  29.280  -2.028  0.00  0.00    -0.361 N 
HETATM   17  C   UNK N   1      29.228  29.914  -1.074  0.00  0.00     0.106 A 
ATOM     18  HN  UNK N   1      30.923  28.993  -1.972  1.00  0.00     0.166 HD
HETATM   19  C   UNK N   1      27.949  30.122  -1.550  0.00  0.00     0.109 A 
ENDBRANCH  13  14
ENDBRANCH  11  13
ENDBRANCH   1  11
TORSDOF 3
ENDMDL
MODEL 7
REMARK VINA RESULT:      -5.6     21.110     24.422
REMARK  3 active torsions:
REMARK  status: ('A' for Active; 'I' for Inactive)
REMARK    1  A    between atoms: N_1  and  C_7 
REMARK    2  A    between atoms: C_7  and  C_8 
REMARK    3  A    between atoms: C_10  and  C_8 
ROOT
HETATM    1  C   UNK N   1      35.801  12.456  14.260  0.00  0.00     0.023 C 
HETATM    2  C   UNK N   1      37.186  11.854  14.585  0.00  0.00     0.022 C 
HETATM    3  C   UNK N   1      35.061  12.742  15.581  0.00  0.00     0.022 C 
HETATM    4  C   UNK N   1      34.997  11.417  13.451  0.00  0.00     0.022 C 
HETATM    5  C   UNK N   1      34.822  10.123  14.256  0.00  0.00    -0.013 C 
HETATM    6  C   UNK N   1      36.210   9.541  14.555  0.00  0.00     0.009 C 
HETATM    7  C   UNK N   1      34.101  10.430  15.579  0.00  0.00     0.009 C 
HETATM    8  C   UNK N   1      34.917  11.443  16.397  0.00  0.00    -0.013 C 
HETATM    9  C   UNK N   1      36.307  10.852  16.690  0.00  0.00     0.009 C 
HETATM   10  C   UNK N   1      37.034  10.548  15.373  0.00  0.00    -0.013 C 
ENDROOT
BRANCH   1  11
HETATM   11  C   UNK N   1      35.953  13.722  13.449  0.00  0.00     0.153 C 
HETATM   12  O   UNK N   1      36.503  14.703  13.928  0.00  0.00    -0.295 OA
BRANCH  11  13
HETATM   13  C   UNK N   1      35.548  13.755  12.005  0.00  0.00     0.208 C 
BRANCH  13  14
HETATM   14  N   UNK N   1      36.752  13.781  11.183  0.00  0.00    -0.345 N 
HETATM   15  C   UNK N   1      37.161  14.778  10.378  0.00  0.00     0.182 A 
HETATM   16  N   UNK N   1      38.347  14.486   9.814  0.00  0.00    -0.361 N 
HETATM   17  C   UNK N   1      38.689  13.266  10.284  0.00  0.00     0.106 A 
ATOM     18  HN  UNK N   1      38.879  15.067   9.166  1.00  0.00     0.166 HD
HETATM   19  C   UNK N   1      37.696  12.828  11.138  0.00  0.00     0.109 A 
ENDBRANCH  13  14
ENDBRANCH  11  13
ENDBRANCH   1  11
TORSDOF 3
ENDMDL
MODEL 8
REMARK VINA RESULT:      -5.3      2.372      3.718
REMARK  3 active torsions:
REMARK  status: ('A' for Active; 'I' for Inactive)
REMARK    1  A    between atoms: N_1  and  C_7 
REMARK    2  A    between atoms: C_7  and  C_8 
REMARK    3  A    between atoms: C_10  and  C_8 
ROOT
HETATM    1  C   UNK N   1      29.332  23.622  -3.597  0.00  0.00     0.023 C 
HETATM    2  C   UNK N   1      27.986  23.706  -2.844  0.00  0.00     0.022 C 
HETATM    3  C   UNK N   1      29.902  25.046  -3.755  0.00  0.00     0.022 C 
HETATM    4  C   UNK N   1      29.071  23.030  -4.998  0.00  0.00     0.022 C 
HETATM    5  C   UNK N   1      28.092  23.913  -5.783  0.00  0.00    -0.013 C 
HETATM    6  C   UNK N   1      26.762  23.969  -5.020  0.00  0.00     0.009 C 
HETATM    7  C   UNK N   1      28.666  25.333  -5.913  0.00  0.00     0.009 C 
HETATM    8  C   UNK N   1      28.900  25.933  -4.518  0.00  0.00    -0.013 C 
HETATM    9  C   UNK N   1      27.562  25.983  -3.760  0.00  0.00     0.009 C 
HETATM   10  C   UNK N   1      26.986  24.568  -3.622  0.00  0.00    -0.013 C 
ENDROOT
BRANCH   1  11
HETATM   11  C   UNK N   1      30.303  22.740  -2.847  0.00  0.00     0.153 C 
HETATM   12  O   UNK N   1      30.651  23.026  -1.711  0.00  0.00    -0.295 OA
BRANCH  11  13
HETATM   13  C   UNK N   1      30.755  21.435  -3.433  0.00  0.00     0.208 C 
BRANCH  13  14
HETATM   14  N   UNK N   1      32.143  21.568  -3.855  0.00  0.00    -0.345 N 
HETATM   15  C   UNK N   1      32.662  22.528  -4.641  0.00  0.00     0.182 A 
HETATM   16  N   UNK N   1      33.991  22.374  -4.777  0.00  0.00    -0.361 N 
HETATM   17  C   UNK N   1      34.313  21.281  -4.051  0.00  0.00     0.106 A 
ATOM     18  HN  UNK N   1      34.626  22.962  -5.317  1.00  0.00     0.166 HD
HETATM   19  C   UNK N   1      33.162  20.780  -3.475  0.00  0.00     0.109 A 
ENDBRANCH  13  14
ENDBRANCH  11  13
ENDBRANCH   1  11
TORSDOF 3
ENDMDL
MODEL 9
REMARK VINA RESULT:      -5.2      2.465      3.354
REMARK  3 active torsions:
REMARK  status: ('A' for Active; 'I' for Inactive)
REMARK    1  A    between atoms: N_1  and  C_7 
REMARK    2  A    between atoms: C_7  and  C_8 
REMARK    3  A    between atoms: C_10  and  C_8 
ROOT
HETATM    1  C   UNK N   1      26.134  25.721  -5.576  0.00  0.00     0.023 C 
HETATM    2  C   UNK N   1      25.047  26.813  -5.690  0.00  0.00     0.022 C 
HETATM    3  C   UNK N   1      26.353  25.391  -4.086  0.00  0.00     0.022 C 
HETATM    4  C   UNK N   1      27.448  26.278  -6.163  0.00  0.00     0.022 C 
HETATM    5  C   UNK N   1      27.892  27.531  -5.398  0.00  0.00    -0.013 C 
HETATM    6  C   UNK N   1      26.802  28.603  -5.536  0.00  0.00     0.009 C 
HETATM    7  C   UNK N   1      28.085  27.189  -3.911  0.00  0.00     0.009 C 
HETATM    8  C   UNK N   1      26.769  26.661  -3.321  0.00  0.00    -0.013 C 
HETATM    9  C   UNK N   1      25.682  27.740  -3.466  0.00  0.00     0.009 C 
HETATM   10  C   UNK N   1      25.480  28.082  -4.948  0.00  0.00    -0.013 C 
ENDROOT
BRANCH   1  11
HETATM   11  C   UNK N   1      25.722  24.485  -6.342  0.00  0.00     0.153 C 
HETATM   12  O   UNK N   1      25.055  23.614  -5.802  0.00  0.00    -0.295 OA
BRANCH  11  13
HETATM   13  C   UNK N   1      26.014  24.364  -7.808  0.00  0.00     0.208 C 
BRANCH  13  14
HETATM   14  N   UNK N   1      26.571  23.042  -8.066  0.00  0.00    -0.345 N 
HETATM   15  C   UNK N   1      27.795  22.600  -7.727  0.00  0.00     0.182 A 
HETATM   16  N   UNK N   1      27.954  21.309  -8.069  0.00  0.00    -0.361 N 
HETATM   17  C   UNK N   1      26.788  20.933  -8.641  0.00  0.00     0.106 A 
ATOM     18  HN  UNK N   1      28.782  20.732  -7.926  1.00  0.00     0.166 HD
HETATM   19  C   UNK N   1      25.926  22.012  -8.637  0.00  0.00     0.109 A 
ENDBRANCH  13  14
ENDBRANCH  11  13
ENDBRANCH   1  11
TORSDOF 3
ENDMDL
