MODEL 1
REMARK VINA RESULT:      -8.1      0.000      0.000
REMARK  3 active torsions:
REMARK  status: ('A' for Active; 'I' for Inactive)
REMARK    1  A    between atoms: C_1  and  O_2 
REMARK    2  A    between atoms: O_2  and  C_10 
REMARK       I    between atoms: C_13  and  N_14 
REMARK    3  A    between atoms: N_14  and  C_21 
REMARK       I    between atoms: C_17  and  N_18 
ROOT
HETATM    1  C   UNK N   1      34.684  16.764   9.109  0.00  0.00     0.049 C 
HETATM    2  C   UNK N   1      34.120  15.625   8.593  0.00  0.00     0.031 C 
HETATM    3  C   UNK N   1      33.242  15.736   7.532  0.00  0.00     0.025 C 
HETATM    4  C   UNK N   1      32.939  16.988   6.998  0.00  0.00     0.044 C 
HETATM    5  C   UNK N   1      33.691  18.101   7.346  0.00  0.00     0.025 C 
HETATM    6  C   UNK N   1      34.628  17.968   8.356  0.00  0.00     0.031 C 
HETATM    7  C   UNK N   1      31.855  17.094   6.086  0.00  0.00     0.099 C 
HETATM    8  N   UNK N   1      30.967  17.138   5.349  0.00  0.00    -0.191 NA
ENDROOT
BRANCH   1   9
HETATM    9  N   UNK N   1      34.620  16.861  10.525  0.00  0.00    -0.191 N 
HETATM   10  C   UNK N   1      35.457  15.998  11.251  0.00  0.00     0.700 C 
HETATM   11  N   UNK N   1      34.812  15.026  11.904  0.00  0.00    -0.153 N 
HETATM   12  N   UNK N   1      36.712  15.752  10.739  0.00  0.00    -0.022 N 
HETATM   13  C   UNK N   1      35.328  13.794  11.927  0.00  0.00     0.258 C 
ATOM     14  HN  UNK N   1      33.931  15.224  12.379  1.00  0.00     0.188 HD
HETATM   15  N   UNK N   1      36.438  13.516  11.243  0.00  0.00    -0.154 N 
HETATM   16  C   UNK N   1      37.173  14.485  10.698  0.00  0.00     0.693 C 
ATOM     17  HN  UNK N   1      36.729  12.546  11.134  1.00  0.00     0.188 HD
HETATM   18  N   UNK N   1      38.351  14.155   9.999  0.00  0.00    -0.234 N 
HETATM   19  H   UNK N   1      38.906  13.398  10.299  0.00  0.00     0.174 HD
HETATM   20  H   UNK N   1      38.619  14.681   9.211  0.00  0.00     0.174 HD
ATOM     21  HN  UNK N   1      37.286  16.520  10.392  1.00  0.00     0.203 HD
HETATM   22  H   UNK N   1      34.020  17.499  10.974  0.00  0.00     0.184 HD
BRANCH  13  23
HETATM   23  O   UNK N   1      34.749  12.873  12.673  0.00  0.00    -0.275 OA
BRANCH  23  24
HETATM   24  C   UNK N   1      35.143  12.506  13.917  0.00  0.00     0.122 A 
HETATM   25  C   UNK N   1      35.963  13.265  14.857  0.00  0.00     0.069 A 
HETATM   26 Cl   UNK N   1      36.729  14.855  14.749  0.00  0.00    -0.081 Cl
HETATM   27  C   UNK N   1      36.246  12.698  16.087  0.00  0.00     0.027 A 
HETATM   28  C   UNK N   1      35.763  11.455  16.446  0.00  0.00     0.003 A 
HETATM   29  C   UNK N   1      34.946  10.751  15.579  0.00  0.00     0.027 A 
HETATM   30  C   UNK N   1      34.638  11.265  14.329  0.00  0.00     0.069 A 
HETATM   31 Cl   UNK N   1      33.516  10.373  13.305  0.00  0.00    -0.081 Cl
ENDBRANCH  23  24
ENDBRANCH  13  23
ENDBRANCH   1   9
TORSDOF 3
ENDMDL
MODEL 2
REMARK VINA RESULT:      -7.9      0.997      2.093
REMARK  3 active torsions:
REMARK  status: ('A' for Active; 'I' for Inactive)
REMARK    1  A    between atoms: C_1  and  O_2 
REMARK    2  A    between atoms: O_2  and  C_10 
REMARK       I    between atoms: C_13  and  N_14 
REMARK    3  A    between atoms: N_14  and  C_21 
REMARK       I    between atoms: C_17  and  N_18 
ROOT
HETATM    1  C   UNK N   1      34.563  16.683   9.267  0.00  0.00     0.049 C 
HETATM    2  C   UNK N   1      33.667  15.644   9.216  0.00  0.00     0.031 C 
HETATM    3  C   UNK N   1      32.507  15.798   8.482  0.00  0.00     0.025 C 
HETATM    4  C   UNK N   1      32.255  16.993   7.807  0.00  0.00     0.044 C 
HETATM    5  C   UNK N   1      33.260  17.937   7.651  0.00  0.00     0.025 C 
HETATM    6  C   UNK N   1      34.453  17.740   8.324  0.00  0.00     0.031 C 
HETATM    7  C   UNK N   1      30.956  17.213   7.277  0.00  0.00     0.099 C 
HETATM    8  N   UNK N   1      29.888  17.355   6.861  0.00  0.00    -0.191 NA
ENDROOT
BRANCH   1   9
HETATM    9  N   UNK N   1      35.015  17.002  10.575  0.00  0.00    -0.191 N 
HETATM   10  C   UNK N   1      35.821  16.044  11.212  0.00  0.00     0.700 C 
HETATM   11  N   UNK N   1      35.228  15.420  12.235  0.00  0.00    -0.153 N 
HETATM   12  N   UNK N   1      36.725  15.357  10.432  0.00  0.00    -0.022 N 
HETATM   13  C   UNK N   1      35.413  14.106  12.401  0.00  0.00     0.258 C 
ATOM     14  HN  UNK N   1      34.639  15.942  12.883  1.00  0.00     0.188 HD
HETATM   15  N   UNK N   1      36.120  13.409  11.511  0.00  0.00    -0.154 N 
HETATM   16  C   UNK N   1      36.829  14.019  10.563  0.00  0.00     0.693 C 
ATOM     17  HN  UNK N   1      36.116  12.391  11.557  1.00  0.00     0.188 HD
HETATM   18  N   UNK N   1      37.580  13.249   9.652  0.00  0.00    -0.234 N 
HETATM   19  H   UNK N   1      38.008  12.413   9.949  0.00  0.00     0.174 HD
HETATM   20  H   UNK N   1      37.677  13.547   8.719  0.00  0.00     0.174 HD
ATOM     21  HN  UNK N   1      37.310  15.856   9.762  1.00  0.00     0.203 HD
HETATM   22  H   UNK N   1      34.776  17.851  11.014  0.00  0.00     0.184 HD
BRANCH  13  23
HETATM   23  O   UNK N   1      34.926  13.524  13.479  0.00  0.00    -0.275 OA
BRANCH  23  24
HETATM   24  C   UNK N   1      35.332  12.333  13.982  0.00  0.00     0.122 A 
HETATM   25  C   UNK N   1      34.928  10.996  13.556  0.00  0.00     0.069 A 
HETATM   26 Cl   UNK N   1      33.812  10.435  12.303  0.00  0.00    -0.081 Cl
HETATM   27  C   UNK N   1      35.473   9.905  14.211  0.00  0.00     0.027 A 
HETATM   28  C   UNK N   1      36.389  10.052  15.234  0.00  0.00     0.003 A 
HETATM   29  C   UNK N   1      36.813  11.315  15.611  0.00  0.00     0.027 A 
HETATM   30  C   UNK N   1      36.293  12.443  14.997  0.00  0.00     0.069 A 
HETATM   31 Cl   UNK N   1      36.938  14.019  15.447  0.00  0.00    -0.081 Cl
ENDBRANCH  23  24
ENDBRANCH  13  23
ENDBRANCH   1   9
TORSDOF 3
ENDMDL
MODEL 3
REMARK VINA RESULT:      -7.5      5.496     10.173
REMARK  3 active torsions:
REMARK  status: ('A' for Active; 'I' for Inactive)
REMARK    1  A    between atoms: C_1  and  O_2 
REMARK    2  A    between atoms: O_2  and  C_10 
REMARK       I    between atoms: C_13  and  N_14 
REMARK    3  A    between atoms: N_14  and  C_21 
REMARK       I    between atoms: C_17  and  N_18 
ROOT
HETATM    1  C   UNK N   1      32.466  15.618   6.684  0.00  0.00     0.049 C 
HETATM    2  C   UNK N   1      32.252  16.825   7.301  0.00  0.00     0.031 C 
HETATM    3  C   UNK N   1      33.094  17.208   8.328  0.00  0.00     0.025 C 
HETATM    4  C   UNK N   1      34.141  16.377   8.727  0.00  0.00     0.044 C 
HETATM    5  C   UNK N   1      34.509  15.288   7.947  0.00  0.00     0.025 C 
HETATM    6  C   UNK N   1      33.709  14.954   6.870  0.00  0.00     0.031 C 
HETATM    7  C   UNK N   1      34.824  16.676   9.935  0.00  0.00     0.099 C 
HETATM    8  N   UNK N   1      35.354  16.953  10.924  0.00  0.00    -0.191 NA
ENDROOT
BRANCH   1   9
HETATM    9  N   UNK N   1      31.300  14.820   6.539  0.00  0.00    -0.191 N 
HETATM   10  C   UNK N   1      30.469  15.117   5.446  0.00  0.00     0.700 C 
HETATM   11  N   UNK N   1      29.299  15.672   5.780  0.00  0.00    -0.153 N 
HETATM   12  N   UNK N   1      31.078  15.480   4.266  0.00  0.00    -0.022 N 
HETATM   13  C   UNK N   1      28.810  16.671   5.039  0.00  0.00     0.258 C 
ATOM     14  HN  UNK N   1      28.786  15.336   6.595  1.00  0.00     0.188 HD
HETATM   15  N   UNK N   1      29.516  17.162   4.021  0.00  0.00    -0.154 N 
HETATM   16  C   UNK N   1      30.613  16.547   3.582  0.00  0.00     0.693 C 
ATOM     17  HN  UNK N   1      29.210  18.023   3.570  1.00  0.00     0.188 HD
HETATM   18  N   UNK N   1      31.322  17.084   2.490  0.00  0.00    -0.234 N 
HETATM   19  H   UNK N   1      30.836  17.531   1.760  0.00  0.00     0.174 HD
HETATM   20  H   UNK N   1      32.304  17.012   2.457  0.00  0.00     0.174 HD
ATOM     21  HN  UNK N   1      31.875  14.950   3.912  1.00  0.00     0.203 HD
HETATM   22  H   UNK N   1      31.085  14.096   7.171  0.00  0.00     0.184 HD
BRANCH  13  23
HETATM   23  O   UNK N   1      27.601  17.129   5.304  0.00  0.00    -0.275 OA
BRANCH  23  24
HETATM   24  C   UNK N   1      27.301  18.407   5.641  0.00  0.00     0.122 A 
HETATM   25  C   UNK N   1      27.835  19.189   6.753  0.00  0.00     0.069 A 
HETATM   26 Cl   UNK N   1      29.003  18.802   8.023  0.00  0.00    -0.081 Cl
HETATM   27  C   UNK N   1      27.389  20.489   6.914  0.00  0.00     0.027 A 
HETATM   28  C   UNK N   1      26.474  21.058   6.051  0.00  0.00     0.003 A 
HETATM   29  C   UNK N   1      26.000  20.339   4.968  0.00  0.00     0.027 A 
HETATM   30  C   UNK N   1      26.404  19.030   4.763  0.00  0.00     0.069 A 
HETATM   31 Cl   UNK N   1      25.845  18.193   3.316  0.00  0.00    -0.081 Cl
ENDBRANCH  23  24
ENDBRANCH  13  23
ENDBRANCH   1   9
TORSDOF 3
ENDMDL
MODEL 4
REMARK VINA RESULT:      -7.5      9.886     12.692
REMARK  3 active torsions:
REMARK  status: ('A' for Active; 'I' for Inactive)
REMARK    1  A    between atoms: C_1  and  O_2 
REMARK    2  A    between atoms: O_2  and  C_10 
REMARK       I    between atoms: C_13  and  N_14 
REMARK    3  A    between atoms: N_14  and  C_21 
REMARK       I    between atoms: C_17  and  N_18 
ROOT
HETATM    1  C   UNK N   1      23.742  13.172   8.228  0.00  0.00     0.049 C 
HETATM    2  C   UNK N   1      24.825  13.165   9.070  0.00  0.00     0.031 C 
HETATM    3  C   UNK N   1      24.670  12.677  10.353  0.00  0.00     0.025 C 
HETATM    4  C   UNK N   1      23.431  12.202  10.781  0.00  0.00     0.044 C 
HETATM    5  C   UNK N   1      22.411  11.976   9.865  0.00  0.00     0.025 C 
HETATM    6  C   UNK N   1      22.600  12.393   8.560  0.00  0.00     0.031 C 
HETATM    7  C   UNK N   1      23.241  11.946  12.164  0.00  0.00     0.099 C 
HETATM    8  N   UNK N   1      23.126  11.751  13.297  0.00  0.00    -0.191 NA
ENDROOT
BRANCH   1   9
HETATM    9  N   UNK N   1      23.532  14.404   7.552  0.00  0.00    -0.191 N 
HETATM   10  C   UNK N   1      24.418  14.702   6.503  0.00  0.00     0.700 C 
HETATM   11  N   UNK N   1      25.268  15.699   6.769  0.00  0.00    -0.153 N 
HETATM   12  N   UNK N   1      24.826  13.659   5.703  0.00  0.00    -0.022 N 
HETATM   13  C   UNK N   1      26.541  15.601   6.372  0.00  0.00     0.258 C 
ATOM     14  HN  UNK N   1      24.948  16.527   7.270  1.00  0.00     0.188 HD
HETATM   15  N   UNK N   1      26.979  14.487   5.786  0.00  0.00    -0.154 N 
HETATM   16  C   UNK N   1      26.133  13.538   5.389  0.00  0.00     0.693 C 
ATOM     17  HN  UNK N   1      27.980  14.359   5.638  1.00  0.00     0.188 HD
HETATM   18  N   UNK N   1      26.631  12.383   4.754  0.00  0.00    -0.234 N 
HETATM   19  H   UNK N   1      27.414  12.447   4.160  0.00  0.00     0.174 HD
HETATM   20  H   UNK N   1      26.195  11.512   4.902  0.00  0.00     0.174 HD
ATOM     21  HN  UNK N   1      24.148  12.983   5.351  1.00  0.00     0.203 HD
HETATM   22  H   UNK N   1      22.805  15.018   7.806  0.00  0.00     0.184 HD
BRANCH  13  23
HETATM   23  O   UNK N   1      27.341  16.638   6.530  0.00  0.00    -0.275 OA
BRANCH  23  24
HETATM   24  C   UNK N   1      27.291  17.786   5.812  0.00  0.00     0.122 A 
HETATM   25  C   UNK N   1      26.822  17.965   4.441  0.00  0.00     0.069 A 
HETATM   26 Cl   UNK N   1      26.183  16.829   3.246  0.00  0.00    -0.081 Cl
HETATM   27  C   UNK N   1      26.855  19.238   3.897  0.00  0.00     0.027 A 
HETATM   28  C   UNK N   1      27.303  20.327   4.618  0.00  0.00     0.003 A 
HETATM   29  C   UNK N   1      27.704  20.173   5.933  0.00  0.00     0.027 A 
HETATM   30  C   UNK N   1      27.701  18.921   6.526  0.00  0.00     0.069 A 
HETATM   31 Cl   UNK N   1      28.129  18.795   8.231  0.00  0.00    -0.081 Cl
ENDBRANCH  23  24
ENDBRANCH  13  23
ENDBRANCH   1   9
TORSDOF 3
ENDMDL
MODEL 5
REMARK VINA RESULT:      -7.4     19.580     21.671
REMARK  3 active torsions:
REMARK  status: ('A' for Active; 'I' for Inactive)
REMARK    1  A    between atoms: C_1  and  O_2 
REMARK    2  A    between atoms: O_2  and  C_10 
REMARK       I    between atoms: C_13  and  N_14 
REMARK    3  A    between atoms: N_14  and  C_21 
REMARK       I    between atoms: C_17  and  N_18 
ROOT
HETATM    1  C   UNK N   1      25.540  25.737  -6.306  0.00  0.00     0.049 C 
HETATM    2  C   UNK N   1      26.304  25.197  -5.302  0.00  0.00     0.031 C 
HETATM    3  C   UNK N   1      26.608  25.975  -4.201  0.00  0.00     0.025 C 
HETATM    4  C   UNK N   1      26.144  27.288  -4.118  0.00  0.00     0.044 C 
HETATM    5  C   UNK N   1      25.174  27.747  -5.000  0.00  0.00     0.025 C 
HETATM    6  C   UNK N   1      24.812  26.932  -6.057  0.00  0.00     0.031 C 
HETATM    7  C   UNK N   1      26.675  28.134  -3.110  0.00  0.00     0.099 C 
HETATM    8  N   UNK N   1      27.132  28.791  -2.277  0.00  0.00    -0.191 NA
ENDROOT
BRANCH   1   9
HETATM    9  N   UNK N   1      26.062  25.536  -7.612  0.00  0.00    -0.191 N 
HETATM   10  C   UNK N   1      26.028  24.220  -8.105  0.00  0.00     0.700 C 
HETATM   11  N   UNK N   1      27.228  23.640  -8.203  0.00  0.00    -0.153 N 
HETATM   12  N   UNK N   1      24.929  23.453  -7.790  0.00  0.00    -0.022 N 
HETATM   13  C   UNK N   1      27.369  22.356  -7.857  0.00  0.00     0.258 C 
ATOM     14  HN  UNK N   1      28.031  24.173  -8.538  1.00  0.00     0.188 HD
HETATM   15  N   UNK N   1      26.339  21.681  -7.347  0.00  0.00    -0.154 N 
HETATM   16  C   UNK N   1      25.107  22.186  -7.362  0.00  0.00     0.693 C 
ATOM     17  HN  UNK N   1      26.498  20.761  -6.937  1.00  0.00     0.188 HD
HETATM   18  N   UNK N   1      24.040  21.434  -6.832  0.00  0.00    -0.234 N 
HETATM   19  H   UNK N   1      24.035  20.454  -6.924  0.00  0.00     0.174 HD
HETATM   20  H   UNK N   1      23.299  21.889  -6.369  0.00  0.00     0.174 HD
ATOM     21  HN  UNK N   1      23.989  23.840  -7.877  1.00  0.00     0.203 HD
HETATM   22  H   UNK N   1      26.428  26.279  -8.145  0.00  0.00     0.184 HD
BRANCH  13  23
HETATM   23  O   UNK N   1      28.525  21.760  -8.072  0.00  0.00    -0.275 OA
BRANCH  23  24
HETATM   24  C   UNK N   1      29.514  21.606  -7.158  0.00  0.00     0.122 A 
HETATM   25  C   UNK N   1      30.116  22.631  -6.310  0.00  0.00     0.069 A 
HETATM   26 Cl   UNK N   1      29.823  24.368  -6.156  0.00  0.00    -0.081 Cl
HETATM   27  C   UNK N   1      31.119  22.253  -5.435  0.00  0.00     0.027 A 
HETATM   28  C   UNK N   1      31.546  20.943  -5.338  0.00  0.00     0.003 A 
HETATM   29  C   UNK N   1      30.947  19.958  -6.104  0.00  0.00     0.027 A 
HETATM   30  C   UNK N   1      29.945  20.281  -7.004  0.00  0.00     0.069 A 
HETATM   31 Cl   UNK N   1      29.150  18.977  -7.883  0.00  0.00    -0.081 Cl
ENDBRANCH  23  24
ENDBRANCH  13  23
ENDBRANCH   1   9
TORSDOF 3
ENDMDL
MODEL 6
REMARK VINA RESULT:      -7.3      5.721     10.736
REMARK  3 active torsions:
REMARK  status: ('A' for Active; 'I' for Inactive)
REMARK    1  A    between atoms: C_1  and  O_2 
REMARK    2  A    between atoms: O_2  and  C_10 
REMARK       I    between atoms: C_13  and  N_14 
REMARK    3  A    between atoms: N_14  and  C_21 
REMARK       I    between atoms: C_17  and  N_18 
ROOT
HETATM    1  C   UNK N   1      32.692  15.971   7.165  0.00  0.00     0.049 C 
HETATM    2  C   UNK N   1      32.863  17.159   7.830  0.00  0.00     0.031 C 
HETATM    3  C   UNK N   1      33.889  17.268   8.749  0.00  0.00     0.025 C 
HETATM    4  C   UNK N   1      34.732  16.184   8.993  0.00  0.00     0.044 C 
HETATM    5  C   UNK N   1      34.720  15.080   8.151  0.00  0.00     0.025 C 
HETATM    6  C   UNK N   1      33.740  15.011   7.177  0.00  0.00     0.031 C 
HETATM    7  C   UNK N   1      35.607  16.242  10.111  0.00  0.00     0.099 C 
HETATM    8  N   UNK N   1      36.302  16.327  11.030  0.00  0.00    -0.191 NA
ENDROOT
BRANCH   1   9
HETATM    9  N   UNK N   1      31.354  15.494   7.153  0.00  0.00    -0.191 N 
HETATM   10  C   UNK N   1      30.557  15.889   6.065  0.00  0.00     0.700 C 
HETATM   11  N   UNK N   1      29.593  16.760   6.378  0.00  0.00    -0.153 N 
HETATM   12  N   UNK N   1      31.162  15.963   4.830  0.00  0.00    -0.022 N 
HETATM   13  C   UNK N   1      29.328  17.775   5.549  0.00  0.00     0.258 C 
ATOM     14  HN  UNK N   1      29.064  16.652   7.243  1.00  0.00     0.188 HD
HETATM   15  N   UNK N   1      30.069  17.962   4.457  0.00  0.00    -0.154 N 
HETATM   16  C   UNK N   1      30.942  17.042   4.050  0.00  0.00     0.693 C 
ATOM     17  HN  UNK N   1      29.966  18.825   3.924  1.00  0.00     0.188 HD
HETATM   18  N   UNK N   1      31.693  17.265   2.879  0.00  0.00    -0.234 N 
HETATM   19  H   UNK N   1      31.292  17.750   2.121  0.00  0.00     0.174 HD
HETATM   20  H   UNK N   1      32.620  16.937   2.818  0.00  0.00     0.174 HD
ATOM     21  HN  UNK N   1      31.772  15.211   4.509  1.00  0.00     0.203 HD
HETATM   22  H   UNK N   1      31.002  14.917   7.869  0.00  0.00     0.184 HD
BRANCH  13  23
HETATM   23  O   UNK N   1      28.297  18.557   5.805  0.00  0.00    -0.275 OA
BRANCH  23  24
HETATM   24  C   UNK N   1      27.246  18.769   4.976  0.00  0.00     0.122 A 
HETATM   25  C   UNK N   1      26.527  17.785   4.171  0.00  0.00     0.069 A 
HETATM   26 Cl   UNK N   1      26.736  16.041   3.962  0.00  0.00    -0.081 Cl
HETATM   27  C   UNK N   1      25.471  18.221   3.390  0.00  0.00     0.027 A 
HETATM   28  C   UNK N   1      25.079  19.545   3.368  0.00  0.00     0.003 A 
HETATM   29  C   UNK N   1      25.725  20.474   4.165  0.00  0.00     0.027 A 
HETATM   30  C   UNK N   1      26.795  20.096   4.959  0.00  0.00     0.069 A 
HETATM   31 Cl   UNK N   1      27.518  21.297   6.026  0.00  0.00    -0.081 Cl
ENDBRANCH  23  24
ENDBRANCH  13  23
ENDBRANCH   1   9
TORSDOF 3
ENDMDL
MODEL 7
REMARK VINA RESULT:      -7.2     12.035     15.207
REMARK  3 active torsions:
REMARK  status: ('A' for Active; 'I' for Inactive)
REMARK    1  A    between atoms: C_1  and  O_2 
REMARK    2  A    between atoms: O_2  and  C_10 
REMARK       I    between atoms: C_13  and  N_14 
REMARK    3  A    between atoms: N_14  and  C_21 
REMARK       I    between atoms: C_17  and  N_18 
ROOT
HETATM    1  C   UNK N   1      21.688  13.954   8.678  0.00  0.00     0.049 C 
HETATM    2  C   UNK N   1      23.028  13.672   8.759  0.00  0.00     0.031 C 
HETATM    3  C   UNK N   1      23.501  12.988   9.863  0.00  0.00     0.025 C 
HETATM    4  C   UNK N   1      22.626  12.595  10.875  0.00  0.00     0.044 C 
HETATM    5  C   UNK N   1      21.253  12.655  10.679  0.00  0.00     0.025 C 
HETATM    6  C   UNK N   1      20.782  13.269   9.533  0.00  0.00     0.031 C 
HETATM    7  C   UNK N   1      23.170  12.125  12.100  0.00  0.00     0.099 C 
HETATM    8  N   UNK N   1      23.652  11.749  13.080  0.00  0.00    -0.191 NA
ENDROOT
BRANCH   1   9
HETATM    9  N   UNK N   1      21.392  15.301   8.339  0.00  0.00    -0.191 N 
HETATM   10  C   UNK N   1      21.492  15.642   6.979  0.00  0.00     0.700 C 
HETATM   11  N   UNK N   1      22.523  16.441   6.687  0.00  0.00    -0.153 N 
HETATM   12  N   UNK N   1      21.081  14.703   6.059  0.00  0.00    -0.022 N 
HETATM   13  C   UNK N   1      23.227  16.226   5.572  0.00  0.00     0.258 C 
ATOM     14  HN  UNK N   1      22.771  17.208   7.312  1.00  0.00     0.188 HD
HETATM   15  N   UNK N   1      22.954  15.177   4.795  0.00  0.00    -0.154 N 
HETATM   16  C   UNK N   1      21.856  14.447   4.985  0.00  0.00     0.693 C 
ATOM     17  HN  UNK N   1      23.596  14.930   4.043  1.00  0.00     0.188 HD
HETATM   18  N   UNK N   1      21.589  13.358   4.131  0.00  0.00    -0.234 N 
HETATM   19  H   UNK N   1      21.837  13.406   3.179  0.00  0.00     0.174 HD
HETATM   20  H   UNK N   1      21.154  12.549   4.486  0.00  0.00     0.174 HD
ATOM     21  HN  UNK N   1      20.200  14.206   6.189  1.00  0.00     0.203 HD
HETATM   22  H   UNK N   1      21.131  15.963   9.020  0.00  0.00     0.184 HD
BRANCH  13  23
HETATM   23  O   UNK N   1      24.163  17.090   5.231  0.00  0.00    -0.275 OA
BRANCH  23  24
HETATM   24  C   UNK N   1      23.971  18.202   4.481  0.00  0.00     0.122 A 
HETATM   25  C   UNK N   1      22.718  18.697   3.916  0.00  0.00     0.069 A 
HETATM   26 Cl   UNK N   1      21.064  18.076   3.974  0.00  0.00    -0.081 Cl
HETATM   27  C   UNK N   1      22.748  19.866   3.177  0.00  0.00     0.027 A 
HETATM   28  C   UNK N   1      23.917  20.573   2.978  0.00  0.00     0.003 A 
HETATM   29  C   UNK N   1      25.099  20.137   3.549  0.00  0.00     0.027 A 
HETATM   30  C   UNK N   1      25.131  18.966   4.291  0.00  0.00     0.069 A 
HETATM   31 Cl   UNK N   1      26.640  18.508   5.077  0.00  0.00    -0.081 Cl
ENDBRANCH  23  24
ENDBRANCH  13  23
ENDBRANCH   1   9
TORSDOF 3
ENDMDL
MODEL 8
REMARK VINA RESULT:      -7.1      4.041      8.359
REMARK  3 active torsions:
REMARK  status: ('A' for Active; 'I' for Inactive)
REMARK    1  A    between atoms: C_1  and  O_2 
REMARK    2  A    between atoms: O_2  and  C_10 
REMARK       I    between atoms: C_13  and  N_14 
REMARK    3  A    between atoms: N_14  and  C_21 
REMARK       I    between atoms: C_17  and  N_18 
ROOT
HETATM    1  C   UNK N   1      34.713  14.133  10.611  0.00  0.00     0.049 C 
HETATM    2  C   UNK N   1      35.021  15.349  11.168  0.00  0.00     0.031 C 
HETATM    3  C   UNK N   1      35.715  15.380  12.362  0.00  0.00     0.025 C 
HETATM    4  C   UNK N   1      36.093  14.192  12.987  0.00  0.00     0.044 C 
HETATM    5  C   UNK N   1      36.007  12.983  12.309  0.00  0.00     0.025 C 
HETATM    6  C   UNK N   1      35.382  12.968  11.075  0.00  0.00     0.031 C 
HETATM    7  C   UNK N   1      36.576  14.249  14.321  0.00  0.00     0.099 C 
HETATM    8  N   UNK N   1      36.963  14.338  15.406  0.00  0.00    -0.191 NA
ENDROOT
BRANCH   1   9
HETATM    9  N   UNK N   1      33.360  14.003  10.199  0.00  0.00    -0.191 N 
HETATM   10  C   UNK N   1      33.042  14.501   8.924  0.00  0.00     0.700 C 
HETATM   11  N   UNK N   1      32.288  15.605   8.938  0.00  0.00    -0.153 N 
HETATM   12  N   UNK N   1      33.976  14.331   7.926  0.00  0.00    -0.022 N 
HETATM   13  C   UNK N   1      32.546  16.589   8.070  0.00  0.00     0.258 C 
ATOM     14  HN  UNK N   1      31.523  15.696   9.606  1.00  0.00     0.188 HD
HETATM   15  N   UNK N   1      33.593  16.504   7.249  0.00  0.00    -0.154 N 
HETATM   16  C   UNK N   1      34.277  15.368   7.119  0.00  0.00     0.693 C 
ATOM     17  HN  UNK N   1      33.876  17.323   6.712  1.00  0.00     0.188 HD
HETATM   18  N   UNK N   1      35.366  15.311   6.226  0.00  0.00    -0.234 N 
HETATM   19  H   UNK N   1      35.340  15.822   5.384  0.00  0.00     0.174 HD
HETATM   20  H   UNK N   1      36.152  14.759   6.443  0.00  0.00     0.174 HD
ATOM     21  HN  UNK N   1      34.436  13.429   7.800  1.00  0.00     0.203 HD
HETATM   22  H   UNK N   1      32.679  13.587  10.776  0.00  0.00     0.184 HD
BRANCH  13  23
HETATM   23  O   UNK N   1      31.724  17.618   8.009  0.00  0.00    -0.275 OA
BRANCH  23  24
HETATM   24  C   UNK N   1      30.493  17.610   7.443  0.00  0.00     0.122 A 
HETATM   25  C   UNK N   1      30.109  17.063   6.144  0.00  0.00     0.069 A 
HETATM   26 Cl   UNK N   1      31.037  16.256   4.873  0.00  0.00    -0.081 Cl
HETATM   27  C   UNK N   1      28.783  17.159   5.759  0.00  0.00     0.027 A 
HETATM   28  C   UNK N   1      27.828  17.739   6.569  0.00  0.00     0.003 A 
HETATM   29  C   UNK N   1      28.176  18.217   7.821  0.00  0.00     0.027 A 
HETATM   30  C   UNK N   1      29.491  18.156   8.255  0.00  0.00     0.069 A 
HETATM   31 Cl   UNK N   1      29.861  18.689   9.893  0.00  0.00    -0.081 Cl
ENDBRANCH  23  24
ENDBRANCH  13  23
ENDBRANCH   1   9
TORSDOF 3
ENDMDL
MODEL 9
REMARK VINA RESULT:      -7.0      8.002     11.170
REMARK  3 active torsions:
REMARK  status: ('A' for Active; 'I' for Inactive)
REMARK    1  A    between atoms: C_1  and  O_2 
REMARK    2  A    between atoms: O_2  and  C_10 
REMARK       I    between atoms: C_13  and  N_14 
REMARK    3  A    between atoms: N_14  and  C_21 
REMARK       I    between atoms: C_17  and  N_18 
ROOT
HETATM    1  C   UNK N   1      24.186  13.512   7.650  0.00  0.00     0.049 C 
HETATM    2  C   UNK N   1      25.128  13.552   8.647  0.00  0.00     0.031 C 
HETATM    3  C   UNK N   1      24.820  13.005   9.878  0.00  0.00     0.025 C 
HETATM    4  C   UNK N   1      23.571  12.425  10.098  0.00  0.00     0.044 C 
HETATM    5  C   UNK N   1      22.722  12.160   9.032  0.00  0.00     0.025 C 
HETATM    6  C   UNK N   1      23.072  12.639   7.782  0.00  0.00     0.031 C 
HETATM    7  C   UNK N   1      23.196  12.102  11.429  0.00  0.00     0.099 C 
HETATM    8  N   UNK N   1      22.928  11.856  12.525  0.00  0.00    -0.191 NA
ENDROOT
BRANCH   1   9
HETATM    9  N   UNK N   1      23.986  14.750   6.983  0.00  0.00    -0.191 N 
HETATM   10  C   UNK N   1      24.975  15.134   6.062  0.00  0.00     0.700 C 
HETATM   11  N   UNK N   1      25.721  16.170   6.456  0.00  0.00    -0.153 N 
HETATM   12  N   UNK N   1      25.544  14.143   5.294  0.00  0.00    -0.022 N 
HETATM   13  C   UNK N   1      27.037  16.161   6.222  0.00  0.00     0.258 C 
ATOM     14  HN  UNK N   1      25.289  16.962   6.934  1.00  0.00     0.188 HD
HETATM   15  N   UNK N   1      27.613  15.094   5.668  0.00  0.00    -0.154 N 
HETATM   16  C   UNK N   1      26.884  14.110   5.144  0.00  0.00     0.693 C 
ATOM     17  HN  UNK N   1      28.630  15.031   5.645  1.00  0.00     0.188 HD
HETATM   18  N   UNK N   1      27.529  13.007   4.549  0.00  0.00    -0.234 N 
HETATM   19  H   UNK N   1      28.375  13.136   4.061  0.00  0.00     0.174 HD
HETATM   20  H   UNK N   1      27.134  12.108   4.621  0.00  0.00     0.174 HD
ATOM     21  HN  UNK N   1      24.958  13.439   4.844  1.00  0.00     0.203 HD
HETATM   22  H   UNK N   1      23.196  15.311   7.158  0.00  0.00     0.184 HD
BRANCH  13  23
HETATM   23  O   UNK N   1      27.744  17.238   6.504  0.00  0.00    -0.275 OA
BRANCH  23  24
HETATM   24  C   UNK N   1      29.056  17.251   6.843  0.00  0.00     0.122 A 
HETATM   25  C   UNK N   1      30.211  17.176   5.953  0.00  0.00     0.069 A 
HETATM   26 Cl   UNK N   1      30.349  17.037   4.195  0.00  0.00    -0.081 Cl
HETATM   27  C   UNK N   1      31.475  17.210   6.514  0.00  0.00     0.027 A 
HETATM   28  C   UNK N   1      31.665  17.325   7.877  0.00  0.00     0.003 A 
HETATM   29  C   UNK N   1      30.575  17.445   8.723  0.00  0.00     0.027 A 
HETATM   30  C   UNK N   1      29.286  17.407   8.217  0.00  0.00     0.069 A 
HETATM   31 Cl   UNK N   1      27.939  17.661   9.324  0.00  0.00    -0.081 Cl
ENDBRANCH  23  24
ENDBRANCH  13  23
ENDBRANCH   1   9
TORSDOF 3
ENDMDL
