MODEL 1
REMARK VINA RESULT:      -4.2      0.000      0.000
REMARK  16 active torsions:
REMARK  status: ('A' for Active; 'I' for Inactive)
REMARK    1  A    between atoms: C_2  and  O_3 
REMARK    2  A    between atoms: O_3  and  C_4 
REMARK    3  A    between atoms: C_4  and  C_5 
REMARK    4  A    between atoms: C_5  and  O_6 
REMARK    5  A    between atoms: O_6  and  C_7 
REMARK    6  A    between atoms: C_7  and  C_8 
REMARK    7  A    between atoms: C_8  and  O_10 
REMARK    8  A    between atoms: C_9  and  O_10 
REMARK    9  A    between atoms: C_9  and  C_11 
REMARK   10  A    between atoms: C_11  and  O_12 
REMARK   11  A    between atoms: O_12  and  C_13 
REMARK   12  A    between atoms: C_13  and  C_14 
REMARK   13  A    between atoms: C_14  and  O_15 
REMARK   14  A    between atoms: O_15  and  C_16 
REMARK   15  A    between atoms: C_16  and  C_17 
REMARK   16  A    between atoms: C_17  and  O_18 
ROOT
HETATM    1  C   UNK N   1      36.507  14.880  10.043  0.00  0.00     0.193 C 
ENDROOT
BRANCH   1   2
HETATM    2  O   UNK N   1      36.683  16.015  10.822  0.00  0.00    -0.387 OA
BRANCH   2   3
HETATM    3  C   UNK N   1      35.397  16.522  10.954  0.00  0.00     0.193 C 
BRANCH   3   4
HETATM    4  C   UNK N   1      34.900  16.969   9.604  0.00  0.00     0.193 C 
BRANCH   4   5
HETATM    5  O   UNK N   1      35.352  18.260   9.362  0.00  0.00    -0.387 OA
BRANCH   5   6
HETATM    6  C   UNK N   1      34.639  18.660   8.239  0.00  0.00     0.193 C 
BRANCH   6   7
HETATM    7  C   UNK N   1      34.288  17.448   7.412  0.00  0.00     0.193 C 
BRANCH   7   8
HETATM    8  O   UNK N   1      33.781  17.870   6.186  0.00  0.00    -0.389 OA
BRANCH   8   9
HETATM    9  C   UNK N   1      33.518  16.692   5.493  0.00  0.00     0.163 C 
HETATM   10  C   UNK N   1      33.056  17.029   4.093  0.00  0.00     0.033 C 
ENDBRANCH   8   9
ENDBRANCH   7   8
ENDBRANCH   6   7
ENDBRANCH   5   6
ENDBRANCH   4   5
ENDBRANCH   3   4
ENDBRANCH   2   3
ENDBRANCH   1   2
BRANCH   1  11
HETATM   11  C   UNK N   1      37.445  13.798  10.510  0.00  0.00     0.193 C 
BRANCH  11  12
HETATM   12  O   UNK N   1      37.051  13.402  11.781  0.00  0.00    -0.387 OA
BRANCH  12  13
HETATM   13  C   UNK N   1      36.017  12.500  11.569  0.00  0.00     0.193 C 
BRANCH  13  14
HETATM   14  C   UNK N   1      34.901  12.829  12.528  0.00  0.00     0.193 C 
BRANCH  14  15
HETATM   15  O   UNK N   1      35.300  13.849  13.384  0.00  0.00    -0.387 OA
BRANCH  15  16
HETATM   16  C   UNK N   1      35.320  13.240  14.635  0.00  0.00     0.193 C 
BRANCH  16  17
HETATM   17  C   UNK N   1      36.622  13.558  15.334  0.00  0.00     0.190 C 
BRANCH  17  18
HETATM   18  O   UNK N   1      37.662  12.906  14.678  0.00  0.00    -0.399 OA
HETATM   19  H   UNK N   1      38.377  12.496  15.190  0.00  0.00     0.209 HD
ENDBRANCH  17  18
ENDBRANCH  16  17
ENDBRANCH  15  16
ENDBRANCH  14  15
ENDBRANCH  13  14
ENDBRANCH  12  13
ENDBRANCH  11  12
ENDBRANCH   1  11
TORSDOF 16
ENDMDL
MODEL 2
REMARK VINA RESULT:      -4.0      2.057      2.781
REMARK  16 active torsions:
REMARK  status: ('A' for Active; 'I' for Inactive)
REMARK    1  A    between atoms: C_2  and  O_3 
REMARK    2  A    between atoms: O_3  and  C_4 
REMARK    3  A    between atoms: C_4  and  C_5 
REMARK    4  A    between atoms: C_5  and  O_6 
REMARK    5  A    between atoms: O_6  and  C_7 
REMARK    6  A    between atoms: C_7  and  C_8 
REMARK    7  A    between atoms: C_8  and  O_10 
REMARK    8  A    between atoms: C_9  and  O_10 
REMARK    9  A    between atoms: C_9  and  C_11 
REMARK   10  A    between atoms: C_11  and  O_12 
REMARK   11  A    between atoms: O_12  and  C_13 
REMARK   12  A    between atoms: C_13  and  C_14 
REMARK   13  A    between atoms: C_14  and  O_15 
REMARK   14  A    between atoms: O_15  and  C_16 
REMARK   15  A    between atoms: C_16  and  C_17 
REMARK   16  A    between atoms: C_17  and  O_18 
ROOT
HETATM    1  C   UNK N   1      35.484  13.700  11.473  0.00  0.00     0.193 C 
ENDROOT
BRANCH   1   2
HETATM    2  O   UNK N   1      34.339  14.468  11.634  0.00  0.00    -0.387 OA
BRANCH   2   3
HETATM    3  C   UNK N   1      34.434  15.412  10.620  0.00  0.00     0.193 C 
BRANCH   3   4
HETATM    4  C   UNK N   1      35.436  16.464  11.017  0.00  0.00     0.193 C 
BRANCH   4   5
HETATM    5  O   UNK N   1      35.350  17.528  10.127  0.00  0.00    -0.387 OA
BRANCH   5   6
HETATM    6  C   UNK N   1      34.682  16.996   9.032  0.00  0.00     0.193 C 
BRANCH   6   7
HETATM    7  C   UNK N   1      34.392  18.097   8.042  0.00  0.00     0.193 C 
BRANCH   7   8
HETATM    8  O   UNK N   1      33.062  18.485   8.175  0.00  0.00    -0.389 OA
BRANCH   8   9
HETATM    9  C   UNK N   1      32.349  17.289   8.186  0.00  0.00     0.163 C 
HETATM   10  C   UNK N   1      31.586  17.150   6.888  0.00  0.00     0.033 C 
ENDBRANCH   8   9
ENDBRANCH   7   8
ENDBRANCH   6   7
ENDBRANCH   5   6
ENDBRANCH   4   5
ENDBRANCH   3   4
ENDBRANCH   2   3
ENDBRANCH   1   2
BRANCH   1  11
HETATM   11  C   UNK N   1      35.586  12.706  12.600  0.00  0.00     0.193 C 
BRANCH  11  12
HETATM   12  O   UNK N   1      34.539  12.940  13.481  0.00  0.00    -0.387 OA
BRANCH  12  13
HETATM   13  C   UNK N   1      35.025  12.556  14.724  0.00  0.00     0.193 C 
BRANCH  13  14
HETATM   14  C   UNK N   1      36.073  13.554  15.148  0.00  0.00     0.193 C 
BRANCH  14  15
HETATM   15  O   UNK N   1      36.338  13.411  16.505  0.00  0.00    -0.387 OA
BRANCH  15  16
HETATM   16  C   UNK N   1      35.098  13.091  17.050  0.00  0.00     0.193 C 
BRANCH  16  17
HETATM   17  C   UNK N   1      35.048  13.536  18.494  0.00  0.00     0.190 C 
BRANCH  17  18
HETATM   18  O   UNK N   1      35.290  14.906  18.557  0.00  0.00    -0.399 OA
HETATM   19  H   UNK N   1      35.075  15.472  17.799  0.00  0.00     0.209 HD
ENDBRANCH  17  18
ENDBRANCH  16  17
ENDBRANCH  15  16
ENDBRANCH  14  15
ENDBRANCH  13  14
ENDBRANCH  12  13
ENDBRANCH  11  12
ENDBRANCH   1  11
TORSDOF 16
ENDMDL
MODEL 3
REMARK VINA RESULT:      -3.9      3.234      7.687
REMARK  16 active torsions:
REMARK  status: ('A' for Active; 'I' for Inactive)
REMARK    1  A    between atoms: C_2  and  O_3 
REMARK    2  A    between atoms: O_3  and  C_4 
REMARK    3  A    between atoms: C_4  and  C_5 
REMARK    4  A    between atoms: C_5  and  O_6 
REMARK    5  A    between atoms: O_6  and  C_7 
REMARK    6  A    between atoms: C_7  and  C_8 
REMARK    7  A    between atoms: C_8  and  O_10 
REMARK    8  A    between atoms: C_9  and  O_10 
REMARK    9  A    between atoms: C_9  and  C_11 
REMARK   10  A    between atoms: C_11  and  O_12 
REMARK   11  A    between atoms: O_12  and  C_13 
REMARK   12  A    between atoms: C_13  and  C_14 
REMARK   13  A    between atoms: C_14  and  O_15 
REMARK   14  A    between atoms: O_15  and  C_16 
REMARK   15  A    between atoms: C_16  and  C_17 
REMARK   16  A    between atoms: C_17  and  O_18 
ROOT
HETATM    1  C   UNK N   1      32.426  16.134   4.351  0.00  0.00     0.193 C 
ENDROOT
BRANCH   1   2
HETATM    2  O   UNK N   1      33.618  16.743   4.718  0.00  0.00    -0.387 OA
BRANCH   2   3
HETATM    3  C   UNK N   1      34.186  15.841   5.608  0.00  0.00     0.193 C 
BRANCH   3   4
HETATM    4  C   UNK N   1      34.244  16.466   6.977  0.00  0.00     0.193 C 
BRANCH   4   5
HETATM    5  O   UNK N   1      34.436  17.835   6.840  0.00  0.00    -0.387 OA
BRANCH   5   6
HETATM    6  C   UNK N   1      34.503  18.297   8.148  0.00  0.00     0.193 C 
BRANCH   6   7
HETATM    7  C   UNK N   1      34.674  17.126   9.083  0.00  0.00     0.193 C 
BRANCH   7   8
HETATM    8  O   UNK N   1      35.467  17.518  10.157  0.00  0.00    -0.389 OA
BRANCH   8   9
HETATM    9  C   UNK N   1      35.650  16.355  10.899  0.00  0.00     0.163 C 
HETATM   10  C   UNK N   1      34.458  15.445  10.703  0.00  0.00     0.033 C 
ENDBRANCH   8   9
ENDBRANCH   7   8
ENDBRANCH   6   7
ENDBRANCH   5   6
ENDBRANCH   4   5
ENDBRANCH   3   4
ENDBRANCH   2   3
ENDBRANCH   1   2
BRANCH   1  11
HETATM   11  C   UNK N   1      31.442  17.181   3.899  0.00  0.00     0.193 C 
BRANCH  11  12
HETATM   12  O   UNK N   1      30.748  17.633   5.014  0.00  0.00    -0.387 OA
BRANCH  12  13
HETATM   13  C   UNK N   1      29.788  16.659   5.255  0.00  0.00     0.193 C 
BRANCH  13  14
HETATM   14  C   UNK N   1      29.647  16.495   6.747  0.00  0.00     0.193 C 
BRANCH  14  15
HETATM   15  O   UNK N   1      29.227  17.692   7.316  0.00  0.00    -0.387 OA
BRANCH  15  16
HETATM   16  C   UNK N   1      29.743  17.642   8.607  0.00  0.00     0.193 C 
BRANCH  16  17
HETATM   17  C   UNK N   1      28.871  18.457   9.534  0.00  0.00     0.190 C 
BRANCH  17  18
HETATM   18  O   UNK N   1      27.537  18.120   9.319  0.00  0.00    -0.399 OA
HETATM   19  H   UNK N   1      27.091  18.404   8.505  0.00  0.00     0.209 HD
ENDBRANCH  17  18
ENDBRANCH  16  17
ENDBRANCH  15  16
ENDBRANCH  14  15
ENDBRANCH  13  14
ENDBRANCH  12  13
ENDBRANCH  11  12
ENDBRANCH   1  11
TORSDOF 16
ENDMDL
MODEL 4
REMARK VINA RESULT:      -3.9      3.083      7.963
REMARK  16 active torsions:
REMARK  status: ('A' for Active; 'I' for Inactive)
REMARK    1  A    between atoms: C_2  and  O_3 
REMARK    2  A    between atoms: O_3  and  C_4 
REMARK    3  A    between atoms: C_4  and  C_5 
REMARK    4  A    between atoms: C_5  and  O_6 
REMARK    5  A    between atoms: O_6  and  C_7 
REMARK    6  A    between atoms: C_7  and  C_8 
REMARK    7  A    between atoms: C_8  and  O_10 
REMARK    8  A    between atoms: C_9  and  O_10 
REMARK    9  A    between atoms: C_9  and  C_11 
REMARK   10  A    between atoms: C_11  and  O_12 
REMARK   11  A    between atoms: O_12  and  C_13 
REMARK   12  A    between atoms: C_13  and  C_14 
REMARK   13  A    between atoms: C_14  and  O_15 
REMARK   14  A    between atoms: O_15  and  C_16 
REMARK   15  A    between atoms: C_16  and  C_17 
REMARK   16  A    between atoms: C_17  and  O_18 
ROOT
HETATM    1  C   UNK N   1      34.908  16.790   9.149  0.00  0.00     0.193 C 
ENDROOT
BRANCH   1   2
HETATM    2  O   UNK N   1      35.497  17.400  10.248  0.00  0.00    -0.387 OA
BRANCH   2   3
HETATM    3  C   UNK N   1      35.711  16.349  11.130  0.00  0.00     0.193 C 
BRANCH   3   4
HETATM    4  C   UNK N   1      35.844  15.068  10.349  0.00  0.00     0.193 C 
BRANCH   4   5
HETATM    5  O   UNK N   1      36.432  14.105  11.159  0.00  0.00    -0.387 OA
BRANCH   5   6
HETATM    6  C   UNK N   1      36.030  14.453  12.442  0.00  0.00     0.193 C 
BRANCH   6   7
HETATM    7  C   UNK N   1      35.818  13.201  13.256  0.00  0.00     0.193 C 
BRANCH   7   8
HETATM    8  O   UNK N   1      34.722  13.387  14.094  0.00  0.00    -0.389 OA
BRANCH   8   9
HETATM    9  C   UNK N   1      34.889  12.442  15.102  0.00  0.00     0.163 C 
HETATM   10  C   UNK N   1      34.764  13.122  16.448  0.00  0.00     0.033 C 
ENDBRANCH   8   9
ENDBRANCH   7   8
ENDBRANCH   6   7
ENDBRANCH   5   6
ENDBRANCH   4   5
ENDBRANCH   3   4
ENDBRANCH   2   3
ENDBRANCH   1   2
BRANCH   1  11
HETATM   11  C   UNK N   1      34.370  17.842   8.216  0.00  0.00     0.193 C 
BRANCH  11  12
HETATM   12  O   UNK N   1      33.312  17.291   7.505  0.00  0.00    -0.387 OA
BRANCH  12  13
HETATM   13  C   UNK N   1      32.353  16.996   8.466  0.00  0.00     0.193 C 
BRANCH  13  14
HETATM   14  C   UNK N   1      31.012  17.451   7.948  0.00  0.00     0.193 C 
BRANCH  14  15
HETATM   15  O   UNK N   1      30.404  18.284   8.881  0.00  0.00    -0.387 OA
BRANCH  15  16
HETATM   16  C   UNK N   1      29.228  18.681   8.251  0.00  0.00     0.193 C 
BRANCH  16  17
HETATM   17  C   UNK N   1      28.175  17.611   8.424  0.00  0.00     0.190 C 
BRANCH  17  18
HETATM   18  O   UNK N   1      27.333  17.966   9.475  0.00  0.00    -0.399 OA
HETATM   19  H   UNK N   1      27.325  18.879   9.803  0.00  0.00     0.209 HD
ENDBRANCH  17  18
ENDBRANCH  16  17
ENDBRANCH  15  16
ENDBRANCH  14  15
ENDBRANCH  13  14
ENDBRANCH  12  13
ENDBRANCH  11  12
ENDBRANCH   1  11
TORSDOF 16
ENDMDL
MODEL 5
REMARK VINA RESULT:      -3.8     13.139     16.985
REMARK  16 active torsions:
REMARK  status: ('A' for Active; 'I' for Inactive)
REMARK    1  A    between atoms: C_2  and  O_3 
REMARK    2  A    between atoms: O_3  and  C_4 
REMARK    3  A    between atoms: C_4  and  C_5 
REMARK    4  A    between atoms: C_5  and  O_6 
REMARK    5  A    between atoms: O_6  and  C_7 
REMARK    6  A    between atoms: C_7  and  C_8 
REMARK    7  A    between atoms: C_8  and  O_10 
REMARK    8  A    between atoms: C_9  and  O_10 
REMARK    9  A    between atoms: C_9  and  C_11 
REMARK   10  A    between atoms: C_11  and  O_12 
REMARK   11  A    between atoms: O_12  and  C_13 
REMARK   12  A    between atoms: C_13  and  C_14 
REMARK   13  A    between atoms: C_14  and  O_15 
REMARK   14  A    between atoms: O_15  and  C_16 
REMARK   15  A    between atoms: C_16  and  C_17 
REMARK   16  A    between atoms: C_17  and  O_18 
ROOT
HETATM    1  C   UNK N   1      21.767  16.875   6.345  0.00  0.00     0.193 C 
ENDROOT
BRANCH   1   2
HETATM    2  O   UNK N   1      20.655  16.061   6.510  0.00  0.00    -0.387 OA
BRANCH   2   3
HETATM    3  C   UNK N   1      20.182  16.405   7.770  0.00  0.00     0.193 C 
BRANCH   3   4
HETATM    4  C   UNK N   1      20.605  15.352   8.761  0.00  0.00     0.193 C 
BRANCH   4   5
HETATM    5  O   UNK N   1      20.206  14.107   8.294  0.00  0.00    -0.387 OA
BRANCH   5   6
HETATM    6  C   UNK N   1      21.261  13.268   8.629  0.00  0.00     0.193 C 
BRANCH   6   7
HETATM    7  C   UNK N   1      21.543  13.386  10.106  0.00  0.00     0.193 C 
BRANCH   7   8
HETATM    8  O   UNK N   1      22.897  13.152  10.327  0.00  0.00    -0.389 OA
BRANCH   8   9
HETATM    9  C   UNK N   1      22.952  11.849  10.812  0.00  0.00     0.163 C 
HETATM   10  C   UNK N   1      23.061  11.882  12.320  0.00  0.00     0.033 C 
ENDBRANCH   8   9
ENDBRANCH   7   8
ENDBRANCH   6   7
ENDBRANCH   5   6
ENDBRANCH   4   5
ENDBRANCH   3   4
ENDBRANCH   2   3
ENDBRANCH   1   2
BRANCH   1  11
HETATM   11  C   UNK N   1      22.417  16.578   5.019  0.00  0.00     0.193 C 
BRANCH  11  12
HETATM   12  O   UNK N   1      21.414  16.326   4.092  0.00  0.00    -0.387 OA
BRANCH  12  13
HETATM   13  C   UNK N   1      21.329  17.486   3.334  0.00  0.00     0.193 C 
BRANCH  13  14
HETATM   14  C   UNK N   1      20.383  17.231   2.187  0.00  0.00     0.193 C 
BRANCH  14  15
HETATM   15  O   UNK N   1      19.985  18.440   1.627  0.00  0.00    -0.387 OA
BRANCH  15  16
HETATM   16  C   UNK N   1      20.926  19.348   2.102  0.00  0.00     0.193 C 
BRANCH  16  17
HETATM   17  C   UNK N   1      20.769  20.666   1.380  0.00  0.00     0.190 C 
BRANCH  17  18
HETATM   18  O   UNK N   1      20.601  20.423   0.019  0.00  0.00    -0.399 OA
HETATM   19  H   UNK N   1      19.725  20.519  -0.386  0.00  0.00     0.209 HD
ENDBRANCH  17  18
ENDBRANCH  16  17
ENDBRANCH  15  16
ENDBRANCH  14  15
ENDBRANCH  13  14
ENDBRANCH  12  13
ENDBRANCH  11  12
ENDBRANCH   1  11
TORSDOF 16
ENDMDL
MODEL 6
REMARK VINA RESULT:      -3.8      1.656      1.931
REMARK  16 active torsions:
REMARK  status: ('A' for Active; 'I' for Inactive)
REMARK    1  A    between atoms: C_2  and  O_3 
REMARK    2  A    between atoms: O_3  and  C_4 
REMARK    3  A    between atoms: C_4  and  C_5 
REMARK    4  A    between atoms: C_5  and  O_6 
REMARK    5  A    between atoms: O_6  and  C_7 
REMARK    6  A    between atoms: C_7  and  C_8 
REMARK    7  A    between atoms: C_8  and  O_10 
REMARK    8  A    between atoms: C_9  and  O_10 
REMARK    9  A    between atoms: C_9  and  C_11 
REMARK   10  A    between atoms: C_11  and  O_12 
REMARK   11  A    between atoms: O_12  and  C_13 
REMARK   12  A    between atoms: C_13  and  C_14 
REMARK   13  A    between atoms: C_14  and  O_15 
REMARK   14  A    between atoms: O_15  and  C_16 
REMARK   15  A    between atoms: C_16  and  C_17 
REMARK   16  A    between atoms: C_17  and  O_18 
ROOT
HETATM    1  C   UNK N   1      36.396  14.015  10.465  0.00  0.00     0.193 C 
ENDROOT
BRANCH   1   2
HETATM    2  O   UNK N   1      36.755  15.287  10.043  0.00  0.00    -0.387 OA
BRANCH   2   3
HETATM    3  C   UNK N   1      35.987  16.125  10.842  0.00  0.00     0.193 C 
BRANCH   3   4
HETATM    4  C   UNK N   1      34.879  16.719  10.013  0.00  0.00     0.193 C 
BRANCH   4   5
HETATM    5  O   UNK N   1      35.310  17.929   9.484  0.00  0.00    -0.387 OA
BRANCH   5   6
HETATM    6  C   UNK N   1      34.503  18.116   8.369  0.00  0.00     0.193 C 
BRANCH   6   7
HETATM    7  C   UNK N   1      33.246  17.295   8.521  0.00  0.00     0.193 C 
BRANCH   7   8
HETATM    8  O   UNK N   1      32.275  17.794   7.658  0.00  0.00    -0.389 OA
BRANCH   8   9
HETATM    9  C   UNK N   1      31.072  17.323   8.175  0.00  0.00     0.163 C 
HETATM   10  C   UNK N   1      30.435  18.404   9.020  0.00  0.00     0.033 C 
ENDBRANCH   8   9
ENDBRANCH   7   8
ENDBRANCH   6   7
ENDBRANCH   5   6
ENDBRANCH   4   5
ENDBRANCH   3   4
ENDBRANCH   2   3
ENDBRANCH   1   2
BRANCH   1  11
HETATM   11  C   UNK N   1      36.723  13.857  11.926  0.00  0.00     0.193 C 
BRANCH  11  12
HETATM   12  O   UNK N   1      36.569  12.518  12.262  0.00  0.00    -0.387 OA
BRANCH  12  13
HETATM   13  C   UNK N   1      35.211  12.267  12.113  0.00  0.00     0.193 C 
BRANCH  13  14
HETATM   14  C   UNK N   1      34.642  11.937  13.471  0.00  0.00     0.193 C 
BRANCH  14  15
HETATM   15  O   UNK N   1      34.585  13.087  14.250  0.00  0.00    -0.387 OA
BRANCH  15  16
HETATM   16  C   UNK N   1      35.092  12.677  15.479  0.00  0.00     0.193 C 
BRANCH  16  17
HETATM   17  C   UNK N   1      36.202  13.609  15.907  0.00  0.00     0.190 C 
BRANCH  17  18
HETATM   18  O   UNK N   1      37.336  13.348  15.142  0.00  0.00    -0.399 OA
HETATM   19  H   UNK N   1      37.245  13.095  14.210  0.00  0.00     0.209 HD
ENDBRANCH  17  18
ENDBRANCH  16  17
ENDBRANCH  15  16
ENDBRANCH  14  15
ENDBRANCH  13  14
ENDBRANCH  12  13
ENDBRANCH  11  12
ENDBRANCH   1  11
TORSDOF 16
ENDMDL
MODEL 7
REMARK VINA RESULT:      -3.7     15.534     19.722
REMARK  16 active torsions:
REMARK  status: ('A' for Active; 'I' for Inactive)
REMARK    1  A    between atoms: C_2  and  O_3 
REMARK    2  A    between atoms: O_3  and  C_4 
REMARK    3  A    between atoms: C_4  and  C_5 
REMARK    4  A    between atoms: C_5  and  O_6 
REMARK    5  A    between atoms: O_6  and  C_7 
REMARK    6  A    between atoms: C_7  and  C_8 
REMARK    7  A    between atoms: C_8  and  O_10 
REMARK    8  A    between atoms: C_9  and  O_10 
REMARK    9  A    between atoms: C_9  and  C_11 
REMARK   10  A    between atoms: C_11  and  O_12 
REMARK   11  A    between atoms: O_12  and  C_13 
REMARK   12  A    between atoms: C_13  and  C_14 
REMARK   13  A    between atoms: C_14  and  O_15 
REMARK   14  A    between atoms: O_15  and  C_16 
REMARK   15  A    between atoms: C_16  and  C_17 
REMARK   16  A    between atoms: C_17  and  O_18 
ROOT
HETATM    1  C   UNK N   1      27.038  25.814  -3.832  0.00  0.00     0.193 C 
ENDROOT
BRANCH   1   2
HETATM    2  O   UNK N   1      26.318  26.414  -4.856  0.00  0.00    -0.387 OA
BRANCH   2   3
HETATM    3  C   UNK N   1      26.947  25.958  -6.007  0.00  0.00     0.193 C 
BRANCH   3   4
HETATM    4  C   UNK N   1      25.907  25.667  -7.057  0.00  0.00     0.193 C 
BRANCH   4   5
HETATM    5  O   UNK N   1      26.346  26.163  -8.278  0.00  0.00    -0.387 OA
BRANCH   5   6
HETATM    6  C   UNK N   1      26.486  25.031  -9.070  0.00  0.00     0.193 C 
BRANCH   6   7
HETATM    7  C   UNK N   1      25.204  24.236  -9.037  0.00  0.00     0.193 C 
BRANCH   7   8
HETATM    8  O   UNK N   1      25.492  22.904  -9.318  0.00  0.00    -0.389 OA
BRANCH   8   9
HETATM    9  C   UNK N   1      25.179  22.224  -8.145  0.00  0.00     0.163 C 
HETATM   10  C   UNK N   1      25.539  20.763  -8.304  0.00  0.00     0.033 C 
ENDBRANCH   8   9
ENDBRANCH   7   8
ENDBRANCH   6   7
ENDBRANCH   5   6
ENDBRANCH   4   5
ENDBRANCH   3   4
ENDBRANCH   2   3
ENDBRANCH   1   2
BRANCH   1  11
HETATM   11  C   UNK N   1      26.597  24.382  -3.678  0.00  0.00     0.193 C 
BRANCH  11  12
HETATM   12  O   UNK N   1      27.178  23.872  -2.523  0.00  0.00    -0.387 OA
BRANCH  12  13
HETATM   13  C   UNK N   1      28.522  23.721  -2.837  0.00  0.00     0.193 C 
BRANCH  13  14
HETATM   14  C   UNK N   1      29.152  22.831  -1.795  0.00  0.00     0.193 C 
BRANCH  14  15
HETATM   15  O   UNK N   1      30.514  23.097  -1.709  0.00  0.00    -0.387 OA
BRANCH  15  16
HETATM   16  C   UNK N   1      30.944  23.036  -3.031  0.00  0.00     0.193 C 
BRANCH  16  17
HETATM   17  C   UNK N   1      31.778  21.793  -3.237  0.00  0.00     0.190 C 
BRANCH  17  18
HETATM   18  O   UNK N   1      32.401  21.458  -2.037  0.00  0.00    -0.399 OA
HETATM   19  H   UNK N   1      32.535  22.134  -1.355  0.00  0.00     0.209 HD
ENDBRANCH  17  18
ENDBRANCH  16  17
ENDBRANCH  15  16
ENDBRANCH  14  15
ENDBRANCH  13  14
ENDBRANCH  12  13
ENDBRANCH  11  12
ENDBRANCH   1  11
TORSDOF 16
ENDMDL
MODEL 8
REMARK VINA RESULT:      -3.7     15.736     18.712
REMARK  16 active torsions:
REMARK  status: ('A' for Active; 'I' for Inactive)
REMARK    1  A    between atoms: C_2  and  O_3 
REMARK    2  A    between atoms: O_3  and  C_4 
REMARK    3  A    between atoms: C_4  and  C_5 
REMARK    4  A    between atoms: C_5  and  O_6 
REMARK    5  A    between atoms: O_6  and  C_7 
REMARK    6  A    between atoms: C_7  and  C_8 
REMARK    7  A    between atoms: C_8  and  O_10 
REMARK    8  A    between atoms: C_9  and  O_10 
REMARK    9  A    between atoms: C_9  and  C_11 
REMARK   10  A    between atoms: C_11  and  O_12 
REMARK   11  A    between atoms: O_12  and  C_13 
REMARK   12  A    between atoms: C_13  and  C_14 
REMARK   13  A    between atoms: C_14  and  O_15 
REMARK   14  A    between atoms: O_15  and  C_16 
REMARK   15  A    between atoms: C_16  and  C_17 
REMARK   16  A    between atoms: C_17  and  O_18 
ROOT
HETATM    1  C   UNK N   1      30.994  22.884  -3.024  0.00  0.00     0.193 C 
ENDROOT
BRANCH   1   2
HETATM    2  O   UNK N   1      30.589  23.219  -1.739  0.00  0.00    -0.387 OA
BRANCH   2   3
HETATM    3  C   UNK N   1      29.235  22.910  -1.733  0.00  0.00     0.193 C 
BRANCH   3   4
HETATM    4  C   UNK N   1      28.534  23.738  -2.778  0.00  0.00     0.193 C 
BRANCH   4   5
HETATM    5  O   UNK N   1      27.179  23.788  -2.479  0.00  0.00    -0.387 OA
BRANCH   5   6
HETATM    6  C   UNK N   1      26.589  24.215  -3.662  0.00  0.00     0.193 C 
BRANCH   6   7
HETATM    7  C   UNK N   1      26.865  25.686  -3.854  0.00  0.00     0.193 C 
BRANCH   7   8
HETATM    8  O   UNK N   1      26.196  26.404  -2.867  0.00  0.00    -0.389 OA
BRANCH   8   9
HETATM    9  C   UNK N   1      26.432  27.738  -3.184  0.00  0.00     0.163 C 
HETATM   10  C   UNK N   1      25.512  28.154  -4.310  0.00  0.00     0.033 C 
ENDBRANCH   8   9
ENDBRANCH   7   8
ENDBRANCH   6   7
ENDBRANCH   5   6
ENDBRANCH   4   5
ENDBRANCH   3   4
ENDBRANCH   2   3
ENDBRANCH   1   2
BRANCH   1  11
HETATM   11  C   UNK N   1      31.560  21.489  -3.027  0.00  0.00     0.193 C 
BRANCH  11  12
HETATM   12  O   UNK N   1      31.598  21.039  -4.340  0.00  0.00    -0.387 OA
BRANCH  12  13
HETATM   13  C   UNK N   1      30.393  21.452  -4.893  0.00  0.00     0.193 C 
BRANCH  13  14
HETATM   14  C   UNK N   1      30.354  20.997  -6.331  0.00  0.00     0.193 C 
BRANCH  14  15
HETATM   15  O   UNK N   1      29.096  21.245  -6.869  0.00  0.00    -0.387 OA
BRANCH  15  16
HETATM   16  C   UNK N   1      28.728  22.460  -6.299  0.00  0.00     0.193 C 
BRANCH  16  17
HETATM   17  C   UNK N   1      27.617  23.086  -7.111  0.00  0.00     0.190 C 
BRANCH  17  18
HETATM   18  O   UNK N   1      26.411  22.474  -6.780  0.00  0.00    -0.399 OA
HETATM   19  H   UNK N   1      26.191  21.604  -7.147  0.00  0.00     0.209 HD
ENDBRANCH  17  18
ENDBRANCH  16  17
ENDBRANCH  15  16
ENDBRANCH  14  15
ENDBRANCH  13  14
ENDBRANCH  12  13
ENDBRANCH  11  12
ENDBRANCH   1  11
TORSDOF 16
ENDMDL
MODEL 9
REMARK VINA RESULT:      -3.7      5.469      9.433
REMARK  16 active torsions:
REMARK  status: ('A' for Active; 'I' for Inactive)
REMARK    1  A    between atoms: C_2  and  O_3 
REMARK    2  A    between atoms: O_3  and  C_4 
REMARK    3  A    between atoms: C_4  and  C_5 
REMARK    4  A    between atoms: C_5  and  O_6 
REMARK    5  A    between atoms: O_6  and  C_7 
REMARK    6  A    between atoms: C_7  and  C_8 
REMARK    7  A    between atoms: C_8  and  O_10 
REMARK    8  A    between atoms: C_9  and  O_10 
REMARK    9  A    between atoms: C_9  and  C_11 
REMARK   10  A    between atoms: C_11  and  O_12 
REMARK   11  A    between atoms: O_12  and  C_13 
REMARK   12  A    between atoms: C_13  and  C_14 
REMARK   13  A    between atoms: C_14  and  O_15 
REMARK   14  A    between atoms: O_15  and  C_16 
REMARK   15  A    between atoms: C_16  and  C_17 
REMARK   16  A    between atoms: C_17  and  O_18 
ROOT
HETATM    1  C   UNK N   1      29.525  17.717   6.566  0.00  0.00     0.193 C 
ENDROOT
BRANCH   1   2
HETATM    2  O   UNK N   1      30.124  17.905   7.803  0.00  0.00    -0.387 OA
BRANCH   2   3
HETATM    3  C   UNK N   1      30.706  16.673   8.075  0.00  0.00     0.193 C 
BRANCH   3   4
HETATM    4  C   UNK N   1      32.124  16.887   8.536  0.00  0.00     0.193 C 
BRANCH   4   5
HETATM    5  O   UNK N   1      32.479  18.210   8.302  0.00  0.00    -0.387 OA
BRANCH   5   6
HETATM    6  C   UNK N   1      33.859  18.165   8.147  0.00  0.00     0.193 C 
BRANCH   6   7
HETATM    7  C   UNK N   1      34.206  17.190   7.048  0.00  0.00     0.193 C 
BRANCH   7   8
HETATM    8  O   UNK N   1      34.085  17.834   5.820  0.00  0.00    -0.389 OA
BRANCH   8   9
HETATM    9  C   UNK N   1      33.403  16.926   5.016  0.00  0.00     0.163 C 
HETATM   10  C   UNK N   1      32.377  17.667   4.187  0.00  0.00     0.033 C 
ENDBRANCH   8   9
ENDBRANCH   7   8
ENDBRANCH   6   7
ENDBRANCH   5   6
ENDBRANCH   4   5
ENDBRANCH   3   4
ENDBRANCH   2   3
ENDBRANCH   1   2
BRANCH   1  11
HETATM   11  C   UNK N   1      28.083  17.327   6.758  0.00  0.00     0.193 C 
BRANCH  11  12
HETATM   12  O   UNK N   1      27.571  16.940   5.526  0.00  0.00    -0.387 OA
BRANCH  12  13
HETATM   13  C   UNK N   1      28.022  17.904   4.634  0.00  0.00     0.193 C 
BRANCH  13  14
HETATM   14  C   UNK N   1      26.872  18.826   4.315  0.00  0.00     0.193 C 
BRANCH  14  15
HETATM   15  O   UNK N   1      27.197  20.128   4.679  0.00  0.00    -0.387 OA
BRANCH  15  16
HETATM   16  C   UNK N   1      26.231  20.456   5.625  0.00  0.00     0.193 C 
BRANCH  16  17
HETATM   17  C   UNK N   1      26.903  20.908   6.901  0.00  0.00     0.190 C 
BRANCH  17  18
HETATM   18  O   UNK N   1      25.981  20.862   7.943  0.00  0.00    -0.399 OA
HETATM   19  H   UNK N   1      25.148  21.355   7.875  0.00  0.00     0.209 HD
ENDBRANCH  17  18
ENDBRANCH  16  17
ENDBRANCH  15  16
ENDBRANCH  14  15
ENDBRANCH  13  14
ENDBRANCH  12  13
ENDBRANCH  11  12
ENDBRANCH   1  11
TORSDOF 16
ENDMDL
