REMARK  16 active torsions:
REMARK  status: ('A' for Active; 'I' for Inactive)
REMARK    1  A    between atoms: C_2  and  O_3 
REMARK    2  A    between atoms: O_3  and  C_4 
REMARK    3  A    between atoms: C_4  and  C_5 
REMARK    4  A    between atoms: C_5  and  O_6 
REMARK    5  A    between atoms: O_6  and  C_7 
REMARK    6  A    between atoms: C_7  and  C_8 
REMARK    7  A    between atoms: C_8  and  O_10 
REMARK    8  A    between atoms: C_9  and  O_10 
REMARK    9  A    between atoms: C_9  and  C_11 
REMARK   10  A    between atoms: C_11  and  O_12 
REMARK   11  A    between atoms: O_12  and  C_13 
REMARK   12  A    between atoms: C_13  and  C_14 
REMARK   13  A    between atoms: C_14  and  O_15 
REMARK   14  A    between atoms: O_15  and  C_16 
REMARK   15  A    between atoms: C_16  and  C_17 
REMARK   16  A    between atoms: C_17  and  O_18 
ROOT
HETATM    1  C   UNK N   1       0.602   0.330  -0.000  0.00  0.00     0.193 C 
ENDROOT
BRANCH   1   2
HETATM    2  O   UNK N   1      -0.499  -0.515   0.000  0.00  0.00    -0.387 OA
BRANCH   2   3
HETATM    3  C   UNK N   1      -1.580   0.357   0.000  0.00  0.00     0.193 C 
BRANCH   3   4
HETATM    4  C   UNK N   1      -2.858  -0.440  -0.000  0.00  0.00     0.193 C 
BRANCH   4   5
HETATM    5  O   UNK N   1      -3.936   0.436  -0.000  0.00  0.00    -0.387 OA
BRANCH   5   6
HETATM    6  C   UNK N   1      -5.047  -0.398   0.000  0.00  0.00     0.193 C 
BRANCH   6   7
HETATM    7  C   UNK N   1      -6.301   0.441  -0.000  0.00  0.00     0.193 C 
BRANCH   7   8
HETATM    8  O   UNK N   1      -7.408  -0.402   0.000  0.00  0.00    -0.389 OA
BRANCH   8   9
HETATM    9  C   UNK N   1      -8.502   0.458   0.000  0.00  0.00     0.163 C 
HETATM   10  C   UNK N   1      -9.777  -0.356  -0.000  0.00  0.00     0.033 C 
ENDBRANCH   8   9
ENDBRANCH   7   8
ENDBRANCH   6   7
ENDBRANCH   5   6
ENDBRANCH   4   5
ENDBRANCH   3   4
ENDBRANCH   2   3
ENDBRANCH   1   2
BRANCH   1  11
HETATM   11  C   UNK N   1       1.866  -0.489   0.000  0.00  0.00     0.193 C 
BRANCH  11  12
HETATM   12  O   UNK N   1       2.947   0.383   0.000  0.00  0.00    -0.387 OA
BRANCH  12  13
HETATM   13  C   UNK N   1       4.067  -0.438  -0.000  0.00  0.00     0.193 C 
BRANCH  13  14
HETATM   14  C   UNK N   1       5.294   0.439  -0.000  0.00  0.00     0.193 C 
BRANCH  14  15
HETATM   15  O   UNK N   1       6.438  -0.351  -0.000  0.00  0.00    -0.387 OA
BRANCH  15  16
HETATM   16  C   UNK N   1       7.477   0.575   0.000  0.00  0.00     0.193 C 
BRANCH  16  17
HETATM   17  C   UNK N   1       8.803  -0.150  -0.000  0.00  0.00     0.190 C 
BRANCH  17  18
HETATM   18  O   UNK N   1       9.834   0.786   0.000  0.00  0.00    -0.399 OA
HETATM   19  H   UNK N   1      10.758   0.490   0.000  0.00  0.00     0.209 HD
ENDBRANCH  17  18
ENDBRANCH  16  17
ENDBRANCH  15  16
ENDBRANCH  14  15
ENDBRANCH  13  14
ENDBRANCH  12  13
ENDBRANCH  11  12
ENDBRANCH   1  11
TORSDOF 16
