MODEL 1
REMARK VINA RESULT:      -5.7      0.000      0.000
REMARK  5 active torsions:
REMARK  status: ('A' for Active; 'I' for Inactive)
REMARK    1  A    between atoms: C_1  and  O_9 
REMARK    2  A    between atoms: C_4  and  C_7 
REMARK    3  A    between atoms: C_7  and  C_8 
REMARK    4  A    between atoms: C_8  and  N_11 
REMARK    5  A    between atoms: C_13  and  C_14 
ROOT
HETATM    1  C   UNK N   1      28.502  17.925   8.723  0.00  0.00     0.072 A 
HETATM    2  C   UNK N   1      30.969  17.088   7.691  0.00  0.00    -0.056 A 
HETATM    3  C   UNK N   1      29.460  17.348   9.563  0.00  0.00     0.037 A 
HETATM    4  C   UNK N   1      30.689  16.932   9.052  0.00  0.00     0.010 A 
HETATM    5  C   UNK N   1      30.010  17.645   6.843  0.00  0.00     0.017 A 
HETATM    6  C   UNK N   1      28.766  18.070   7.344  0.00  0.00    -0.020 A 
ENDROOT
BRANCH   6   7
HETATM    7  C   UNK N   1      27.738  18.702   6.423  0.00  0.00     0.021 C 
HETATM    8  C   UNK N   1      27.701  20.237   6.522  0.00  0.00     0.009 C 
HETATM    9  C   UNK N   1      26.622  20.816   5.609  0.00  0.00     0.001 C 
HETATM   10  C   UNK N   1      26.845  20.371   4.167  0.00  0.00     0.000 C 
HETATM   11  C   UNK N   1      26.858  18.849   4.085  0.00  0.00     0.001 C 
HETATM   12  C   UNK N   1      27.972  18.295   4.966  0.00  0.00     0.009 C 
ENDBRANCH   6   7
BRANCH   1  13
HETATM   13  O   UNK N   1      27.334  18.335   9.246  0.00  0.00    -0.360 OA
HETATM   14  H   UNK N   1      26.947  17.947  10.007  0.00  0.00     0.217 HD
ENDBRANCH   1  13
BRANCH   2  15
HETATM   15  C   UNK N   1      32.296  16.694   7.138  0.00  0.00     0.057 C 
BRANCH  15  16
HETATM   16  C   UNK N   1      33.389  16.996   8.150  0.00  0.00     0.115 C 
BRANCH  16  17
HETATM   17  N   UNK N   1      33.879  18.347   7.951  0.00  0.00    -0.430 N 
HETATM   18  H   UNK N   1      34.687  18.522   7.354  0.00  0.00     0.149 HD
HETATM   19  H   UNK N   1      33.412  19.128   8.413  0.00  0.00     0.149 HD
ENDBRANCH  16  17
ENDBRANCH  15  16
ENDBRANCH   2  15
TORSDOF 5
ENDMDL
MODEL 2
REMARK VINA RESULT:      -5.6     11.932     15.096
REMARK  5 active torsions:
REMARK  status: ('A' for Active; 'I' for Inactive)
REMARK    1  A    between atoms: C_1  and  O_9 
REMARK    2  A    between atoms: C_4  and  C_7 
REMARK    3  A    between atoms: C_7  and  C_8 
REMARK    4  A    between atoms: C_8  and  N_11 
REMARK    5  A    between atoms: C_13  and  C_14 
ROOT
HETATM    1  C   UNK N   1      35.184  12.876  19.008  0.00  0.00     0.072 A 
HETATM    2  C   UNK N   1      35.690  12.542  16.272  0.00  0.00    -0.056 A 
HETATM    3  C   UNK N   1      35.316  13.990  18.174  0.00  0.00     0.037 A 
HETATM    4  C   UNK N   1      35.567  13.826  16.811  0.00  0.00     0.010 A 
HETATM    5  C   UNK N   1      35.579  11.425  17.103  0.00  0.00     0.017 A 
HETATM    6  C   UNK N   1      35.325  11.574  18.479  0.00  0.00    -0.020 A 
ENDROOT
BRANCH   6   7
HETATM    7  C   UNK N   1      35.176  10.357  19.373  0.00  0.00     0.021 C 
HETATM    8  C   UNK N   1      34.235   9.290  18.788  0.00  0.00     0.009 C 
HETATM    9  C   UNK N   1      34.088   8.109  19.744  0.00  0.00     0.001 C 
HETATM   10  C   UNK N   1      35.452   7.508  20.068  0.00  0.00     0.000 C 
HETATM   11  C   UNK N   1      36.363   8.573  20.666  0.00  0.00     0.001 C 
HETATM   12  C   UNK N   1      36.535   9.720  19.676  0.00  0.00     0.009 C 
ENDBRANCH   6   7
BRANCH   1  13
HETATM   13  O   UNK N   1      34.922  13.062  20.313  0.00  0.00    -0.360 OA
HETATM   14  H   UNK N   1      35.001  13.893  20.739  0.00  0.00     0.217 HD
ENDBRANCH   1  13
BRANCH   2  15
HETATM   15  C   UNK N   1      35.910  12.349  14.811  0.00  0.00     0.057 C 
BRANCH  15  16
HETATM   16  C   UNK N   1      35.753  13.675  14.084  0.00  0.00     0.115 C 
BRANCH  16  17
HETATM   17  N   UNK N   1      36.887  13.887  13.204  0.00  0.00    -0.430 N 
HETATM   18  H   UNK N   1      37.618  13.180  13.121  0.00  0.00     0.149 HD
HETATM   19  H   UNK N   1      36.954  14.751  12.664  0.00  0.00     0.149 HD
ENDBRANCH  16  17
ENDBRANCH  15  16
ENDBRANCH   2  15
TORSDOF 5
ENDMDL
MODEL 3
REMARK VINA RESULT:      -5.5      3.502      5.889
REMARK  5 active torsions:
REMARK  status: ('A' for Active; 'I' for Inactive)
REMARK    1  A    between atoms: C_1  and  O_9 
REMARK    2  A    between atoms: C_4  and  C_7 
REMARK    3  A    between atoms: C_7  and  C_8 
REMARK    4  A    between atoms: C_8  and  N_11 
REMARK    5  A    between atoms: C_13  and  C_14 
ROOT
HETATM    1  C   UNK N   1      33.361  17.818   7.345  0.00  0.00     0.072 A 
HETATM    2  C   UNK N   1      30.608  17.399   7.661  0.00  0.00    -0.056 A 
HETATM    3  C   UNK N   1      32.696  18.317   8.469  0.00  0.00     0.037 A 
HETATM    4  C   UNK N   1      31.325  18.109   8.629  0.00  0.00     0.010 A 
HETATM    5  C   UNK N   1      31.263  16.915   6.527  0.00  0.00     0.017 A 
HETATM    6  C   UNK N   1      32.644  17.117   6.351  0.00  0.00    -0.020 A 
ENDROOT
BRANCH   6   7
HETATM    7  C   UNK N   1      33.356  16.563   5.131  0.00  0.00     0.021 C 
HETATM    8  C   UNK N   1      33.750  15.084   5.280  0.00  0.00     0.009 C 
HETATM    9  C   UNK N   1      34.499  14.591   4.045  0.00  0.00     0.001 C 
HETATM   10  C   UNK N   1      33.659  14.803   2.788  0.00  0.00     0.000 C 
HETATM   11  C   UNK N   1      33.297  16.277   2.645  0.00  0.00     0.001 C 
HETATM   12  C   UNK N   1      32.509  16.735   3.867  0.00  0.00     0.009 C 
ENDBRANCH   6   7
BRANCH   1  13
HETATM   13  O   UNK N   1      34.685  18.016   7.226  0.00  0.00    -0.360 OA
HETATM   14  H   UNK N   1      35.308  17.715   7.858  0.00  0.00     0.217 HD
ENDBRANCH   1  13
BRANCH   2  15
HETATM   15  C   UNK N   1      29.154  17.127   7.841  0.00  0.00     0.057 C 
BRANCH  15  16
HETATM   16  C   UNK N   1      28.355  18.398   7.602  0.00  0.00     0.115 C 
BRANCH  16  17
HETATM   17  N   UNK N   1      27.665  18.778   8.821  0.00  0.00    -0.430 N 
HETATM   18  H   UNK N   1      28.189  18.963   9.676  0.00  0.00     0.149 HD
HETATM   19  H   UNK N   1      26.648  18.860   8.822  0.00  0.00     0.149 HD
ENDBRANCH  16  17
ENDBRANCH  15  16
ENDBRANCH   2  15
TORSDOF 5
ENDMDL
MODEL 4
REMARK VINA RESULT:      -5.5      2.349      5.735
REMARK  5 active torsions:
REMARK  status: ('A' for Active; 'I' for Inactive)
REMARK    1  A    between atoms: C_1  and  O_9 
REMARK    2  A    between atoms: C_4  and  C_7 
REMARK    3  A    between atoms: C_7  and  C_8 
REMARK    4  A    between atoms: C_8  and  N_11 
REMARK    5  A    between atoms: C_13  and  C_14 
ROOT
HETATM    1  C   UNK N   1      29.565  18.349   9.044  0.00  0.00     0.072 A 
HETATM    2  C   UNK N   1      28.926  17.845   6.363  0.00  0.00    -0.056 A 
HETATM    3  C   UNK N   1      28.306  18.693   8.542  0.00  0.00     0.037 A 
HETATM    4  C   UNK N   1      27.985  18.443   7.208  0.00  0.00     0.010 A 
HETATM    5  C   UNK N   1      30.191  17.517   6.853  0.00  0.00     0.017 A 
HETATM    6  C   UNK N   1      30.530  17.763   8.196  0.00  0.00    -0.020 A 
ENDROOT
BRANCH   6   7
HETATM    7  C   UNK N   1      31.897  17.378   8.730  0.00  0.00     0.021 C 
HETATM    8  C   UNK N   1      32.133  15.857   8.744  0.00  0.00     0.009 C 
HETATM    9  C   UNK N   1      33.503  15.524   9.330  0.00  0.00     0.001 C 
HETATM   10  C   UNK N   1      34.606  16.236   8.553  0.00  0.00     0.000 C 
HETATM   11  C   UNK N   1      34.368  17.742   8.568  0.00  0.00     0.001 C 
HETATM   12  C   UNK N   1      33.016  18.055   7.936  0.00  0.00     0.009 C 
ENDBRANCH   6   7
BRANCH   1  13
HETATM   13  O   UNK N   1      29.841  18.584  10.338  0.00  0.00    -0.360 OA
HETATM   14  H   UNK N   1      30.697  18.805  10.649  0.00  0.00     0.217 HD
ENDBRANCH   1  13
BRANCH   2  15
HETATM   15  C   UNK N   1      28.581  17.526   4.948  0.00  0.00     0.057 C 
BRANCH  15  16
HETATM   16  C   UNK N   1      27.443  18.418   4.478  0.00  0.00     0.115 C 
BRANCH  16  17
HETATM   17  N   UNK N   1      27.982  19.577   3.791  0.00  0.00    -0.430 N 
HETATM   18  H   UNK N   1      28.289  20.395   4.318  0.00  0.00     0.149 HD
HETATM   19  H   UNK N   1      28.056  19.573   2.774  0.00  0.00     0.149 HD
ENDBRANCH  16  17
ENDBRANCH  15  16
ENDBRANCH   2  15
TORSDOF 5
ENDMDL
MODEL 5
REMARK VINA RESULT:      -5.5     11.404     14.464
REMARK  5 active torsions:
REMARK  status: ('A' for Active; 'I' for Inactive)
REMARK    1  A    between atoms: C_1  and  O_9 
REMARK    2  A    between atoms: C_4  and  C_7 
REMARK    3  A    between atoms: C_7  and  C_8 
REMARK    4  A    between atoms: C_8  and  N_11 
REMARK    5  A    between atoms: C_13  and  C_14 
ROOT
HETATM    1  C   UNK N   1      25.630  25.327  -5.340  0.00  0.00     0.072 A 
HETATM    2  C   UNK N   1      26.118  27.792  -4.100  0.00  0.00    -0.056 A 
HETATM    3  C   UNK N   1      24.866  26.450  -5.675  0.00  0.00     0.037 A 
HETATM    4  C   UNK N   1      25.108  27.678  -5.059  0.00  0.00     0.010 A 
HETATM    5  C   UNK N   1      26.872  26.671  -3.747  0.00  0.00     0.017 A 
HETATM    6  C   UNK N   1      26.640  25.426  -4.358  0.00  0.00    -0.020 A 
ENDROOT
BRANCH   6   7
HETATM    7  C   UNK N   1      27.482  24.217  -3.992  0.00  0.00     0.021 C 
HETATM    8  C   UNK N   1      28.814  24.154  -4.758  0.00  0.00     0.009 C 
HETATM    9  C   UNK N   1      29.599  22.900  -4.384  0.00  0.00     0.001 C 
HETATM   10  C   UNK N   1      29.838  22.846  -2.878  0.00  0.00     0.000 C 
HETATM   11  C   UNK N   1      28.507  22.887  -2.136  0.00  0.00     0.001 C 
HETATM   12  C   UNK N   1      27.762  24.170  -2.488  0.00  0.00     0.009 C 
ENDBRANCH   6   7
BRANCH   1  13
HETATM   13  O   UNK N   1      25.389  24.161  -5.962  0.00  0.00    -0.360 OA
HETATM   14  H   UNK N   1      24.689  24.041  -6.574  0.00  0.00     0.217 HD
ENDBRANCH   1  13
BRANCH   2  15
HETATM   15  C   UNK N   1      26.421  29.109  -3.469  0.00  0.00     0.057 C 
BRANCH  15  16
HETATM   16  C   UNK N   1      27.800  29.072  -2.829  0.00  0.00     0.115 C 
BRANCH  16  17
HETATM   17  N   UNK N   1      27.720  29.563  -1.467  0.00  0.00    -0.430 N 
HETATM   18  H   UNK N   1      27.005  29.210  -0.830  0.00  0.00     0.149 HD
HETATM   19  H   UNK N   1      28.383  30.267  -1.143  0.00  0.00     0.149 HD
ENDBRANCH  16  17
ENDBRANCH  15  16
ENDBRANCH   2  15
TORSDOF 5
ENDMDL
MODEL 6
REMARK VINA RESULT:      -5.3     11.216     13.729
REMARK  5 active torsions:
REMARK  status: ('A' for Active; 'I' for Inactive)
REMARK    1  A    between atoms: C_1  and  O_9 
REMARK    2  A    between atoms: C_4  and  C_7 
REMARK    3  A    between atoms: C_7  and  C_8 
REMARK    4  A    between atoms: C_8  and  N_11 
REMARK    5  A    between atoms: C_13  and  C_14 
ROOT
HETATM    1  C   UNK N   1      35.227  13.309  18.441  0.00  0.00     0.072 A 
HETATM    2  C   UNK N   1      35.193  10.514  18.629  0.00  0.00    -0.056 A 
HETATM    3  C   UNK N   1      35.190  12.687  19.692  0.00  0.00     0.037 A 
HETATM    4  C   UNK N   1      35.174  11.295  19.789  0.00  0.00     0.010 A 
HETATM    5  C   UNK N   1      35.210  11.129  17.376  0.00  0.00     0.017 A 
HETATM    6  C   UNK N   1      35.227  12.531  17.262  0.00  0.00    -0.020 A 
ENDROOT
BRANCH   6   7
HETATM    7  C   UNK N   1      35.275  13.194  15.898  0.00  0.00     0.021 C 
HETATM    8  C   UNK N   1      36.631  13.856  15.596  0.00  0.00     0.009 C 
HETATM    9  C   UNK N   1      36.610  14.544  14.233  0.00  0.00     0.001 C 
HETATM   10  C   UNK N   1      36.236  13.550  13.137  0.00  0.00     0.000 C 
HETATM   11  C   UNK N   1      34.881  12.922  13.442  0.00  0.00     0.001 C 
HETATM   12  C   UNK N   1      34.939  12.201  14.784  0.00  0.00     0.009 C 
ENDBRANCH   6   7
BRANCH   1  13
HETATM   13  O   UNK N   1      35.262  14.651  18.377  0.00  0.00    -0.360 OA
HETATM   14  H   UNK N   1      35.942  15.166  18.767  0.00  0.00     0.217 HD
ENDBRANCH   1  13
BRANCH   2  15
HETATM   15  C   UNK N   1      35.225   9.026  18.717  0.00  0.00     0.057 C 
BRANCH  15  16
HETATM   16  C   UNK N   1      33.869   8.503  19.161  0.00  0.00     0.115 C 
BRANCH  16  17
HETATM   17  N   UNK N   1      33.985   7.896  20.474  0.00  0.00    -0.430 N 
HETATM   18  H   UNK N   1      33.398   8.214  21.245  0.00  0.00     0.149 HD
HETATM   19  H   UNK N   1      34.659   7.145  20.626  0.00  0.00     0.149 HD
ENDBRANCH  16  17
ENDBRANCH  15  16
ENDBRANCH   2  15
TORSDOF 5
ENDMDL
MODEL 7
REMARK VINA RESULT:      -5.3      3.264      4.606
REMARK  5 active torsions:
REMARK  status: ('A' for Active; 'I' for Inactive)
REMARK    1  A    between atoms: C_1  and  O_9 
REMARK    2  A    between atoms: C_4  and  C_7 
REMARK    3  A    between atoms: C_7  and  C_8 
REMARK    4  A    between atoms: C_8  and  N_11 
REMARK    5  A    between atoms: C_13  and  C_14 
ROOT
HETATM    1  C   UNK N   1      33.118  16.825   7.878  0.00  0.00     0.072 A 
HETATM    2  C   UNK N   1      32.926  17.042   5.090  0.00  0.00    -0.056 A 
HETATM    3  C   UNK N   1      34.258  16.695   7.080  0.00  0.00     0.037 A 
HETATM    4  C   UNK N   1      34.166  16.803   5.691  0.00  0.00     0.010 A 
HETATM    5  C   UNK N   1      31.780  17.154   5.880  0.00  0.00     0.017 A 
HETATM    6  C   UNK N   1      31.857  17.047   7.281  0.00  0.00    -0.020 A 
ENDROOT
BRANCH   6   7
HETATM    7  C   UNK N   1      30.613  17.198   8.136  0.00  0.00     0.021 C 
HETATM    8  C   UNK N   1      30.605  18.494   8.966  0.00  0.00     0.009 C 
HETATM    9  C   UNK N   1      29.354  18.574   9.839  0.00  0.00     0.001 C 
HETATM   10  C   UNK N   1      28.095  18.471   8.983  0.00  0.00     0.000 C 
HETATM   11  C   UNK N   1      28.111  17.173   8.185  0.00  0.00     0.001 C 
HETATM   12  C   UNK N   1      29.342  17.135   7.286  0.00  0.00     0.009 C 
ENDBRANCH   6   7
BRANCH   1  13
HETATM   13  O   UNK N   1      33.239  16.736   9.213  0.00  0.00    -0.360 OA
HETATM   14  H   UNK N   1      33.743  17.339   9.724  0.00  0.00     0.217 HD
ENDBRANCH   1  13
BRANCH   2  15
HETATM   15  C   UNK N   1      32.818  17.209   3.613  0.00  0.00     0.057 C 
BRANCH  15  16
HETATM   16  C   UNK N   1      31.719  16.311   3.069  0.00  0.00     0.115 C 
BRANCH  16  17
HETATM   17  N   UNK N   1      32.185  14.937   3.029  0.00  0.00    -0.430 N 
HETATM   18  H   UNK N   1      32.492  14.470   3.881  0.00  0.00     0.149 HD
HETATM   19  H   UNK N   1      32.204  14.436   2.140  0.00  0.00     0.149 HD
ENDBRANCH  16  17
ENDBRANCH  15  16
ENDBRANCH   2  15
TORSDOF 5
ENDMDL
MODEL 8
REMARK VINA RESULT:      -5.3     11.425     12.958
REMARK  5 active torsions:
REMARK  status: ('A' for Active; 'I' for Inactive)
REMARK    1  A    between atoms: C_1  and  O_9 
REMARK    2  A    between atoms: C_4  and  C_7 
REMARK    3  A    between atoms: C_7  and  C_8 
REMARK    4  A    between atoms: C_8  and  N_11 
REMARK    5  A    between atoms: C_13  and  C_14 
ROOT
HETATM    1  C   UNK N   1      30.486  22.520  -2.785  0.00  0.00     0.072 A 
HETATM    2  C   UNK N   1      30.465  21.262  -5.289  0.00  0.00    -0.056 A 
HETATM    3  C   UNK N   1      31.231  21.355  -2.996  0.00  0.00     0.037 A 
HETATM    4  C   UNK N   1      31.223  20.727  -4.243  0.00  0.00     0.010 A 
HETATM    5  C   UNK N   1      29.705  22.413  -5.080  0.00  0.00     0.017 A 
HETATM    6  C   UNK N   1      29.702  23.058  -3.829  0.00  0.00    -0.020 A 
ENDROOT
BRANCH   6   7
HETATM    7  C   UNK N   1      28.896  24.325  -3.615  0.00  0.00     0.021 C 
HETATM    8  C   UNK N   1      29.469  25.540  -4.367  0.00  0.00     0.009 C 
HETATM    9  C   UNK N   1      28.647  26.794  -4.083  0.00  0.00     0.001 C 
HETATM   10  C   UNK N   1      27.183  26.571  -4.452  0.00  0.00     0.000 C 
HETATM   11  C   UNK N   1      26.627  25.379  -3.682  0.00  0.00     0.001 C 
HETATM   12  C   UNK N   1      27.432  24.128  -4.017  0.00  0.00     0.009 C 
ENDBRANCH   6   7
BRANCH   1  13
HETATM   13  O   UNK N   1      30.528  23.114  -1.581  0.00  0.00    -0.360 OA
HETATM   14  H   UNK N   1      30.242  23.995  -1.433  0.00  0.00     0.217 HD
ENDBRANCH   1  13
BRANCH   2  15
HETATM   15  C   UNK N   1      30.485  20.631  -6.640  0.00  0.00     0.057 C 
BRANCH  15  16
HETATM   16  C   UNK N   1      29.145  20.834  -7.327  0.00  0.00     0.115 C 
BRANCH  16  17
HETATM   17  N   UNK N   1      28.692  19.579  -7.897  0.00  0.00    -0.430 N 
HETATM   18  H   UNK N   1      29.188  18.711  -7.697  0.00  0.00     0.149 HD
HETATM   19  H   UNK N   1      27.871  19.566  -8.503  0.00  0.00     0.149 HD
ENDBRANCH  16  17
ENDBRANCH  15  16
ENDBRANCH   2  15
TORSDOF 5
ENDMDL
MODEL 9
REMARK VINA RESULT:      -5.3      7.997      8.780
REMARK  5 active torsions:
REMARK  status: ('A' for Active; 'I' for Inactive)
REMARK    1  A    between atoms: C_1  and  O_9 
REMARK    2  A    between atoms: C_4  and  C_7 
REMARK    3  A    between atoms: C_7  and  C_8 
REMARK    4  A    between atoms: C_8  and  N_11 
REMARK    5  A    between atoms: C_13  and  C_14 
ROOT
HETATM    1  C   UNK N   1      20.207  13.990   9.606  0.00  0.00     0.072 A 
HETATM    2  C   UNK N   1      22.739  12.801   9.437  0.00  0.00    -0.056 A 
HETATM    3  C   UNK N   1      20.628  13.085  10.585  0.00  0.00     0.037 A 
HETATM    4  C   UNK N   1      21.889  12.492  10.504  0.00  0.00     0.010 A 
HETATM    5  C   UNK N   1      22.317  13.689   8.446  0.00  0.00     0.017 A 
HETATM    6  C   UNK N   1      21.049  14.295   8.514  0.00  0.00    -0.020 A 
ENDROOT
BRANCH   6   7
HETATM    7  C   UNK N   1      20.607  15.282   7.449  0.00  0.00     0.021 C 
HETATM    8  C   UNK N   1      21.707  16.287   7.064  0.00  0.00     0.009 C 
HETATM    9  C   UNK N   1      21.196  17.280   6.023  0.00  0.00     0.001 C 
HETATM   10  C   UNK N   1      20.677  16.546   4.790  0.00  0.00     0.000 C 
HETATM   11  C   UNK N   1      19.574  15.572   5.188  0.00  0.00     0.001 C 
HETATM   12  C   UNK N   1      20.118  14.560   6.191  0.00  0.00     0.009 C 
ENDBRANCH   6   7
BRANCH   1  13
HETATM   13  O   UNK N   1      18.996  14.561   9.719  0.00  0.00    -0.360 OA
HETATM   14  H   UNK N   1      18.444  14.747   8.985  0.00  0.00     0.217 HD
ENDBRANCH   1  13
BRANCH   2  15
HETATM   15  C   UNK N   1      24.107  12.213   9.363  0.00  0.00     0.057 C 
BRANCH  15  16
HETATM   16  C   UNK N   1      25.147  13.322   9.360  0.00  0.00     0.115 C 
BRANCH  16  17
HETATM   17  N   UNK N   1      25.679  13.496  10.699  0.00  0.00    -0.430 N 
HETATM   18  H   UNK N   1      25.051  13.626  11.493  0.00  0.00     0.149 HD
HETATM   19  H   UNK N   1      26.688  13.487  10.848  0.00  0.00     0.149 HD
ENDBRANCH  16  17
ENDBRANCH  15  16
ENDBRANCH   2  15
TORSDOF 5
ENDMDL
