MODEL 1
REMARK VINA RESULT:      -5.1      0.000      0.000
REMARK  5 active torsions:
REMARK  status: ('A' for Active; 'I' for Inactive)
REMARK    1  A    between atoms: C_1  and  C_12 
REMARK    2  A    between atoms: C_2  and  C_5 
REMARK    3  A    between atoms: C_5  and  C_10 
REMARK    4  A    between atoms: N_6  and  C_10 
REMARK    5  A    between atoms: O_7  and  C_8 
ROOT
HETATM    1  C   UNK N   1      30.568  17.389   7.395  0.00  0.00    -0.056 A 
HETATM    2  C   UNK N   1      32.724  18.031   8.302  0.00  0.00     0.037 A 
HETATM    3  C   UNK N   1      33.335  17.754   7.073  0.00  0.00     0.071 A 
HETATM    4  C   UNK N   1      31.347  17.851   8.465  0.00  0.00     0.010 A 
HETATM    5  C   UNK N   1      31.180  17.112   6.172  0.00  0.00     0.017 A 
HETATM    6  C   UNK N   1      32.554  17.286   5.987  0.00  0.00    -0.025 A 
ENDROOT
BRANCH   1   7
HETATM    7  C   UNK N   1      29.087  17.179   7.498  0.00  0.00     0.057 C 
BRANCH   7   8
HETATM    8  C   UNK N   1      28.273  18.435   7.752  0.00  0.00     0.115 C 
BRANCH   8   9
HETATM    9  N   UNK N   1      27.746  18.385   9.104  0.00  0.00    -0.430 N 
HETATM   10  H   UNK N   1      26.912  18.921   9.347  0.00  0.00     0.149 HD
HETATM   11  H   UNK N   1      28.208  17.813   9.812  0.00  0.00     0.149 HD
ENDBRANCH   8   9
ENDBRANCH   7   8
ENDBRANCH   1   7
BRANCH   6  12
HETATM   12  C   UNK N   1      33.084  16.952   4.613  0.00  0.00     0.037 C 
HETATM   13  C   UNK N   1      32.192  17.271   3.427  0.00  0.00     0.010 C 
ENDBRANCH   6  12
BRANCH   3  14
HETATM   14  O   UNK N   1      34.662  17.942   6.956  0.00  0.00    -0.360 OA
HETATM   15  H   UNK N   1      34.995  18.777   6.695  0.00  0.00     0.217 HD
ENDBRANCH   3  14
TORSDOF 5
ENDMDL
MODEL 2
REMARK VINA RESULT:      -4.9     11.589     13.042
REMARK  5 active torsions:
REMARK  status: ('A' for Active; 'I' for Inactive)
REMARK    1  A    between atoms: C_1  and  C_12 
REMARK    2  A    between atoms: C_2  and  C_5 
REMARK    3  A    between atoms: C_5  and  C_10 
REMARK    4  A    between atoms: N_6  and  C_10 
REMARK    5  A    between atoms: O_7  and  C_8 
ROOT
HETATM    1  C   UNK N   1      35.671  12.547  16.359  0.00  0.00    -0.056 A 
HETATM    2  C   UNK N   1      35.275  13.977  18.278  0.00  0.00     0.037 A 
HETATM    3  C   UNK N   1      35.163  12.854  19.106  0.00  0.00     0.071 A 
HETATM    4  C   UNK N   1      35.528  13.828  16.911  0.00  0.00     0.010 A 
HETATM    5  C   UNK N   1      35.558  11.429  17.186  0.00  0.00     0.017 A 
HETATM    6  C   UNK N   1      35.307  11.555  18.555  0.00  0.00    -0.025 A 
ENDROOT
BRANCH   1   7
HETATM    7  C   UNK N   1      35.949  12.314  14.904  0.00  0.00     0.057 C 
BRANCH   7   8
HETATM    8  C   UNK N   1      35.602  13.474  13.988  0.00  0.00     0.115 C 
BRANCH   8   9
HETATM    9  N   UNK N   1      36.829  14.009  13.426  0.00  0.00    -0.430 N 
HETATM   10  H   UNK N   1      37.722  13.559  13.628  0.00  0.00     0.149 HD
HETATM   11  H   UNK N   1      36.798  14.835  12.828  0.00  0.00     0.149 HD
ENDBRANCH   8   9
ENDBRANCH   7   8
ENDBRANCH   1   7
BRANCH   6  12
HETATM   12  C   UNK N   1      35.212  10.265  19.332  0.00  0.00     0.037 C 
HETATM   13  C   UNK N   1      34.227   9.223  18.831  0.00  0.00     0.010 C 
ENDBRANCH   6  12
BRANCH   3  14
HETATM   14  O   UNK N   1      34.922  13.039  20.416  0.00  0.00    -0.360 OA
HETATM   15  H   UNK N   1      35.115  12.358  21.028  0.00  0.00     0.217 HD
ENDBRANCH   3  14
TORSDOF 5
ENDMDL
MODEL 3
REMARK VINA RESULT:      -4.7      3.775      5.263
REMARK  5 active torsions:
REMARK  status: ('A' for Active; 'I' for Inactive)
REMARK    1  A    between atoms: C_1  and  C_12 
REMARK    2  A    between atoms: C_2  and  C_5 
REMARK    3  A    between atoms: C_5  and  C_10 
REMARK    4  A    between atoms: N_6  and  C_10 
REMARK    5  A    between atoms: O_7  and  C_8 
ROOT
HETATM    1  C   UNK N   1      28.395  18.212   7.472  0.00  0.00    -0.056 A 
HETATM    2  C   UNK N   1      28.633  17.998   5.068  0.00  0.00     0.037 A 
HETATM    3  C   UNK N   1      28.097  19.279   4.890  0.00  0.00     0.071 A 
HETATM    4  C   UNK N   1      28.783  17.464   6.351  0.00  0.00     0.010 A 
HETATM    5  C   UNK N   1      27.861  19.487   7.292  0.00  0.00     0.017 A 
HETATM    6  C   UNK N   1      27.703  20.041   6.019  0.00  0.00    -0.025 A 
ENDROOT
BRANCH   1   7
HETATM    7  C   UNK N   1      28.534  17.704   8.876  0.00  0.00     0.057 C 
BRANCH   7   8
HETATM    8  C   UNK N   1      29.549  18.440   9.732  0.00  0.00     0.115 C 
BRANCH   8   9
HETATM    9  N   UNK N   1      30.882  18.124   9.251  0.00  0.00    -0.430 N 
HETATM   10  H   UNK N   1      31.693  18.598   9.648  0.00  0.00     0.149 HD
HETATM   11  H   UNK N   1      31.008  17.428   8.516  0.00  0.00     0.149 HD
ENDBRANCH   8   9
ENDBRANCH   7   8
ENDBRANCH   1   7
BRANCH   6  12
HETATM   12  C   UNK N   1      27.115  21.430   5.969  0.00  0.00     0.037 C 
HETATM   13  C   UNK N   1      26.156  21.820   7.080  0.00  0.00     0.010 C 
ENDBRANCH   6  12
BRANCH   3  14
HETATM   14  O   UNK N   1      27.971  19.758   3.640  0.00  0.00    -0.360 OA
HETATM   15  H   UNK N   1      27.974  19.170   2.911  0.00  0.00     0.217 HD
ENDBRANCH   3  14
TORSDOF 5
ENDMDL
MODEL 4
REMARK VINA RESULT:      -4.7      1.157      2.727
REMARK  5 active torsions:
REMARK  status: ('A' for Active; 'I' for Inactive)
REMARK    1  A    between atoms: C_1  and  C_12 
REMARK    2  A    between atoms: C_2  and  C_5 
REMARK    3  A    between atoms: C_5  and  C_10 
REMARK    4  A    between atoms: N_6  and  C_10 
REMARK    5  A    between atoms: O_7  and  C_8 
ROOT
HETATM    1  C   UNK N   1      30.606  17.339   7.549  0.00  0.00    -0.056 A 
HETATM    2  C   UNK N   1      31.890  17.139   5.501  0.00  0.00     0.037 A 
HETATM    3  C   UNK N   1      33.063  17.471   6.192  0.00  0.00     0.071 A 
HETATM    4  C   UNK N   1      30.667  17.073   6.173  0.00  0.00     0.010 A 
HETATM    5  C   UNK N   1      31.775  17.670   8.234  0.00  0.00     0.017 A 
HETATM    6  C   UNK N   1      33.009  17.740   7.583  0.00  0.00    -0.025 A 
ENDROOT
BRANCH   1   7
HETATM    7  C   UNK N   1      29.330  17.280   8.334  0.00  0.00     0.057 C 
BRANCH   7   8
HETATM    8  C   UNK N   1      28.975  18.550   9.085  0.00  0.00     0.115 C 
BRANCH   8   9
HETATM    9  N   UNK N   1      27.541  18.762   8.995  0.00  0.00    -0.430 N 
HETATM   10  H   UNK N   1      27.016  18.373   8.212  0.00  0.00     0.149 HD
HETATM   11  H   UNK N   1      27.059  19.301   9.715  0.00  0.00     0.149 HD
ENDBRANCH   8   9
ENDBRANCH   7   8
ENDBRANCH   1   7
BRANCH   6  12
HETATM   12  C   UNK N   1      34.193  18.106   8.444  0.00  0.00     0.037 C 
HETATM   13  C   UNK N   1      34.742  17.030   9.364  0.00  0.00     0.010 C 
ENDBRANCH   6  12
BRANCH   3  14
HETATM   14  O   UNK N   1      34.221  17.522   5.509  0.00  0.00    -0.360 OA
HETATM   15  H   UNK N   1      34.334  17.000   4.740  0.00  0.00     0.217 HD
ENDBRANCH   3  14
TORSDOF 5
ENDMDL
MODEL 5
REMARK VINA RESULT:      -4.6      9.852     11.154
REMARK  5 active torsions:
REMARK  status: ('A' for Active; 'I' for Inactive)
REMARK    1  A    between atoms: C_1  and  C_12 
REMARK    2  A    between atoms: C_2  and  C_5 
REMARK    3  A    between atoms: C_5  and  C_10 
REMARK    4  A    between atoms: N_6  and  C_10 
REMARK    5  A    between atoms: O_7  and  C_8 
ROOT
HETATM    1  C   UNK N   1      22.601  12.750   9.607  0.00  0.00    -0.056 A 
HETATM    2  C   UNK N   1      20.374  13.214  10.450  0.00  0.00     0.037 A 
HETATM    3  C   UNK N   1      20.234  14.262   9.532  0.00  0.00     0.071 A 
HETATM    4  C   UNK N   1      21.550  12.459  10.490  0.00  0.00     0.010 A 
HETATM    5  C   UNK N   1      22.459  13.795   8.695  0.00  0.00     0.017 A 
HETATM    6  C   UNK N   1      21.292  14.561   8.637  0.00  0.00    -0.025 A 
ENDROOT
BRANCH   1   7
HETATM    7  C   UNK N   1      23.886  11.978   9.592  0.00  0.00     0.057 C 
BRANCH   7   8
HETATM    8  C   UNK N   1      24.743  12.126  10.836  0.00  0.00     0.115 C 
BRANCH   8   9
HETATM    9  N   UNK N   1      25.550  13.325  10.709  0.00  0.00    -0.430 N 
HETATM   10  H   UNK N   1      26.227  13.406   9.950  0.00  0.00     0.149 HD
HETATM   11  H   UNK N   1      25.441  14.087  11.378  0.00  0.00     0.149 HD
ENDBRANCH   8   9
ENDBRANCH   7   8
ENDBRANCH   1   7
BRANCH   6  12
HETATM   12  C   UNK N   1      21.271  15.658   7.600  0.00  0.00     0.037 C 
HETATM   13  C   UNK N   1      22.457  15.746   6.657  0.00  0.00     0.010 C 
ENDBRANCH   6  12
BRANCH   3  14
HETATM   14  O   UNK N   1      19.086  14.963   9.524  0.00  0.00    -0.360 OA
HETATM   15  H   UNK N   1      19.038  15.789   9.962  0.00  0.00     0.217 HD
ENDBRANCH   3  14
TORSDOF 5
ENDMDL
MODEL 6
REMARK VINA RESULT:      -4.6      3.395      4.748
REMARK  5 active torsions:
REMARK  status: ('A' for Active; 'I' for Inactive)
REMARK    1  A    between atoms: C_1  and  C_12 
REMARK    2  A    between atoms: C_2  and  C_5 
REMARK    3  A    between atoms: C_5  and  C_10 
REMARK    4  A    between atoms: N_6  and  C_10 
REMARK    5  A    between atoms: O_7  and  C_8 
ROOT
HETATM    1  C   UNK N   1      31.195  17.695   7.923  0.00  0.00    -0.056 A 
HETATM    2  C   UNK N   1      29.644  18.608   9.548  0.00  0.00     0.037 A 
HETATM    3  C   UNK N   1      28.566  18.053   8.847  0.00  0.00     0.071 A 
HETATM    4  C   UNK N   1      30.953  18.432   9.092  0.00  0.00     0.010 A 
HETATM    5  C   UNK N   1      30.121  17.144   7.226  0.00  0.00     0.017 A 
HETATM    6  C   UNK N   1      28.804  17.306   7.665  0.00  0.00    -0.025 A 
ENDROOT
BRANCH   1   7
HETATM    7  C   UNK N   1      32.574  17.461   7.381  0.00  0.00     0.057 C 
BRANCH   7   8
HETATM    8  C   UNK N   1      33.673  17.378   8.424  0.00  0.00     0.115 C 
BRANCH   8   9
HETATM    9  N   UNK N   1      34.514  18.556   8.314  0.00  0.00    -0.430 N 
HETATM   10  H   UNK N   1      35.046  18.725   7.460  0.00  0.00     0.149 HD
HETATM   11  H   UNK N   1      34.573  19.215   9.090  0.00  0.00     0.149 HD
ENDBRANCH   8   9
ENDBRANCH   7   8
ENDBRANCH   1   7
BRANCH   6  12
HETATM   12  C   UNK N   1      27.738  16.655   6.818  0.00  0.00     0.037 C 
HETATM   13  C   UNK N   1      27.199  17.454   5.644  0.00  0.00     0.010 C 
ENDBRANCH   6  12
BRANCH   3  14
HETATM   14  O   UNK N   1      27.322  18.243   9.320  0.00  0.00    -0.360 OA
HETATM   15  H   UNK N   1      27.196  18.582  10.183  0.00  0.00     0.217 HD
ENDBRANCH   3  14
TORSDOF 5
ENDMDL
MODEL 7
REMARK VINA RESULT:      -4.6     12.102     13.241
REMARK  5 active torsions:
REMARK  status: ('A' for Active; 'I' for Inactive)
REMARK    1  A    between atoms: C_1  and  C_12 
REMARK    2  A    between atoms: C_2  and  C_5 
REMARK    3  A    between atoms: C_5  and  C_10 
REMARK    4  A    between atoms: N_6  and  C_10 
REMARK    5  A    between atoms: O_7  and  C_8 
ROOT
HETATM    1  C   UNK N   1      35.358  11.610  18.901  0.00  0.00    -0.056 A 
HETATM    2  C   UNK N   1      35.101  13.622  17.571  0.00  0.00     0.037 A 
HETATM    3  C   UNK N   1      34.972  12.851  16.410  0.00  0.00     0.071 A 
HETATM    4  C   UNK N   1      35.293  13.008  18.812  0.00  0.00     0.010 A 
HETATM    5  C   UNK N   1      35.230  10.844  17.742  0.00  0.00     0.017 A 
HETATM    6  C   UNK N   1      35.036  11.437  16.492  0.00  0.00    -0.025 A 
ENDROOT
BRANCH   1   7
HETATM    7  C   UNK N   1      35.557  10.885  20.199  0.00  0.00     0.057 C 
BRANCH   7   8
HETATM    8  C   UNK N   1      34.358  10.091  20.684  0.00  0.00     0.115 C 
BRANCH   8   9
HETATM    9  N   UNK N   1      34.065  10.474  22.053  0.00  0.00    -0.430 N 
HETATM   10  H   UNK N   1      34.469   9.948  22.828  0.00  0.00     0.149 HD
HETATM   11  H   UNK N   1      33.455  11.270  22.241  0.00  0.00     0.149 HD
ENDBRANCH   8   9
ENDBRANCH   7   8
ENDBRANCH   1   7
BRANCH   6  12
HETATM   12  C   UNK N   1      34.911  10.491  15.323  0.00  0.00     0.037 C 
HETATM   13  C   UNK N   1      33.653  10.592  14.478  0.00  0.00     0.010 C 
ENDBRANCH   6  12
BRANCH   3  14
HETATM   14  O   UNK N   1      34.785  13.479  15.236  0.00  0.00    -0.360 OA
HETATM   15  H   UNK N   1      34.427  13.014  14.507  0.00  0.00     0.217 HD
ENDBRANCH   3  14
TORSDOF 5
ENDMDL
MODEL 8
REMARK VINA RESULT:      -4.4      2.868      3.774
REMARK  5 active torsions:
REMARK  status: ('A' for Active; 'I' for Inactive)
REMARK    1  A    between atoms: C_1  and  C_12 
REMARK    2  A    between atoms: C_2  and  C_5 
REMARK    3  A    between atoms: C_5  and  C_10 
REMARK    4  A    between atoms: N_6  and  C_10 
REMARK    5  A    between atoms: O_7  and  C_8 
ROOT
HETATM    1  C   UNK N   1      31.713  17.244   7.256  0.00  0.00    -0.056 A 
HETATM    2  C   UNK N   1      29.673  17.296   5.944  0.00  0.00     0.037 A 
HETATM    3  C   UNK N   1      30.422  17.361   4.763  0.00  0.00     0.071 A 
HETATM    4  C   UNK N   1      30.312  17.237   7.186  0.00  0.00     0.010 A 
HETATM    5  C   UNK N   1      32.456  17.310   6.078  0.00  0.00     0.017 A 
HETATM    6  C   UNK N   1      31.839  17.368   4.826  0.00  0.00    -0.025 A 
ENDROOT
BRANCH   1   7
HETATM    7  C   UNK N   1      32.462  17.177   8.553  0.00  0.00     0.057 C 
BRANCH   7   8
HETATM    8  C   UNK N   1      33.962  17.380   8.442  0.00  0.00     0.115 C 
BRANCH   8   9
HETATM    9  N   UNK N   1      34.543  17.313   9.771  0.00  0.00    -0.430 N 
HETATM   10  H   UNK N   1      34.170  17.896  10.521  0.00  0.00     0.149 HD
HETATM   11  H   UNK N   1      35.324  16.683   9.956  0.00  0.00     0.149 HD
ENDBRANCH   8   9
ENDBRANCH   7   8
ENDBRANCH   1   7
BRANCH   6  12
HETATM   12  C   UNK N   1      32.763  17.433   3.634  0.00  0.00     0.037 C 
HETATM   13  C   UNK N   1      33.138  16.118   2.972  0.00  0.00     0.010 C 
ENDBRANCH   6  12
BRANCH   3  14
HETATM   14  O   UNK N   1      29.770  17.414   3.587  0.00  0.00    -0.360 OA
HETATM   15  H   UNK N   1      30.160  17.046   2.819  0.00  0.00     0.217 HD
ENDBRANCH   3  14
TORSDOF 5
ENDMDL
MODEL 9
REMARK VINA RESULT:      -4.3      2.952      4.506
REMARK  5 active torsions:
REMARK  status: ('A' for Active; 'I' for Inactive)
REMARK    1  A    between atoms: C_1  and  C_12 
REMARK    2  A    between atoms: C_2  and  C_5 
REMARK    3  A    between atoms: C_5  and  C_10 
REMARK    4  A    between atoms: N_6  and  C_10 
REMARK    5  A    between atoms: O_7  and  C_8 
ROOT
HETATM    1  C   UNK N   1      32.749  17.420   5.820  0.00  0.00    -0.056 A 
HETATM    2  C   UNK N   1      32.798  17.799   8.215  0.00  0.00     0.037 A 
HETATM    3  C   UNK N   1      31.419  17.565   8.291  0.00  0.00     0.071 A 
HETATM    4  C   UNK N   1      33.462  17.727   6.988  0.00  0.00     0.010 A 
HETATM    5  C   UNK N   1      31.376  17.189   5.898  0.00  0.00     0.017 A 
HETATM    6  C   UNK N   1      30.692  17.254   7.115  0.00  0.00    -0.025 A 
ENDROOT
BRANCH   1   7
HETATM    7  C   UNK N   1      33.399  17.321   4.472  0.00  0.00     0.057 C 
BRANCH   7   8
HETATM    8  C   UNK N   1      32.535  16.712   3.383  0.00  0.00     0.115 C 
BRANCH   8   9
HETATM    9  N   UNK N   1      33.369  15.878   2.536  0.00  0.00    -0.430 N 
HETATM   10  H   UNK N   1      33.560  16.157   1.573  0.00  0.00     0.149 HD
HETATM   11  H   UNK N   1      33.764  15.012   2.904  0.00  0.00     0.149 HD
ENDBRANCH   8   9
ENDBRANCH   7   8
ENDBRANCH   1   7
BRANCH   6  12
HETATM   12  C   UNK N   1      29.208  16.979   7.056  0.00  0.00     0.037 C 
HETATM   13  C   UNK N   1      28.284  18.177   6.928  0.00  0.00     0.010 C 
ENDBRANCH   6  12
BRANCH   3  14
HETATM   14  O   UNK N   1      30.817  17.641   9.491  0.00  0.00    -0.360 OA
HETATM   15  H   UNK N   1      30.696  16.867  10.004  0.00  0.00     0.217 HD
ENDBRANCH   3  14
TORSDOF 5
ENDMDL
