REMARK  4 active torsions:
REMARK  status: ('A' for Active; 'I' for Inactive)
REMARK    1  A    between atoms: C_3  and  S_4 
REMARK    2  A    between atoms: C_10  and  C_11 
REMARK    3  A    between atoms: C_11  and  C_12 
REMARK    4  A    between atoms: C_12  and  N_13 
ROOT
HETATM    1  C   UNK N   1       1.689   0.176  -0.378  0.00  0.00     0.009 A 
HETATM    2  C   UNK N   1       1.668  -1.217  -0.243  0.00  0.00     0.026 A 
HETATM    3  C   UNK N   1       0.453  -1.884  -0.060  0.00  0.00     0.090 A 
HETATM    4  C   UNK N   1      -0.743  -1.161  -0.028  0.00  0.00     0.026 A 
HETATM    5  C   UNK N   1      -0.723   0.231  -0.164  0.00  0.00     0.009 A 
HETATM    6  C   UNK N   1       0.492   0.902  -0.327  0.00  0.00    -0.057 A 
ENDROOT
BRANCH   6   7
HETATM    7  C   UNK N   1       0.500   2.392  -0.439  0.00  0.00     0.057 C 
BRANCH   7   8
HETATM    8  C   UNK N   1       1.242   3.025   0.729  0.00  0.00     0.115 C 
BRANCH   8   9
HETATM    9  N   UNK N   1       2.610   3.322   0.341  0.00  0.00    -0.430 N 
HETATM   10  H   UNK N   1       3.270   2.594   0.069  0.00  0.00     0.149 HD
HETATM   11  H   UNK N   1       2.921   4.293   0.341  0.00  0.00     0.149 HD
ENDBRANCH   8   9
ENDBRANCH   7   8
ENDBRANCH   6   7
BRANCH   3  12
HETATM   12  S   UNK N   1       0.432  -3.659   0.183  0.00  0.00     0.333 S 
HETATM   13  F   UNK N   1       0.178  -4.879  -0.988  0.00  0.00    -0.100 F 
HETATM   14  O   UNK N   1       1.729  -4.017   0.925  0.00  0.00    -0.189 OA
HETATM   15  O   UNK N   1      -0.549  -3.931   1.334  0.00  0.00    -0.189 OA
ENDBRANCH   3  12
TORSDOF 4
