MODEL 1
REMARK VINA RESULT:      -5.3      0.000      0.000
REMARK  4 active torsions:
REMARK  status: ('A' for Active; 'I' for Inactive)
REMARK    1  A    between atoms: C_3  and  S_4 
REMARK    2  A    between atoms: C_10  and  C_11 
REMARK    3  A    between atoms: C_11  and  C_12 
REMARK    4  A    between atoms: C_12  and  N_13 
ROOT
HETATM    1  C   UNK N   1      35.249  14.315   9.547  0.00  0.00     0.009 A 
HETATM    2  C   UNK N   1      34.855  15.393   8.745  0.00  0.00     0.026 A 
HETATM    3  C   UNK N   1      34.856  16.690   9.266  0.00  0.00     0.090 A 
HETATM    4  C   UNK N   1      35.267  16.913  10.584  0.00  0.00     0.026 A 
HETATM    5  C   UNK N   1      35.662  15.837  11.386  0.00  0.00     0.009 A 
HETATM    6  C   UNK N   1      35.642  14.537  10.873  0.00  0.00    -0.057 A 
ENDROOT
BRANCH   6   7
HETATM    7  C   UNK N   1      36.037  13.395  11.752  0.00  0.00     0.057 C 
BRANCH   7   8
HETATM    8  C   UNK N   1      35.923  13.770  13.222  0.00  0.00     0.115 C 
BRANCH   8   9
HETATM    9  N   UNK N   1      37.088  13.290  13.945  0.00  0.00    -0.430 N 
HETATM   10  H   UNK N   1      37.136  13.289  14.963  0.00  0.00     0.149 HD
HETATM   11  H   UNK N   1      37.887  12.943  13.414  0.00  0.00     0.149 HD
ENDBRANCH   8   9
ENDBRANCH   7   8
ENDBRANCH   6   7
BRANCH   3  12
HETATM   12  S   UNK N   1      34.286  18.060   8.263  0.00  0.00     0.333 S 
HETATM   13  F   UNK N   1      32.728  18.766   8.232  0.00  0.00    -0.100 F 
HETATM   14  O   UNK N   1      35.289  19.205   8.469  0.00  0.00    -0.189 OA
HETATM   15  O   UNK N   1      34.653  17.721   6.810  0.00  0.00    -0.189 OA
ENDBRANCH   3  12
TORSDOF 4
ENDMDL
MODEL 2
REMARK VINA RESULT:      -5.2     13.716     14.080
REMARK  4 active torsions:
REMARK  status: ('A' for Active; 'I' for Inactive)
REMARK    1  A    between atoms: C_3  and  S_4 
REMARK    2  A    between atoms: C_10  and  C_11 
REMARK    3  A    between atoms: C_11  and  C_12 
REMARK    4  A    between atoms: C_12  and  N_13 
ROOT
HETATM    1  C   UNK N   1      20.972  12.995  10.295  0.00  0.00     0.009 A 
HETATM    2  C   UNK N   1      20.188  14.088   9.910  0.00  0.00     0.026 A 
HETATM    3  C   UNK N   1      20.588  14.895   8.840  0.00  0.00     0.090 A 
HETATM    4  C   UNK N   1      21.764  14.599   8.144  0.00  0.00     0.026 A 
HETATM    5  C   UNK N   1      22.548  13.506   8.528  0.00  0.00     0.009 A 
HETATM    6  C   UNK N   1      22.161  12.711   9.610  0.00  0.00    -0.057 A 
ENDROOT
BRANCH   6   7
HETATM    7  C   UNK N   1      23.025  11.566  10.027  0.00  0.00     0.057 C 
BRANCH   7   8
HETATM    8  C   UNK N   1      23.726  11.861  11.345  0.00  0.00     0.115 C 
BRANCH   8   9
HETATM    9  N   UNK N   1      24.980  12.551  11.092  0.00  0.00    -0.430 N 
HETATM   10  H   UNK N   1      25.337  13.278  11.712  0.00  0.00     0.149 HD
HETATM   11  H   UNK N   1      25.521  12.299  10.266  0.00  0.00     0.149 HD
ENDBRANCH   8   9
ENDBRANCH   7   8
ENDBRANCH   6   7
BRANCH   3  12
HETATM   12  S   UNK N   1      19.621  16.335   8.391  0.00  0.00     0.333 S 
HETATM   13  F   UNK N   1      18.415  17.122   9.313  0.00  0.00    -0.100 F 
HETATM   14  O   UNK N   1      20.620  17.415   7.949  0.00  0.00    -0.189 OA
HETATM   15  O   UNK N   1      19.010  16.038   7.013  0.00  0.00    -0.189 OA
ENDBRANCH   3  12
TORSDOF 4
ENDMDL
MODEL 3
REMARK VINA RESULT:      -5.0     13.642     14.023
REMARK  4 active torsions:
REMARK  status: ('A' for Active; 'I' for Inactive)
REMARK    1  A    between atoms: C_3  and  S_4 
REMARK    2  A    between atoms: C_10  and  C_11 
REMARK    3  A    between atoms: C_11  and  C_12 
REMARK    4  A    between atoms: C_12  and  N_13 
ROOT
HETATM    1  C   UNK N   1      20.960  13.239  10.172  0.00  0.00     0.009 A 
HETATM    2  C   UNK N   1      20.386  14.359   9.559  0.00  0.00     0.026 A 
HETATM    3  C   UNK N   1      21.001  14.939   8.445  0.00  0.00     0.090 A 
HETATM    4  C   UNK N   1      22.181  14.390   7.934  0.00  0.00     0.026 A 
HETATM    5  C   UNK N   1      22.754  13.270   8.545  0.00  0.00     0.009 A 
HETATM    6  C   UNK N   1      22.152  12.701   9.671  0.00  0.00    -0.057 A 
ENDROOT
BRANCH   6   7
HETATM    7  C   UNK N   1      22.793  11.525  10.332  0.00  0.00     0.057 C 
BRANCH   7   8
HETATM    8  C   UNK N   1      23.518  11.939  11.604  0.00  0.00     0.115 C 
BRANCH   8   9
HETATM    9  N   UNK N   1      22.738  11.546  12.765  0.00  0.00    -0.430 N 
HETATM   10  H   UNK N   1      23.129  10.980  13.518  0.00  0.00     0.149 HD
HETATM   11  H   UNK N   1      21.766  11.847  12.829  0.00  0.00     0.149 HD
ENDBRANCH   8   9
ENDBRANCH   7   8
ENDBRANCH   6   7
BRANCH   3  12
HETATM   12  S   UNK N   1      20.306  16.414   7.703  0.00  0.00     0.333 S 
HETATM   13  F   UNK N   1      20.787  17.193   6.259  0.00  0.00    -0.100 F 
HETATM   14  O   UNK N   1      18.790  16.182   7.600  0.00  0.00    -0.189 OA
HETATM   15  O   UNK N   1      20.278  17.486   8.803  0.00  0.00    -0.189 OA
ENDBRANCH   3  12
TORSDOF 4
ENDMDL
MODEL 4
REMARK VINA RESULT:      -4.9      5.820      7.145
REMARK  4 active torsions:
REMARK  status: ('A' for Active; 'I' for Inactive)
REMARK    1  A    between atoms: C_3  and  S_4 
REMARK    2  A    between atoms: C_10  and  C_11 
REMARK    3  A    between atoms: C_11  and  C_12 
REMARK    4  A    between atoms: C_12  and  N_13 
ROOT
HETATM    1  C   UNK N   1      30.239  17.932   8.454  0.00  0.00     0.009 A 
HETATM    2  C   UNK N   1      31.631  17.843   8.572  0.00  0.00     0.026 A 
HETATM    3  C   UNK N   1      32.398  17.399   7.492  0.00  0.00     0.090 A 
HETATM    4  C   UNK N   1      31.776  17.058   6.287  0.00  0.00     0.026 A 
HETATM    5  C   UNK N   1      30.385  17.148   6.167  0.00  0.00     0.009 A 
HETATM    6  C   UNK N   1      29.614  17.573   7.253  0.00  0.00    -0.057 A 
ENDROOT
BRANCH   6   7
HETATM    7  C   UNK N   1      28.127  17.633   7.120  0.00  0.00     0.057 C 
BRANCH   7   8
HETATM    8  C   UNK N   1      27.692  18.905   6.407  0.00  0.00     0.115 C 
BRANCH   8   9
HETATM    9  N   UNK N   1      27.199  19.869   7.377  0.00  0.00    -0.430 N 
HETATM   10  H   UNK N   1      27.524  19.885   8.343  0.00  0.00     0.149 HD
HETATM   11  H   UNK N   1      26.504  20.553   7.080  0.00  0.00     0.149 HD
ENDBRANCH   8   9
ENDBRANCH   7   8
ENDBRANCH   6   7
BRANCH   3  12
HETATM   12  S   UNK N   1      34.172  17.218   7.665  0.00  0.00     0.333 S 
HETATM   13  F   UNK N   1      35.029  16.350   8.863  0.00  0.00    -0.100 F 
HETATM   14  O   UNK N   1      34.701  16.739   6.304  0.00  0.00    -0.189 OA
HETATM   15  O   UNK N   1      34.761  18.636   7.630  0.00  0.00    -0.189 OA
ENDBRANCH   3  12
TORSDOF 4
ENDMDL
MODEL 5
REMARK VINA RESULT:      -4.9     12.636     13.659
REMARK  4 active torsions:
REMARK  status: ('A' for Active; 'I' for Inactive)
REMARK    1  A    between atoms: C_3  and  S_4 
REMARK    2  A    between atoms: C_10  and  C_11 
REMARK    3  A    between atoms: C_11  and  C_12 
REMARK    4  A    between atoms: C_12  and  N_13 
ROOT
HETATM    1  C   UNK N   1      24.985  18.763   4.629  0.00  0.00     0.009 A 
HETATM    2  C   UNK N   1      23.642  18.824   4.237  0.00  0.00     0.026 A 
HETATM    3  C   UNK N   1      23.236  19.754   3.275  0.00  0.00     0.090 A 
HETATM    4  C   UNK N   1      24.173  20.612   2.693  0.00  0.00     0.026 A 
HETATM    5  C   UNK N   1      25.515  20.551   3.084  0.00  0.00     0.009 A 
HETATM    6  C   UNK N   1      25.920  19.637   4.059  0.00  0.00    -0.057 A 
ENDROOT
BRANCH   6   7
HETATM    7  C   UNK N   1      27.351  19.605   4.489  0.00  0.00     0.057 C 
BRANCH   7   8
HETATM    8  C   UNK N   1      27.491  19.985   5.956  0.00  0.00     0.115 C 
BRANCH   8   9
HETATM    9  N   UNK N   1      27.395  21.427   6.103  0.00  0.00    -0.430 N 
HETATM   10  H   UNK N   1      27.404  22.059   5.302  0.00  0.00     0.149 HD
HETATM   11  H   UNK N   1      27.316  21.821   7.040  0.00  0.00     0.149 HD
ENDBRANCH   8   9
ENDBRANCH   7   8
ENDBRANCH   6   7
BRANCH   3  12
HETATM   12  S   UNK N   1      21.506  19.879   2.824  0.00  0.00     0.333 S 
HETATM   13  F   UNK N   1      20.559  18.749   1.959  0.00  0.00    -0.100 F 
HETATM   14  O   UNK N   1      20.738  20.210   4.113  0.00  0.00    -0.189 OA
HETATM   15  O   UNK N   1      21.335  21.237   2.125  0.00  0.00    -0.189 OA
ENDBRANCH   3  12
TORSDOF 4
ENDMDL
MODEL 6
REMARK VINA RESULT:      -4.9      6.961      8.245
REMARK  4 active torsions:
REMARK  status: ('A' for Active; 'I' for Inactive)
REMARK    1  A    between atoms: C_3  and  S_4 
REMARK    2  A    between atoms: C_10  and  C_11 
REMARK    3  A    between atoms: C_11  and  C_12 
REMARK    4  A    between atoms: C_12  and  N_13 
ROOT
HETATM    1  C   UNK N   1      35.158  12.928  18.384  0.00  0.00     0.009 A 
HETATM    2  C   UNK N   1      35.345  13.537  17.138  0.00  0.00     0.026 A 
HETATM    3  C   UNK N   1      35.799  12.784  16.052  0.00  0.00     0.090 A 
HETATM    4  C   UNK N   1      36.051  11.417  16.205  0.00  0.00     0.026 A 
HETATM    5  C   UNK N   1      35.863  10.807  17.450  0.00  0.00     0.009 A 
HETATM    6  C   UNK N   1      35.428  11.562  18.543  0.00  0.00    -0.057 A 
ENDROOT
BRANCH   6   7
HETATM    7  C   UNK N   1      35.263  10.903  19.873  0.00  0.00     0.057 C 
BRANCH   7   8
HETATM    8  C   UNK N   1      36.605  10.728  20.568  0.00  0.00     0.115 C 
BRANCH   8   9
HETATM    9  N   UNK N   1      36.402  10.195  21.905  0.00  0.00    -0.430 N 
HETATM   10  H   UNK N   1      35.483   9.917  22.247  0.00  0.00     0.149 HD
HETATM   11  H   UNK N   1      37.208  10.096  22.522  0.00  0.00     0.149 HD
ENDBRANCH   8   9
ENDBRANCH   7   8
ENDBRANCH   6   7
BRANCH   3  12
HETATM   12  S   UNK N   1      36.106  13.578  14.475  0.00  0.00     0.333 S 
HETATM   13  F   UNK N   1      36.755  15.134  14.188  0.00  0.00    -0.100 F 
HETATM   14  O   UNK N   1      36.932  12.589  13.638  0.00  0.00    -0.189 OA
HETATM   15  O   UNK N   1      34.796  13.485  13.677  0.00  0.00    -0.189 OA
ENDBRANCH   3  12
TORSDOF 4
ENDMDL
MODEL 7
REMARK VINA RESULT:      -4.8     13.524     13.977
REMARK  4 active torsions:
REMARK  status: ('A' for Active; 'I' for Inactive)
REMARK    1  A    between atoms: C_3  and  S_4 
REMARK    2  A    between atoms: C_10  and  C_11 
REMARK    3  A    between atoms: C_11  and  C_12 
REMARK    4  A    between atoms: C_12  and  N_13 
ROOT
HETATM    1  C   UNK N   1      20.209  15.051   9.285  0.00  0.00     0.009 A 
HETATM    2  C   UNK N   1      20.209  16.093   8.351  0.00  0.00     0.026 A 
HETATM    3  C   UNK N   1      21.191  16.143   7.357  0.00  0.00     0.090 A 
HETATM    4  C   UNK N   1      22.164  15.141   7.287  0.00  0.00     0.026 A 
HETATM    5  C   UNK N   1      22.164  14.099   8.219  0.00  0.00     0.009 A 
HETATM    6  C   UNK N   1      21.195  14.058   9.225  0.00  0.00    -0.057 A 
ENDROOT
BRANCH   6   7
HETATM    7  C   UNK N   1      21.227  12.955  10.233  0.00  0.00     0.057 C 
BRANCH   7   8
HETATM    8  C   UNK N   1      22.656  12.625  10.639  0.00  0.00     0.115 C 
BRANCH   8   9
HETATM    9  N   UNK N   1      22.657  11.536  11.600  0.00  0.00    -0.430 N 
HETATM   10  H   UNK N   1      22.248  11.629  12.529  0.00  0.00     0.149 HD
HETATM   11  H   UNK N   1      23.082  10.648  11.336  0.00  0.00     0.149 HD
ENDBRANCH   8   9
ENDBRANCH   7   8
ENDBRANCH   6   7
BRANCH   3  12
HETATM   12  S   UNK N   1      21.233  17.514   6.205  0.00  0.00     0.333 S 
HETATM   13  F   UNK N   1      20.369  17.685   4.740  0.00  0.00    -0.100 F 
HETATM   14  O   UNK N   1      20.974  18.787   7.026  0.00  0.00    -0.189 OA
HETATM   15  O   UNK N   1      22.714  17.770   5.885  0.00  0.00    -0.189 OA
ENDBRANCH   3  12
TORSDOF 4
ENDMDL
MODEL 8
REMARK VINA RESULT:      -4.6     20.981     21.635
REMARK  4 active torsions:
REMARK  status: ('A' for Active; 'I' for Inactive)
REMARK    1  A    between atoms: C_3  and  S_4 
REMARK    2  A    between atoms: C_10  and  C_11 
REMARK    3  A    between atoms: C_11  and  C_12 
REMARK    4  A    between atoms: C_12  and  N_13 
ROOT
HETATM    1  C   UNK N   1      27.394  29.195  -5.538  0.00  0.00     0.009 A 
HETATM    2  C   UNK N   1      27.233  28.153  -6.458  0.00  0.00     0.026 A 
HETATM    3  C   UNK N   1      26.241  27.189  -6.257  0.00  0.00     0.090 A 
HETATM    4  C   UNK N   1      25.399  27.274  -5.145  0.00  0.00     0.026 A 
HETATM    5  C   UNK N   1      25.558  28.316  -4.225  0.00  0.00     0.009 A 
HETATM    6  C   UNK N   1      26.562  29.270  -4.413  0.00  0.00    -0.057 A 
ENDROOT
BRANCH   6   7
HETATM    7  C   UNK N   1      26.740  30.358  -3.406  0.00  0.00     0.057 C 
BRANCH   7   8
HETATM    8  C   UNK N   1      28.050  30.196  -2.650  0.00  0.00     0.115 C 
BRANCH   8   9
HETATM    9  N   UNK N   1      27.825  29.443  -1.429  0.00  0.00    -0.430 N 
HETATM   10  H   UNK N   1      27.804  29.885  -0.511  0.00  0.00     0.149 HD
HETATM   11  H   UNK N   1      27.683  28.435  -1.492  0.00  0.00     0.149 HD
ENDBRANCH   8   9
ENDBRANCH   7   8
ENDBRANCH   6   7
BRANCH   3  12
HETATM   12  S   UNK N   1      26.081  25.816  -7.397  0.00  0.00     0.333 S 
HETATM   13  F   UNK N   1      25.458  25.837  -8.990  0.00  0.00    -0.100 F 
HETATM   14  O   UNK N   1      27.458  25.138  -7.467  0.00  0.00    -0.189 OA
HETATM   15  O   UNK N   1      25.338  24.703  -6.641  0.00  0.00    -0.189 OA
ENDBRANCH   3  12
TORSDOF 4
ENDMDL
MODEL 9
REMARK VINA RESULT:      -4.6     12.388     13.458
REMARK  4 active torsions:
REMARK  status: ('A' for Active; 'I' for Inactive)
REMARK    1  A    between atoms: C_3  and  S_4 
REMARK    2  A    between atoms: C_10  and  C_11 
REMARK    3  A    between atoms: C_11  and  C_12 
REMARK    4  A    between atoms: C_12  and  N_13 
ROOT
HETATM    1  C   UNK N   1      25.537  20.575   3.007  0.00  0.00     0.009 A 
HETATM    2  C   UNK N   1      24.162  20.536   2.750  0.00  0.00     0.026 A 
HETATM    3  C   UNK N   1      23.346  19.636   3.440  0.00  0.00     0.090 A 
HETATM    4  C   UNK N   1      23.901  18.784   4.400  0.00  0.00     0.026 A 
HETATM    5  C   UNK N   1      25.275  18.823   4.658  0.00  0.00     0.009 A 
HETATM    6  C   UNK N   1      26.096  19.708   3.955  0.00  0.00    -0.057 A 
ENDROOT
BRANCH   6   7
HETATM    7  C   UNK N   1      27.567  19.715   4.220  0.00  0.00     0.057 C 
BRANCH   7   8
HETATM    8  C   UNK N   1      28.048  18.346   4.676  0.00  0.00     0.115 C 
BRANCH   8   9
HETATM    9  N   UNK N   1      28.768  17.692   3.598  0.00  0.00    -0.430 N 
HETATM   10  H   UNK N   1      29.059  16.716   3.649  0.00  0.00     0.149 HD
HETATM   11  H   UNK N   1      28.991  18.228   2.759  0.00  0.00     0.149 HD
ENDBRANCH   8   9
ENDBRANCH   7   8
ENDBRANCH   6   7
BRANCH   3  12
HETATM   12  S   UNK N   1      21.597  19.537   3.061  0.00  0.00     0.333 S 
HETATM   13  F   UNK N   1      20.772  20.201   1.718  0.00  0.00    -0.100 F 
HETATM   14  O   UNK N   1      21.215  18.051   3.129  0.00  0.00    -0.189 OA
HETATM   15  O   UNK N   1      20.850  20.002   4.321  0.00  0.00    -0.189 OA
ENDBRANCH   3  12
TORSDOF 4
ENDMDL
