MODEL 1
REMARK VINA RESULT:      -6.8      0.000      0.000
REMARK  2 active torsions:
REMARK  status: ('A' for Active; 'I' for Inactive)
REMARK    1  A    between atoms: C_2  and  O_1 
REMARK    2  A    between atoms: C_19  and  O_20 
ROOT
HETATM    1  C   UNK N   1      34.564  17.187   8.676  0.00  0.00     0.119 C 
HETATM    2  C   UNK N   1      34.108  18.052   7.521  0.00  0.00     0.040 C 
HETATM    3  C   UNK N   1      33.272  16.688   9.292  0.00  0.00     0.039 C 
HETATM    4  C   UNK N   1      32.224  16.701   8.170  0.00  0.00     0.028 C 
HETATM    5  C   UNK N   1      32.961  17.262   6.922  0.00  0.00     0.017 C 
HETATM    6  C   UNK N   1      33.515  16.130   6.078  0.00  0.00    -0.026 C 
HETATM    7  C   UNK N   1      33.507  16.079   4.732  0.00  0.00    -0.030 C 
HETATM    8  C   UNK N   1      33.046  17.188   3.823  0.00  0.00     0.027 C 
HETATM    9  C   UNK N   1      31.535  17.344   3.784  0.00  0.00     0.006 C 
HETATM   10  C   UNK N   1      30.866  16.338   2.850  0.00  0.00     0.032 C 
HETATM   11  C   UNK N   1      29.365  16.285   3.137  0.00  0.00     0.128 C 
HETATM   12  C   UNK N   1      28.702  15.313   2.186  0.00  0.00     0.040 C 
HETATM   13  O   UNK N   1      29.206  15.844   4.433  0.00  0.00    -0.313 OA
HETATM   14  C   UNK N   1      28.921  16.672   5.465  0.00  0.00     0.283 C 
HETATM   15  O   UNK N   1      28.000  17.473   5.399  0.00  0.00    -0.260 OA
HETATM   16  C   UNK N   1      29.880  16.697   6.570  0.00  0.00     0.081 C 
HETATM   17  C   UNK N   1      29.874  17.563   7.586  0.00  0.00     0.011 C 
HETATM   18  C   UNK N   1      31.006  17.575   8.595  0.00  0.00     0.146 C 
ENDROOT
BRANCH   1  19
HETATM   19  O   UNK N   1      35.306  17.927   9.594  0.00  0.00    -0.396 OA
HETATM   20  H   UNK N   1      35.055  18.144  10.506  0.00  0.00     0.210 HD
ENDBRANCH   1  19
BRANCH  18  21
HETATM   21  O   UNK N   1      30.497  17.121   9.812  0.00  0.00    -0.391 OA
HETATM   22  H   UNK N   1      30.419  16.196  10.094  0.00  0.00     0.210 HD
ENDBRANCH  18  21
TORSDOF 2
ENDMDL
MODEL 2
REMARK VINA RESULT:      -6.6     10.993     14.074
REMARK  2 active torsions:
REMARK  status: ('A' for Active; 'I' for Inactive)
REMARK    1  A    between atoms: C_2  and  O_1 
REMARK    2  A    between atoms: C_19  and  O_20 
ROOT
HETATM    1  C   UNK N   1      26.539  24.088  -7.540  0.00  0.00     0.119 C 
HETATM    2  C   UNK N   1      26.767  22.785  -6.805  0.00  0.00     0.040 C 
HETATM    3  C   UNK N   1      26.984  25.149  -6.553  0.00  0.00     0.039 C 
HETATM    4  C   UNK N   1      28.015  24.479  -5.634  0.00  0.00     0.028 C 
HETATM    5  C   UNK N   1      28.099  23.003  -6.112  0.00  0.00     0.017 C 
HETATM    6  C   UNK N   1      29.223  22.832  -7.116  0.00  0.00    -0.026 C 
HETATM    7  C   UNK N   1      30.069  21.785  -7.176  0.00  0.00    -0.030 C 
HETATM    8  C   UNK N   1      29.977  20.545  -6.326  0.00  0.00     0.027 C 
HETATM    9  C   UNK N   1      30.420  20.766  -4.890  0.00  0.00     0.006 C 
HETATM   10  C   UNK N   1      31.939  20.727  -4.732  0.00  0.00     0.032 C 
HETATM   11  C   UNK N   1      32.333  21.323  -3.381  0.00  0.00     0.128 C 
HETATM   12  C   UNK N   1      33.836  21.252  -3.216  0.00  0.00     0.040 C 
HETATM   13  O   UNK N   1      31.931  22.642  -3.376  0.00  0.00    -0.313 OA
HETATM   14  C   UNK N   1      30.818  23.072  -2.737  0.00  0.00     0.283 C 
HETATM   15  O   UNK N   1      30.606  22.780  -1.569  0.00  0.00    -0.260 OA
HETATM   16  C   UNK N   1      29.802  23.727  -3.560  0.00  0.00     0.081 C 
HETATM   17  C   UNK N   1      28.573  24.061  -3.160  0.00  0.00     0.011 C 
HETATM   18  C   UNK N   1      27.561  24.607  -4.149  0.00  0.00     0.146 C 
ENDROOT
BRANCH   1  19
HETATM   19  O   UNK N   1      25.195  24.246  -7.875  0.00  0.00    -0.396 OA
HETATM   20  H   UNK N   1      24.515  23.555  -7.891  0.00  0.00     0.210 HD
ENDBRANCH   1  19
BRANCH  18  21
HETATM   21  O   UNK N   1      27.339  25.948  -3.834  0.00  0.00    -0.391 OA
HETATM   22  H   UNK N   1      27.882  26.499  -3.249  0.00  0.00     0.210 HD
ENDBRANCH  18  21
TORSDOF 2
ENDMDL
MODEL 3
REMARK VINA RESULT:      -6.5      2.208      4.166
REMARK  2 active torsions:
REMARK  status: ('A' for Active; 'I' for Inactive)
REMARK    1  A    between atoms: C_2  and  O_1 
REMARK    2  A    between atoms: C_19  and  O_20 
ROOT
HETATM    1  C   UNK N   1      33.360  15.770   8.840  0.00  0.00     0.119 C 
HETATM    2  C   UNK N   1      31.862  15.624   8.999  0.00  0.00     0.040 C 
HETATM    3  C   UNK N   1      33.556  15.914   7.344  0.00  0.00     0.039 C 
HETATM    4  C   UNK N   1      32.250  16.498   6.790  0.00  0.00     0.028 C 
HETATM    5  C   UNK N   1      31.305  16.635   8.015  0.00  0.00     0.017 C 
HETATM    6  C   UNK N   1      31.405  18.027   8.611  0.00  0.00    -0.026 C 
HETATM    7  C   UNK N   1      30.373  18.757   9.076  0.00  0.00    -0.030 C 
HETATM    8  C   UNK N   1      28.950  18.277   9.188  0.00  0.00     0.027 C 
HETATM    9  C   UNK N   1      28.235  18.196   7.850  0.00  0.00     0.006 C 
HETATM   10  C   UNK N   1      27.711  19.553   7.383  0.00  0.00     0.032 C 
HETATM   11  C   UNK N   1      27.355  19.486   5.898  0.00  0.00     0.128 C 
HETATM   12  C   UNK N   1      26.805  20.823   5.448  0.00  0.00     0.040 C 
HETATM   13  O   UNK N   1      28.515  19.208   5.205  0.00  0.00    -0.313 OA
HETATM   14  C   UNK N   1      28.813  17.977   4.731  0.00  0.00     0.283 C 
HETATM   15  O   UNK N   1      28.010  17.343   4.063  0.00  0.00    -0.260 OA
HETATM   16  C   UNK N   1      30.053  17.371   5.217  0.00  0.00     0.081 C 
HETATM   17  C   UNK N   1      30.436  16.108   5.011  0.00  0.00     0.011 C 
HETATM   18  C   UNK N   1      31.676  15.558   5.688  0.00  0.00     0.146 C 
ENDROOT
BRANCH   1  19
HETATM   19  O   UNK N   1      34.027  14.648   9.329  0.00  0.00    -0.396 OA
HETATM   20  H   UNK N   1      34.973  14.576   9.530  0.00  0.00     0.210 HD
ENDBRANCH   1  19
BRANCH  18  21
HETATM   21  O   UNK N   1      32.638  15.339   4.701  0.00  0.00    -0.391 OA
HETATM   22  H   UNK N   1      33.372  15.931   4.471  0.00  0.00     0.210 HD
ENDBRANCH  18  21
TORSDOF 2
ENDMDL
MODEL 4
REMARK VINA RESULT:      -6.4     11.436     13.907
REMARK  2 active torsions:
REMARK  status: ('A' for Active; 'I' for Inactive)
REMARK    1  A    between atoms: C_2  and  O_1 
REMARK    2  A    between atoms: C_19  and  O_20 
ROOT
HETATM    1  C   UNK N   1      31.885  22.072  -2.968  0.00  0.00     0.119 C 
HETATM    2  C   UNK N   1      30.378  21.954  -2.896  0.00  0.00     0.040 C 
HETATM    3  C   UNK N   1      32.217  21.665  -4.390  0.00  0.00     0.039 C 
HETATM    4  C   UNK N   1      30.970  21.970  -5.230  0.00  0.00     0.028 C 
HETATM    5  C   UNK N   1      29.919  22.520  -4.227  0.00  0.00     0.017 C 
HETATM    6  C   UNK N   1      29.973  24.035  -4.176  0.00  0.00    -0.026 C 
HETATM    7  C   UNK N   1      28.908  24.857  -4.102  0.00  0.00    -0.030 C 
HETATM    8  C   UNK N   1      27.478  24.412  -3.945  0.00  0.00     0.027 C 
HETATM    9  C   UNK N   1      26.886  23.828  -5.217  0.00  0.00     0.006 C 
HETATM   10  C   UNK N   1      26.416  24.906  -6.192  0.00  0.00     0.032 C 
HETATM   11  C   UNK N   1      26.195  24.291  -7.574  0.00  0.00     0.128 C 
HETATM   12  C   UNK N   1      25.696  25.355  -8.528  0.00  0.00     0.040 C 
HETATM   13  O   UNK N   1      27.410  23.811  -8.014  0.00  0.00    -0.313 OA
HETATM   14  C   UNK N   1      27.743  22.499  -7.976  0.00  0.00     0.283 C 
HETATM   15  O   UNK N   1      26.999  21.644  -8.432  0.00  0.00    -0.260 OA
HETATM   16  C   UNK N   1      28.930  22.147  -7.197  0.00  0.00     0.081 C 
HETATM   17  C   UNK N   1      29.321  20.908  -6.892  0.00  0.00     0.011 C 
HETATM   18  C   UNK N   1      30.491  20.677  -5.956  0.00  0.00     0.146 C 
ENDROOT
BRANCH   1  19
HETATM   19  O   UNK N   1      32.498  21.225  -2.046  0.00  0.00    -0.396 OA
HETATM   20  H   UNK N   1      33.347  20.768  -2.151  0.00  0.00     0.210 HD
ENDBRANCH   1  19
BRANCH  18  21
HETATM   21  O   UNK N   1      31.538  20.138  -6.707  0.00  0.00    -0.391 OA
HETATM   22  H   UNK N   1      31.706  20.291  -7.650  0.00  0.00     0.210 HD
ENDBRANCH  18  21
TORSDOF 2
ENDMDL
MODEL 5
REMARK VINA RESULT:      -6.3      2.041      4.978
REMARK  2 active torsions:
REMARK  status: ('A' for Active; 'I' for Inactive)
REMARK    1  A    between atoms: C_2  and  O_1 
REMARK    2  A    between atoms: C_19  and  O_20 
ROOT
HETATM    1  C   UNK N   1      28.427  17.781   8.793  0.00  0.00     0.119 C 
HETATM    2  C   UNK N   1      29.768  18.436   8.543  0.00  0.00     0.040 C 
HETATM    3  C   UNK N   1      28.075  17.147   7.462  0.00  0.00     0.039 C 
HETATM    4  C   UNK N   1      29.405  16.873   6.747  0.00  0.00     0.028 C 
HETATM    5  C   UNK N   1      30.506  17.412   7.701  0.00  0.00     0.017 C 
HETATM    6  C   UNK N   1      31.024  16.302   8.597  0.00  0.00    -0.026 C 
HETATM    7  C   UNK N   1      32.311  16.109   8.943  0.00  0.00    -0.030 C 
HETATM    8  C   UNK N   1      33.452  17.028   8.593  0.00  0.00     0.027 C 
HETATM    9  C   UNK N   1      33.874  16.934   7.136  0.00  0.00     0.006 C 
HETATM   10  C   UNK N   1      34.789  15.741   6.867  0.00  0.00     0.032 C 
HETATM   11  C   UNK N   1      34.865  15.477   5.363  0.00  0.00     0.128 C 
HETATM   12  C   UNK N   1      35.800  14.316   5.100  0.00  0.00     0.040 C 
HETATM   13  O   UNK N   1      33.596  15.154   4.933  0.00  0.00    -0.313 OA
HETATM   14  C   UNK N   1      32.791  16.029   4.286  0.00  0.00     0.283 C 
HETATM   15  O   UNK N   1      33.189  16.659   3.318  0.00  0.00    -0.260 OA
HETATM   16  C   UNK N   1      31.503  16.323   4.916  0.00  0.00     0.081 C 
HETATM   17  C   UNK N   1      30.652  17.279   4.536  0.00  0.00     0.011 C 
HETATM   18  C   UNK N   1      29.413  17.579   5.358  0.00  0.00     0.146 C 
ENDROOT
BRANCH   1  19
HETATM   19  O   UNK N   1      27.472  18.723   9.170  0.00  0.00    -0.396 OA
HETATM   20  H   UNK N   1      27.633  19.644   9.426  0.00  0.00     0.210 HD
ENDBRANCH   1  19
BRANCH  18  21
HETATM   21  O   UNK N   1      28.301  17.179   4.614  0.00  0.00    -0.391 OA
HETATM   22  H   UNK N   1      27.650  17.763   4.195  0.00  0.00     0.210 HD
ENDBRANCH  18  21
TORSDOF 2
ENDMDL
MODEL 6
REMARK VINA RESULT:      -6.2     11.585     13.939
REMARK  2 active torsions:
REMARK  status: ('A' for Active; 'I' for Inactive)
REMARK    1  A    between atoms: C_2  and  O_1 
REMARK    2  A    between atoms: C_19  and  O_20 
ROOT
HETATM    1  C   UNK N   1      31.211  20.435  -5.330  0.00  0.00     0.119 C 
HETATM    2  C   UNK N   1      31.261  21.722  -6.126  0.00  0.00     0.040 C 
HETATM    3  C   UNK N   1      30.811  20.881  -3.938  0.00  0.00     0.039 C 
HETATM    4  C   UNK N   1      30.031  22.192  -4.110  0.00  0.00     0.028 C 
HETATM    5  C   UNK N   1      30.045  22.485  -5.635  0.00  0.00     0.017 C 
HETATM    6  C   UNK N   1      28.799  21.925  -6.296  0.00  0.00    -0.026 C 
HETATM    7  C   UNK N   1      28.085  22.531  -7.264  0.00  0.00    -0.030 C 
HETATM    8  C   UNK N   1      28.461  23.823  -7.941  0.00  0.00     0.027 C 
HETATM    9  C   UNK N   1      28.237  25.046  -7.069  0.00  0.00     0.006 C 
HETATM   10  C   UNK N   1      26.779  25.505  -7.065  0.00  0.00     0.032 C 
HETATM   11  C   UNK N   1      26.544  26.470  -5.903  0.00  0.00     0.128 C 
HETATM   12  C   UNK N   1      25.108  26.947  -5.925  0.00  0.00     0.040 C 
HETATM   13  O   UNK N   1      26.783  25.779  -4.734  0.00  0.00    -0.313 OA
HETATM   14  C   UNK N   1      27.928  25.907  -4.023  0.00  0.00     0.283 C 
HETATM   15  O   UNK N   1      28.362  27.006  -3.713  0.00  0.00    -0.260 OA
HETATM   16  C   UNK N   1      28.711  24.688  -3.818  0.00  0.00     0.081 C 
HETATM   17  C   UNK N   1      29.941  24.631  -3.302  0.00  0.00     0.011 C 
HETATM   18  C   UNK N   1      30.705  23.321  -3.273  0.00  0.00     0.146 C 
ENDROOT
BRANCH   1  19
HETATM   19  O   UNK N   1      32.453  19.804  -5.319  0.00  0.00    -0.396 OA
HETATM   20  H   UNK N   1      32.621  18.849  -5.288  0.00  0.00     0.210 HD
ENDBRANCH   1  19
BRANCH  18  21
HETATM   21  O   UNK N   1      30.816  22.923  -1.940  0.00  0.00    -0.391 OA
HETATM   22  H   UNK N   1      30.933  23.506  -1.174  0.00  0.00     0.210 HD
ENDBRANCH  18  21
TORSDOF 2
ENDMDL
MODEL 7
REMARK VINA RESULT:      -6.2      2.119      3.042
REMARK  2 active torsions:
REMARK  status: ('A' for Active; 'I' for Inactive)
REMARK    1  A    between atoms: C_2  and  O_1 
REMARK    2  A    between atoms: C_19  and  O_20 
ROOT
HETATM    1  C   UNK N   1      31.531  16.876   8.317  0.00  0.00     0.119 C 
HETATM    2  C   UNK N   1      31.536  17.331   6.874  0.00  0.00     0.040 C 
HETATM    3  C   UNK N   1      30.135  17.212   8.803  0.00  0.00     0.039 C 
HETATM    4  C   UNK N   1      29.232  17.205   7.562  0.00  0.00     0.028 C 
HETATM    5  C   UNK N   1      30.174  16.897   6.366  0.00  0.00     0.017 C 
HETATM    6  C   UNK N   1      30.195  15.408   6.076  0.00  0.00    -0.026 C 
HETATM    7  C   UNK N   1      30.203  14.847   4.850  0.00  0.00    -0.030 C 
HETATM    8  C   UNK N   1      30.302  15.602   3.551  0.00  0.00     0.027 C 
HETATM    9  C   UNK N   1      29.017  16.317   3.170  0.00  0.00     0.006 C 
HETATM   10  C   UNK N   1      27.999  15.384   2.518  0.00  0.00     0.032 C 
HETATM   11  C   UNK N   1      26.621  16.047   2.510  0.00  0.00     0.128 C 
HETATM   12  C   UNK N   1      25.623  15.132   1.832  0.00  0.00     0.040 C 
HETATM   13  O   UNK N   1      26.248  16.244   3.823  0.00  0.00    -0.313 OA
HETATM   14  C   UNK N   1      26.329  17.446   4.440  0.00  0.00     0.283 C 
HETATM   15  O   UNK N   1      25.858  18.452   3.932  0.00  0.00    -0.260 OA
HETATM   16  C   UNK N   1      27.170  17.513   5.635  0.00  0.00     0.081 C 
HETATM   17  C   UNK N   1      27.518  18.629   6.280  0.00  0.00     0.011 C 
HETATM   18  C   UNK N   1      28.512  18.580   7.424  0.00  0.00     0.146 C 
ENDROOT
BRANCH   1  19
HETATM   19  O   UNK N   1      32.498  17.553   9.059  0.00  0.00    -0.396 OA
HETATM   20  H   UNK N   1      33.051  17.186   9.766  0.00  0.00     0.210 HD
ENDBRANCH   1  19
BRANCH  18  21
HETATM   21  O   UNK N   1      27.822  18.875   8.601  0.00  0.00    -0.391 OA
HETATM   22  H   UNK N   1      26.873  18.745   8.759  0.00  0.00     0.210 HD
ENDBRANCH  18  21
TORSDOF 2
ENDMDL
MODEL 8
REMARK VINA RESULT:      -5.9      2.236      5.291
REMARK  2 active torsions:
REMARK  status: ('A' for Active; 'I' for Inactive)
REMARK    1  A    between atoms: C_2  and  O_1 
REMARK    2  A    between atoms: C_19  and  O_20 
ROOT
HETATM    1  C   UNK N   1      27.123  18.802   5.684  0.00  0.00     0.119 C 
HETATM    2  C   UNK N   1      27.510  17.339   5.660  0.00  0.00     0.040 C 
HETATM    3  C   UNK N   1      27.744  19.324   6.965  0.00  0.00     0.039 C 
HETATM    4  C   UNK N   1      28.945  18.418   7.264  0.00  0.00     0.028 C 
HETATM    5  C   UNK N   1      28.950  17.350   6.136  0.00  0.00     0.017 C 
HETATM    6  C   UNK N   1      29.854  17.784   4.997  0.00  0.00    -0.026 C 
HETATM    7  C   UNK N   1      30.683  16.980   4.303  0.00  0.00    -0.030 C 
HETATM    8  C   UNK N   1      30.778  15.485   4.462  0.00  0.00     0.027 C 
HETATM    9  C   UNK N   1      31.496  15.060   5.732  0.00  0.00     0.006 C 
HETATM   10  C   UNK N   1      33.016  15.114   5.591  0.00  0.00     0.032 C 
HETATM   11  C   UNK N   1      33.665  15.053   6.974  0.00  0.00     0.128 C 
HETATM   12  C   UNK N   1      35.172  15.072   6.827  0.00  0.00     0.040 C 
HETATM   13  O   UNK N   1      33.256  16.169   7.674  0.00  0.00    -0.313 OA
HETATM   14  C   UNK N   1      32.288  16.132   8.619  0.00  0.00     0.283 C 
HETATM   15  O   UNK N   1      32.317  15.312   9.525  0.00  0.00    -0.260 OA
HETATM   16  C   UNK N   1      31.119  16.983   8.393  0.00  0.00     0.081 C 
HETATM   17  C   UNK N   1      29.991  16.961   9.106  0.00  0.00     0.011 C 
HETATM   18  C   UNK N   1      28.796  17.793   8.684  0.00  0.00     0.146 C 
ENDROOT
BRANCH   1  19
HETATM   19  O   UNK N   1      25.738  18.954   5.698  0.00  0.00    -0.396 OA
HETATM   20  H   UNK N   1      25.099  18.528   5.105  0.00  0.00     0.210 HD
ENDBRANCH   1  19
BRANCH  18  21
HETATM   21  O   UNK N   1      28.624  18.803   9.632  0.00  0.00    -0.391 OA
HETATM   22  H   UNK N   1      28.872  19.736   9.530  0.00  0.00     0.210 HD
ENDBRANCH  18  21
TORSDOF 2
ENDMDL
MODEL 9
REMARK VINA RESULT:      -5.7      1.924      2.812
REMARK  2 active torsions:
REMARK  status: ('A' for Active; 'I' for Inactive)
REMARK    1  A    between atoms: C_2  and  O_1 
REMARK    2  A    between atoms: C_19  and  O_20 
ROOT
HETATM    1  C   UNK N   1      34.180  15.416   5.832  0.00  0.00     0.119 C 
HETATM    2  C   UNK N   1      33.434  16.507   5.093  0.00  0.00     0.040 C 
HETATM    3  C   UNK N   1      33.574  15.434   7.221  0.00  0.00     0.039 C 
HETATM    4  C   UNK N   1      32.153  15.993   7.066  0.00  0.00     0.028 C 
HETATM    5  C   UNK N   1      32.001  16.325   5.557  0.00  0.00     0.017 C 
HETATM    6  C   UNK N   1      31.375  15.159   4.815  0.00  0.00    -0.026 C 
HETATM    7  C   UNK N   1      30.451  15.254   3.840  0.00  0.00    -0.030 C 
HETATM    8  C   UNK N   1      29.956  16.542   3.235  0.00  0.00     0.027 C 
HETATM    9  C   UNK N   1      29.013  17.310   4.146  0.00  0.00     0.006 C 
HETATM   10  C   UNK N   1      27.584  16.772   4.099  0.00  0.00     0.032 C 
HETATM   11  C   UNK N   1      26.789  17.313   5.287  0.00  0.00     0.128 C 
HETATM   12  C   UNK N   1      25.365  16.803   5.217  0.00  0.00     0.040 C 
HETATM   13  O   UNK N   1      27.390  16.845   6.437  0.00  0.00    -0.313 OA
HETATM   14  C   UNK N   1      28.202  17.607   7.206  0.00  0.00     0.283 C 
HETATM   15  O   UNK N   1      27.860  18.718   7.582  0.00  0.00    -0.260 OA
HETATM   16  C   UNK N   1      29.569  17.120   7.398  0.00  0.00     0.081 C 
HETATM   17  C   UNK N   1      30.565  17.801   7.969  0.00  0.00     0.011 C 
HETATM   18  C   UNK N   1      31.974  17.242   7.980  0.00  0.00     0.146 C 
ENDROOT
BRANCH   1  19
HETATM   19  O   UNK N   1      35.547  15.686   5.876  0.00  0.00    -0.396 OA
HETATM   20  H   UNK N   1      35.989  16.362   6.412  0.00  0.00     0.210 HD
ENDBRANCH   1  19
BRANCH  18  21
HETATM   21  O   UNK N   1      32.292  16.916   9.300  0.00  0.00    -0.391 OA
HETATM   22  H   UNK N   1      32.685  17.508   9.960  0.00  0.00     0.210 HD
ENDBRANCH  18  21
TORSDOF 2
ENDMDL
