REMARK  23 active torsions:
REMARK  status: ('A' for Active; 'I' for Inactive)
REMARK    1  A    between atoms: O_1  and  C_2 
REMARK    2  A    between atoms: C_2  and  C_3 
REMARK    3  A    between atoms: C_3  and  O_4 
REMARK    4  A    between atoms: C_3  and  C_5 
REMARK    5  A    between atoms: C_5  and  O_9 
REMARK    6  A    between atoms: P_6  and  O_9 
REMARK    7  A    between atoms: P_6  and  O_10 
REMARK    8  A    between atoms: O_10  and  C_11 
REMARK    9  A    between atoms: C_11  and  C_12 
REMARK   10  A    between atoms: C_12  and  C_13 
REMARK   11  A    between atoms: C_12  and  O_21 
REMARK   12  A    between atoms: C_13  and  O_14 
REMARK   13  A    between atoms: O_14  and  C_15 
REMARK   14  A    between atoms: C_15  and  C_17 
REMARK   15  A    between atoms: C_17  and  C_18 
REMARK   16  A    between atoms: C_18  and  C_19 
REMARK   17  A    between atoms: O_21  and  C_22 
REMARK   18  A    between atoms: C_22  and  C_24 
REMARK   19  A    between atoms: C_24  and  C_25 
REMARK   20  A    between atoms: C_25  and  C_26 
REMARK   21  A    between atoms: C_26  and  C_27 
REMARK   22  A    between atoms: C_27  and  C_28 
REMARK   23  A    between atoms: C_28  and  C_29 
ROOT
HETATM    1  C   UNK N   1      -0.252   0.655   0.412  0.00  0.00     0.180 C 
ENDROOT
BRANCH   1   2
HETATM    2  C   UNK N   1      -1.412   1.535   0.810  0.00  0.00     0.216 C 
BRANCH   2   3
HETATM    3  O   UNK N   1      -2.577   0.778   0.918  0.00  0.00    -0.287 OA
BRANCH   3   4
HETATM    4  P   UNK N   1      -3.420   0.928  -0.596  0.00  0.00     0.408 P 
HETATM    5  O   UNK N   1      -3.884  -0.324   0.514  0.00  0.00    -0.624 OA
HETATM    6  O   UNK N   1      -4.007   2.214   0.052  0.00  0.00    -0.624 OA
BRANCH   4   7
HETATM    7  O   UNK N   1      -5.027   0.228  -0.827  0.00  0.00    -0.287 OA
BRANCH   7   8
HETATM    8  C   UNK N   1      -6.001   1.192  -1.151  0.00  0.00     0.215 C 
BRANCH   8   9
HETATM    9  C   UNK N   1      -6.837   1.546   0.089  0.00  0.00     0.166 C 
BRANCH   9  10
HETATM   10  C   UNK N   1      -7.423   0.309   0.757  0.00  0.00     0.198 C 
BRANCH  10  11
HETATM   11  O   UNK N   1      -8.282  -0.366  -0.109  0.00  0.00    -0.398 OA
HETATM   12  H   UNK N   1      -8.988  -0.084  -0.712  0.00  0.00     0.209 HD
ENDBRANCH  10  11
ENDBRANCH   9  10
BRANCH   9  13
HETATM   13  O   UNK N   1      -7.859   2.421  -0.276  0.00  0.00    -0.391 OA
HETATM   14  H   UNK N   1      -7.688   3.341  -0.530  0.00  0.00     0.210 HD
ENDBRANCH   9  13
ENDBRANCH   8   9
ENDBRANCH   7   8
ENDBRANCH   4   7
ENDBRANCH   3   4
ENDBRANCH   2   3
ENDBRANCH   1   2
BRANCH   1  15
HETATM   15  C   UNK N   1      -0.071  -0.495   1.397  0.00  0.00     0.213 C 
BRANCH  15  16
HETATM   16  O   UNK N   1       0.905  -1.330   0.905  0.00  0.00    -0.319 OA
BRANCH  16  17
HETATM   17  C   UNK N   1       0.638  -2.292  -0.011  0.00  0.00     0.258 C 
HETATM   18  O   UNK N   1      -0.507  -2.680  -0.200  0.00  0.00    -0.265 OA
BRANCH  17  19
HETATM   19  C   UNK N   1       1.747  -2.803  -0.866  0.00  0.00     0.111 C 
BRANCH  19  20
HETATM   20  C   UNK N   1       2.122  -4.222  -0.505  0.00  0.00     0.009 C 
BRANCH  20  21
HETATM   21  C   UNK N   1       3.287  -4.185   0.462  0.00  0.00    -0.004 C 
HETATM   22  C   UNK N   1       3.838  -5.581   0.644  0.00  0.00     0.005 C 
ENDBRANCH  20  21
ENDBRANCH  19  20
ENDBRANCH  17  19
ENDBRANCH  16  17
ENDBRANCH  15  16
ENDBRANCH   1  15
BRANCH   1  23
HETATM   23  O   UNK N   1       0.875   1.445   0.413  0.00  0.00    -0.312 OA
BRANCH  23  24
HETATM   24  C   UNK N   1       1.738   1.573  -0.621  0.00  0.00     0.259 C 
HETATM   25  O   UNK N   1       1.752   0.758  -1.538  0.00  0.00    -0.265 OA
BRANCH  24  26
HETATM   26  C   UNK N   1       2.679   2.726  -0.638  0.00  0.00     0.111 C 
BRANCH  26  27
HETATM   27  C   UNK N   1       3.422   2.819   0.686  0.00  0.00     0.010 C 
BRANCH  27  28
HETATM   28  C   UNK N   1       4.846   2.333   0.532  0.00  0.00     0.000 C 
BRANCH  28  29
HETATM   29  C   UNK N   1       4.888   0.820   0.403  0.00  0.00     0.000 C 
BRANCH  29  30
HETATM   30  C   UNK N   1       5.919   0.407  -0.636  0.00  0.00    -0.000 C 
BRANCH  30  31
HETATM   31  C   UNK N   1       7.340   0.563  -0.114  0.00  0.00    -0.005 C 
HETATM   32  C   UNK N   1       7.825   1.990  -0.291  0.00  0.00     0.005 C 
ENDBRANCH  30  31
ENDBRANCH  29  30
ENDBRANCH  28  29
ENDBRANCH  27  28
ENDBRANCH  26  27
ENDBRANCH  24  26
ENDBRANCH  23  24
ENDBRANCH   1  23
TORSDOF 23
