MODEL 1
REMARK VINA RESULT:      -7.1      0.000      0.000
REMARK  6 active torsions:
REMARK  status: ('A' for Active; 'I' for Inactive)
REMARK    1  A    between atoms: N_3  and  O_7 
REMARK       I    between atoms: C_21  and  N_3 
REMARK    2  A    between atoms: C_5  and  C_12 
REMARK    3  A    between atoms: C_12  and  C_13 
REMARK    4  A    between atoms: C_14  and  C_13 
REMARK    5  A    between atoms: C_17  and  C_19 
REMARK    6  A    between atoms: C_20  and  C_21 
ROOT
HETATM    1  N   UNK N   1      29.089  24.160  -6.989  0.00  0.00    -0.360 N 
HETATM    2  C   UNK N   1      27.049  24.625  -6.255  0.00  0.00     0.028 A 
HETATM    3  C   UNK N   1      27.919  24.744  -7.331  0.00  0.00     0.106 A 
HETATM    4  C   UNK N   1      30.279  24.112  -7.823  0.00  0.00     0.155 C 
HETATM    5  C   UNK N   1      28.966  23.698  -5.729  0.00  0.00     0.034 A 
HETATM    6  C   UNK N   1      27.704  23.962  -5.248  0.00  0.00     0.046 A 
ENDROOT
BRANCH   2   7
HETATM    7  C   UNK N   1      25.703  25.187  -6.077  0.00  0.00     0.165 C 
HETATM    8  O   UNK N   1      24.885  24.556  -5.420  0.00  0.00    -0.292 OA
BRANCH   7   9
HETATM    9  C   UNK N   1      25.352  26.562  -6.560  0.00  0.00     0.122 C 
BRANCH   9  10
HETATM   10  C   UNK N   1      26.009  27.634  -5.750  0.00  0.00    -0.051 A 
HETATM   11  C   UNK N   1      25.547  27.938  -4.460  0.00  0.00     0.007 A 
HETATM   12  C   UNK N   1      26.177  28.927  -3.701  0.00  0.00     0.001 A 
HETATM   13  C   UNK N   1      27.282  29.604  -4.222  0.00  0.00     0.000 A 
HETATM   14  C   UNK N   1      27.755  29.292  -5.500  0.00  0.00     0.001 A 
HETATM   15  C   UNK N   1      27.118  28.310  -6.265  0.00  0.00     0.007 A 
ENDBRANCH   9  10
ENDBRANCH   7   9
ENDBRANCH   2   7
BRANCH   5  16
HETATM   16  C   UNK N   1      30.029  23.098  -4.901  0.00  0.00     0.035 C 
HETATM   17  C   UNK N   1      29.769  22.955  -3.596  0.00  0.00     0.078 C 
BRANCH  17  18
HETATM   18  C   UNK N   1      30.723  22.551  -2.566  0.00  0.00     0.264 C 
HETATM   19  O   UNK N   1      30.587  22.912  -1.405  0.00  0.00    -0.266 OA
HETATM   20  N   UNK N   1      31.728  21.716  -2.911  0.00  0.00    -0.234 N 
HETATM   21  H   UNK N   1      31.821  21.435  -3.850  0.00  0.00     0.197 HD
BRANCH  20  22
HETATM   22  O   UNK N   1      32.600  21.263  -2.004  0.00  0.00    -0.287 OA
HETATM   23  H   UNK N   1      32.321  20.603  -1.349  0.00  0.00     0.244 HD
ENDBRANCH  20  22
ENDBRANCH  17  18
ENDBRANCH   5  16
TORSDOF 6
ENDMDL
MODEL 2
REMARK VINA RESULT:      -7.0     14.418     17.054
REMARK  6 active torsions:
REMARK  status: ('A' for Active; 'I' for Inactive)
REMARK    1  A    between atoms: N_3  and  O_7 
REMARK       I    between atoms: C_21  and  N_3 
REMARK    2  A    between atoms: C_5  and  C_12 
REMARK    3  A    between atoms: C_12  and  C_13 
REMARK    4  A    between atoms: C_14  and  C_13 
REMARK    5  A    between atoms: C_17  and  C_19 
REMARK    6  A    between atoms: C_20  and  C_21 
ROOT
HETATM    1  N   UNK N   1      23.106  16.699   4.853  0.00  0.00    -0.360 N 
HETATM    2  C   UNK N   1      21.848  16.496   6.668  0.00  0.00     0.028 A 
HETATM    3  C   UNK N   1      22.746  15.843   5.834  0.00  0.00     0.106 A 
HETATM    4  C   UNK N   1      23.998  16.386   3.748  0.00  0.00     0.155 C 
HETATM    5  C   UNK N   1      22.444  17.856   5.054  0.00  0.00     0.034 A 
HETATM    6  C   UNK N   1      21.661  17.765   6.181  0.00  0.00     0.046 A 
ENDROOT
BRANCH   2   7
HETATM    7  C   UNK N   1      21.081  15.972   7.807  0.00  0.00     0.165 C 
HETATM    8  O   UNK N   1      20.735  16.747   8.688  0.00  0.00    -0.292 OA
BRANCH   7   9
HETATM    9  C   UNK N   1      20.601  14.552   7.847  0.00  0.00     0.122 C 
BRANCH   9  10
HETATM   10  C   UNK N   1      21.290  13.748   8.903  0.00  0.00    -0.051 A 
HETATM   11  C   UNK N   1      22.668  13.492   8.820  0.00  0.00     0.007 A 
HETATM   12  C   UNK N   1      23.309  12.758   9.819  0.00  0.00     0.001 A 
HETATM   13  C   UNK N   1      22.580  12.291  10.915  0.00  0.00     0.000 A 
HETATM   14  C   UNK N   1      21.210  12.558  11.009  0.00  0.00     0.001 A 
HETATM   15  C   UNK N   1      20.565  13.284  10.004  0.00  0.00     0.007 A 
ENDBRANCH   9  10
ENDBRANCH   7   9
ENDBRANCH   2   7
BRANCH   5  16
HETATM   16  C   UNK N   1      22.433  19.032   4.165  0.00  0.00     0.035 C 
HETATM   17  C   UNK N   1      21.368  19.175   3.366  0.00  0.00     0.078 C 
BRANCH  17  18
HETATM   18  C   UNK N   1      21.220  20.155   2.293  0.00  0.00     0.264 C 
HETATM   19  O   UNK N   1      21.639  21.298   2.421  0.00  0.00    -0.266 OA
HETATM   20  N   UNK N   1      20.665  19.755   1.127  0.00  0.00    -0.234 N 
HETATM   21  H   UNK N   1      20.335  18.831   1.043  0.00  0.00     0.197 HD
BRANCH  20  22
HETATM   22  O   UNK N   1      20.554  20.587   0.086  0.00  0.00    -0.287 OA
HETATM   23  H   UNK N   1      21.343  20.843  -0.417  0.00  0.00     0.244 HD
ENDBRANCH  20  22
ENDBRANCH  17  18
ENDBRANCH   5  16
TORSDOF 6
ENDMDL
MODEL 3
REMARK VINA RESULT:      -6.8      1.813      2.367
REMARK  6 active torsions:
REMARK  status: ('A' for Active; 'I' for Inactive)
REMARK    1  A    between atoms: N_3  and  O_7 
REMARK       I    between atoms: C_21  and  N_3 
REMARK    2  A    between atoms: C_5  and  C_12 
REMARK    3  A    between atoms: C_12  and  C_13 
REMARK    4  A    between atoms: C_14  and  C_13 
REMARK    5  A    between atoms: C_17  and  C_19 
REMARK    6  A    between atoms: C_20  and  C_21 
ROOT
HETATM    1  N   UNK N   1      29.203  21.342  -7.365  0.00  0.00    -0.360 N 
HETATM    2  C   UNK N   1      27.788  23.040  -7.187  0.00  0.00     0.028 A 
HETATM    3  C   UNK N   1      28.273  22.055  -8.037  0.00  0.00     0.106 A 
HETATM    4  C   UNK N   1      29.984  20.247  -7.917  0.00  0.00     0.155 C 
HETATM    5  C   UNK N   1      29.311  21.870  -6.130  0.00  0.00     0.034 A 
HETATM    6  C   UNK N   1      28.436  22.921  -5.984  0.00  0.00     0.046 A 
ENDROOT
BRANCH   2   7
HETATM    7  C   UNK N   1      26.852  24.138  -7.469  0.00  0.00     0.165 C 
HETATM    8  O   UNK N   1      27.062  24.855  -8.437  0.00  0.00    -0.292 OA
BRANCH   7   9
HETATM    9  C   UNK N   1      25.585  24.314  -6.686  0.00  0.00     0.122 C 
BRANCH   9  10
HETATM   10  C   UNK N   1      25.669  25.451  -5.718  0.00  0.00    -0.051 A 
HETATM   11  C   UNK N   1      25.126  26.705  -6.041  0.00  0.00     0.007 A 
HETATM   12  C   UNK N   1      25.190  27.757  -5.125  0.00  0.00     0.001 A 
HETATM   13  C   UNK N   1      25.780  27.556  -3.875  0.00  0.00     0.000 A 
HETATM   14  C   UNK N   1      26.306  26.303  -3.544  0.00  0.00     0.001 A 
HETATM   15  C   UNK N   1      26.253  25.252  -4.465  0.00  0.00     0.007 A 
ENDBRANCH   9  10
ENDBRANCH   7   9
ENDBRANCH   2   7
BRANCH   5  16
HETATM   16  C   UNK N   1      30.288  21.492  -5.091  0.00  0.00     0.035 C 
HETATM   17  C   UNK N   1      30.207  22.139  -3.922  0.00  0.00     0.078 C 
BRANCH  17  18
HETATM   18  C   UNK N   1      31.165  22.056  -2.823  0.00  0.00     0.264 C 
HETATM   19  O   UNK N   1      31.012  22.715  -1.802  0.00  0.00    -0.266 OA
HETATM   20  N   UNK N   1      32.195  21.188  -2.929  0.00  0.00    -0.234 N 
HETATM   21  H   UNK N   1      32.301  20.665  -3.757  0.00  0.00     0.197 HD
BRANCH  20  22
HETATM   22  O   UNK N   1      33.073  21.022  -1.935  0.00  0.00    -0.287 OA
HETATM   23  H   UNK N   1      33.723  20.302  -1.975  0.00  0.00     0.244 HD
ENDBRANCH  20  22
ENDBRANCH  17  18
ENDBRANCH   5  16
TORSDOF 6
ENDMDL
MODEL 4
REMARK VINA RESULT:      -6.7     19.118     23.732
REMARK  6 active torsions:
REMARK  status: ('A' for Active; 'I' for Inactive)
REMARK    1  A    between atoms: N_3  and  O_7 
REMARK       I    between atoms: C_21  and  N_3 
REMARK    2  A    between atoms: C_5  and  C_12 
REMARK    3  A    between atoms: C_12  and  C_13 
REMARK    4  A    between atoms: C_14  and  C_13 
REMARK    5  A    between atoms: C_17  and  C_19 
REMARK    6  A    between atoms: C_20  and  C_21 
ROOT
HETATM    1  N   UNK N   1      37.369  13.192  11.463  0.00  0.00    -0.360 N 
HETATM    2  C   UNK N   1      36.016  12.774  13.168  0.00  0.00     0.028 A 
HETATM    3  C   UNK N   1      37.170  12.366  12.513  0.00  0.00     0.106 A 
HETATM    4  C   UNK N   1      38.448  13.075  10.494  0.00  0.00     0.155 C 
HETATM    5  C   UNK N   1      36.362  14.087  11.447  0.00  0.00     0.034 A 
HETATM    6  C   UNK N   1      35.509  13.861  12.502  0.00  0.00     0.046 A 
ENDROOT
BRANCH   2   7
HETATM    7  C   UNK N   1      35.310  12.145  14.294  0.00  0.00     0.165 C 
HETATM    8  O   UNK N   1      34.087  12.112  14.276  0.00  0.00    -0.292 OA
BRANCH   7   9
HETATM    9  C   UNK N   1      36.047  11.431  15.387  0.00  0.00     0.122 C 
BRANCH   9  10
HETATM   10  C   UNK N   1      35.708  11.962  16.742  0.00  0.00    -0.051 A 
HETATM   11  C   UNK N   1      35.658  11.104  17.853  0.00  0.00     0.007 A 
HETATM   12  C   UNK N   1      35.360  11.609  19.120  0.00  0.00     0.001 A 
HETATM   13  C   UNK N   1      35.129  12.977  19.287  0.00  0.00     0.000 A 
HETATM   14  C   UNK N   1      35.195  13.837  18.185  0.00  0.00     0.001 A 
HETATM   15  C   UNK N   1      35.482  13.330  16.914  0.00  0.00     0.007 A 
ENDBRANCH   9  10
ENDBRANCH   7   9
ENDBRANCH   2   7
BRANCH   5  16
HETATM   16  C   UNK N   1      36.101  15.103  10.410  0.00  0.00     0.035 C 
HETATM   17  C   UNK N   1      35.307  16.125  10.753  0.00  0.00     0.078 C 
BRANCH  17  18
HETATM   18  C   UNK N   1      34.776  17.145   9.851  0.00  0.00     0.264 C 
HETATM   19  O   UNK N   1      35.455  18.107   9.518  0.00  0.00    -0.266 OA
HETATM   20  N   UNK N   1      33.536  16.971   9.342  0.00  0.00    -0.234 N 
HETATM   21  H   UNK N   1      33.005  16.190   9.622  0.00  0.00     0.197 HD
BRANCH  20  22
HETATM   22  O   UNK N   1      33.014  17.837   8.467  0.00  0.00    -0.287 OA
HETATM   23  H   UNK N   1      32.084  17.759   8.202  0.00  0.00     0.244 HD
ENDBRANCH  20  22
ENDBRANCH  17  18
ENDBRANCH   5  16
TORSDOF 6
ENDMDL
MODEL 5
REMARK VINA RESULT:      -6.5     14.755     18.525
REMARK  6 active torsions:
REMARK  status: ('A' for Active; 'I' for Inactive)
REMARK    1  A    between atoms: N_3  and  O_7 
REMARK       I    between atoms: C_21  and  N_3 
REMARK    2  A    between atoms: C_5  and  C_12 
REMARK    3  A    between atoms: C_12  and  C_13 
REMARK    4  A    between atoms: C_14  and  C_13 
REMARK    5  A    between atoms: C_17  and  C_19 
REMARK    6  A    between atoms: C_20  and  C_21 
ROOT
HETATM    1  N   UNK N   1      35.595  14.753   9.092  0.00  0.00    -0.360 N 
HETATM    2  C   UNK N   1      34.703  16.771   8.869  0.00  0.00     0.028 A 
HETATM    3  C   UNK N   1      35.039  15.602   8.200  0.00  0.00     0.106 A 
HETATM    4  C   UNK N   1      36.126  13.436   8.780  0.00  0.00     0.155 C 
HETATM    5  C   UNK N   1      35.621  15.373  10.288  0.00  0.00     0.034 A 
HETATM    6  C   UNK N   1      35.063  16.626  10.186  0.00  0.00     0.046 A 
ENDROOT
BRANCH   2   7
HETATM    7  C   UNK N   1      34.178  18.035   8.335  0.00  0.00     0.165 C 
HETATM    8  O   UNK N   1      34.947  18.976   8.190  0.00  0.00    -0.292 OA
BRANCH   7   9
HETATM    9  C   UNK N   1      32.769  18.157   7.840  0.00  0.00     0.122 C 
BRANCH   9  10
HETATM   10  C   UNK N   1      32.521  17.332   6.618  0.00  0.00    -0.051 A 
HETATM   11  C   UNK N   1      31.516  16.352   6.610  0.00  0.00     0.007 A 
HETATM   12  C   UNK N   1      31.277  15.597   5.459  0.00  0.00     0.001 A 
HETATM   13  C   UNK N   1      32.029  15.831   4.306  0.00  0.00     0.000 A 
HETATM   14  C   UNK N   1      33.021  16.818   4.306  0.00  0.00     0.001 A 
HETATM   15  C   UNK N   1      33.268  17.566   5.460  0.00  0.00     0.007 A 
ENDBRANCH   9  10
ENDBRANCH   7   9
ENDBRANCH   2   7
BRANCH   5  16
HETATM   16  C   UNK N   1      36.248  14.875  11.526  0.00  0.00     0.035 C 
HETATM   17  C   UNK N   1      35.435  14.328  12.438  0.00  0.00     0.078 C 
BRANCH  17  18
HETATM   18  C   UNK N   1      35.804  13.930  13.794  0.00  0.00     0.264 C 
HETATM   19  O   UNK N   1      35.018  13.319  14.507  0.00  0.00    -0.266 OA
HETATM   20  N   UNK N   1      37.056  14.196  14.226  0.00  0.00    -0.234 N 
HETATM   21  H   UNK N   1      37.674  14.688  13.638  0.00  0.00     0.197 HD
BRANCH  20  22
HETATM   22  O   UNK N   1      37.475  13.807  15.435  0.00  0.00    -0.287 OA
HETATM   23  H   UNK N   1      38.328  13.355  15.531  0.00  0.00     0.244 HD
ENDBRANCH  20  22
ENDBRANCH  17  18
ENDBRANCH   5  16
TORSDOF 6
ENDMDL
MODEL 6
REMARK VINA RESULT:      -6.5      1.780      2.621
REMARK  6 active torsions:
REMARK  status: ('A' for Active; 'I' for Inactive)
REMARK    1  A    between atoms: N_3  and  O_7 
REMARK       I    between atoms: C_21  and  N_3 
REMARK    2  A    between atoms: C_5  and  C_12 
REMARK    3  A    between atoms: C_12  and  C_13 
REMARK    4  A    between atoms: C_14  and  C_13 
REMARK    5  A    between atoms: C_17  and  C_19 
REMARK    6  A    between atoms: C_20  and  C_21 
ROOT
HETATM    1  N   UNK N   1      28.104  23.693  -3.155  0.00  0.00    -0.360 N 
HETATM    2  C   UNK N   1      26.910  24.393  -4.888  0.00  0.00     0.028 A 
HETATM    3  C   UNK N   1      26.903  24.198  -3.513  0.00  0.00     0.106 A 
HETATM    4  C   UNK N   1      28.485  23.304  -1.807  0.00  0.00     0.155 C 
HETATM    5  C   UNK N   1      28.844  23.561  -4.274  0.00  0.00     0.034 A 
HETATM    6  C   UNK N   1      28.133  23.998  -5.368  0.00  0.00     0.046 A 
ENDROOT
BRANCH   2   7
HETATM    7  C   UNK N   1      25.817  24.813  -5.777  0.00  0.00     0.165 C 
HETATM    8  O   UNK N   1      25.358  24.000  -6.567  0.00  0.00    -0.292 OA
BRANCH   7   9
HETATM    9  C   UNK N   1      25.167  26.158  -5.646  0.00  0.00     0.122 C 
BRANCH   9  10
HETATM   10  C   UNK N   1      26.147  27.279  -5.783  0.00  0.00    -0.051 A 
HETATM   11  C   UNK N   1      26.991  27.357  -6.902  0.00  0.00     0.007 A 
HETATM   12  C   UNK N   1      27.890  28.417  -7.033  0.00  0.00     0.001 A 
HETATM   13  C   UNK N   1      27.937  29.414  -6.056  0.00  0.00     0.000 A 
HETATM   14  C   UNK N   1      27.086  29.348  -4.948  0.00  0.00     0.001 A 
HETATM   15  C   UNK N   1      26.193  28.281  -4.810  0.00  0.00     0.007 A 
ENDBRANCH   9  10
ENDBRANCH   7   9
ENDBRANCH   2   7
BRANCH   5  16
HETATM   16  C   UNK N   1      30.176  22.937  -4.383  0.00  0.00     0.035 C 
HETATM   17  C   UNK N   1      30.237  21.610  -4.220  0.00  0.00     0.078 C 
BRANCH  17  18
HETATM   18  C   UNK N   1      31.454  20.809  -4.115  0.00  0.00     0.264 C 
HETATM   19  O   UNK N   1      31.799  20.065  -5.023  0.00  0.00    -0.266 OA
HETATM   20  N   UNK N   1      32.226  20.953  -3.015  0.00  0.00    -0.234 N 
HETATM   21  H   UNK N   1      31.932  21.558  -2.296  0.00  0.00     0.197 HD
BRANCH  20  22
HETATM   22  O   UNK N   1      33.382  20.293  -2.883  0.00  0.00    -0.287 OA
HETATM   23  H   UNK N   1      34.199  20.779  -2.687  0.00  0.00     0.244 HD
ENDBRANCH  20  22
ENDBRANCH  17  18
ENDBRANCH   5  16
TORSDOF 6
ENDMDL
MODEL 7
REMARK VINA RESULT:      -6.5     15.204     18.363
REMARK  6 active torsions:
REMARK  status: ('A' for Active; 'I' for Inactive)
REMARK    1  A    between atoms: N_3  and  O_7 
REMARK       I    between atoms: C_21  and  N_3 
REMARK    2  A    between atoms: C_5  and  C_12 
REMARK    3  A    between atoms: C_12  and  C_13 
REMARK    4  A    between atoms: C_14  and  C_13 
REMARK    5  A    between atoms: C_17  and  C_19 
REMARK    6  A    between atoms: C_20  and  C_21 
ROOT
HETATM    1  N   UNK N   1      35.618  14.306   8.752  0.00  0.00    -0.360 N 
HETATM    2  C   UNK N   1      34.602  16.161   8.087  0.00  0.00     0.028 A 
HETATM    3  C   UNK N   1      35.060  14.914   7.682  0.00  0.00     0.106 A 
HETATM    4  C   UNK N   1      36.258  13.000   8.738  0.00  0.00     0.155 C 
HETATM    5  C   UNK N   1      35.527  15.150   9.799  0.00  0.00     0.034 A 
HETATM    6  C   UNK N   1      34.890  16.309   9.420  0.00  0.00     0.046 A 
ENDROOT
BRANCH   2   7
HETATM    7  C   UNK N   1      34.024  17.249   7.284  0.00  0.00     0.165 C 
HETATM    8  O   UNK N   1      34.621  18.315   7.224  0.00  0.00    -0.292 OA
BRANCH   7   9
HETATM    9  C   UNK N   1      32.805  17.041   6.438  0.00  0.00     0.122 C 
BRANCH   9  10
HETATM   10  C   UNK N   1      31.545  17.399   7.158  0.00  0.00    -0.051 A 
HETATM   11  C   UNK N   1      30.292  17.158   6.570  0.00  0.00     0.007 A 
HETATM   12  C   UNK N   1      29.119  17.477   7.256  0.00  0.00     0.001 A 
HETATM   13  C   UNK N   1      29.191  18.021   8.540  0.00  0.00     0.000 A 
HETATM   14  C   UNK N   1      30.436  18.248   9.136  0.00  0.00     0.001 A 
HETATM   15  C   UNK N   1      31.612  17.940   8.445  0.00  0.00     0.007 A 
ENDBRANCH   9  10
ENDBRANCH   7   9
ENDBRANCH   2   7
BRANCH   5  16
HETATM   16  C   UNK N   1      36.111  14.959  11.140  0.00  0.00     0.035 C 
HETATM   17  C   UNK N   1      35.394  14.243  12.014  0.00  0.00     0.078 C 
BRANCH  17  18
HETATM   18  C   UNK N   1      35.687  14.073  13.435  0.00  0.00     0.264 C 
HETATM   19  O   UNK N   1      34.925  13.453  14.166  0.00  0.00    -0.266 OA
HETATM   20  N   UNK N   1      36.852  14.562  13.916  0.00  0.00    -0.234 N 
HETATM   21  H   UNK N   1      37.452  15.057  13.312  0.00  0.00     0.197 HD
BRANCH  20  22
HETATM   22  O   UNK N   1      37.206  14.389  15.194  0.00  0.00    -0.287 OA
HETATM   23  H   UNK N   1      36.790  13.690  15.723  0.00  0.00     0.244 HD
ENDBRANCH  20  22
ENDBRANCH  17  18
ENDBRANCH   5  16
TORSDOF 6
ENDMDL
MODEL 8
REMARK VINA RESULT:      -6.4     23.019     27.490
REMARK  6 active torsions:
REMARK  status: ('A' for Active; 'I' for Inactive)
REMARK    1  A    between atoms: N_3  and  O_7 
REMARK       I    between atoms: C_21  and  N_3 
REMARK    2  A    between atoms: C_5  and  C_12 
REMARK    3  A    between atoms: C_12  and  C_13 
REMARK    4  A    between atoms: C_14  and  C_13 
REMARK    5  A    between atoms: C_17  and  C_19 
REMARK    6  A    between atoms: C_20  and  C_21 
ROOT
HETATM    1  N   UNK N   1      35.960  10.876  15.930  0.00  0.00    -0.360 N 
HETATM    2  C   UNK N   1      35.599  11.760  17.931  0.00  0.00     0.028 A 
HETATM    3  C   UNK N   1      36.077  10.645  17.256  0.00  0.00     0.106 A 
HETATM    4  C   UNK N   1      36.307   9.934  14.878  0.00  0.00     0.155 C 
HETATM    5  C   UNK N   1      35.412  12.097  15.772  0.00  0.00     0.034 A 
HETATM    6  C   UNK N   1      35.185  12.678  16.998  0.00  0.00     0.046 A 
ENDROOT
BRANCH   2   7
HETATM    7  C   UNK N   1      35.405  11.966  19.373  0.00  0.00     0.165 C 
HETATM    8  O   UNK N   1      35.061  13.073  19.767  0.00  0.00    -0.292 OA
BRANCH   7   9
HETATM    9  C   UNK N   1      35.485  10.832  20.349  0.00  0.00     0.122 C 
BRANCH   9  10
HETATM   10  C   UNK N   1      34.168  10.152  20.541  0.00  0.00    -0.051 A 
HETATM   11  C   UNK N   1      33.715   9.198  19.615  0.00  0.00     0.007 A 
HETATM   12  C   UNK N   1      32.492   8.553  19.809  0.00  0.00     0.001 A 
HETATM   13  C   UNK N   1      31.724   8.844  20.939  0.00  0.00     0.000 A 
HETATM   14  C   UNK N   1      32.180   9.782  21.872  0.00  0.00     0.001 A 
HETATM   15  C   UNK N   1      33.399  10.437  21.672  0.00  0.00     0.007 A 
ENDBRANCH   9  10
ENDBRANCH   7   9
ENDBRANCH   2   7
BRANCH   5  16
HETATM   16  C   UNK N   1      34.988  12.717  14.503  0.00  0.00     0.035 C 
HETATM   17  C   UNK N   1      35.889  13.482  13.874  0.00  0.00     0.078 C 
BRANCH  17  18
HETATM   18  C   UNK N   1      35.639  14.326  12.707  0.00  0.00     0.264 C 
HETATM   19  O   UNK N   1      34.564  14.291  12.123  0.00  0.00    -0.266 OA
HETATM   20  N   UNK N   1      36.601  15.193  12.322  0.00  0.00    -0.234 N 
HETATM   21  H   UNK N   1      37.459  15.208  12.806  0.00  0.00     0.197 HD
BRANCH  20  22
HETATM   22  O   UNK N   1      36.414  16.034  11.299  0.00  0.00    -0.287 OA
HETATM   23  H   UNK N   1      36.391  15.694  10.390  0.00  0.00     0.244 HD
ENDBRANCH  20  22
ENDBRANCH  17  18
ENDBRANCH   5  16
TORSDOF 6
ENDMDL
MODEL 9
REMARK VINA RESULT:      -6.4     11.978     13.384
REMARK  6 active torsions:
REMARK  status: ('A' for Active; 'I' for Inactive)
REMARK    1  A    between atoms: N_3  and  O_7 
REMARK       I    between atoms: C_21  and  N_3 
REMARK    2  A    between atoms: C_5  and  C_12 
REMARK    3  A    between atoms: C_12  and  C_13 
REMARK    4  A    between atoms: C_14  and  C_13 
REMARK    5  A    between atoms: C_17  and  C_19 
REMARK    6  A    between atoms: C_20  and  C_21 
ROOT
HETATM    1  N   UNK N   1      32.318  16.637   4.032  0.00  0.00    -0.360 N 
HETATM    2  C   UNK N   1      30.245  16.819   4.798  0.00  0.00     0.028 A 
HETATM    3  C   UNK N   1      31.018  16.508   3.687  0.00  0.00     0.106 A 
HETATM    4  C   UNK N   1      33.448  16.446   3.138  0.00  0.00     0.155 C 
HETATM    5  C   UNK N   1      32.364  17.031   5.320  0.00  0.00     0.034 A 
HETATM    6  C   UNK N   1      31.091  17.144   5.829  0.00  0.00     0.046 A 
ENDROOT
BRANCH   2   7
HETATM    7  C   UNK N   1      28.785  16.940   4.915  0.00  0.00     0.165 C 
HETATM    8  O   UNK N   1      28.231  16.445   5.888  0.00  0.00    -0.292 OA
BRANCH   7   9
HETATM    9  C   UNK N   1      27.982  17.762   3.952  0.00  0.00     0.122 C 
BRANCH   9  10
HETATM   10  C   UNK N   1      27.394  18.977   4.595  0.00  0.00    -0.051 A 
HETATM   11  C   UNK N   1      28.191  19.826   5.380  0.00  0.00     0.007 A 
HETATM   12  C   UNK N   1      27.641  20.970   5.962  0.00  0.00     0.001 A 
HETATM   13  C   UNK N   1      26.297  21.282   5.746  0.00  0.00     0.000 A 
HETATM   14  C   UNK N   1      25.504  20.447   4.951  0.00  0.00     0.001 A 
HETATM   15  C   UNK N   1      26.051  19.295   4.377  0.00  0.00     0.007 A 
ENDBRANCH   9  10
ENDBRANCH   7   9
ENDBRANCH   2   7
BRANCH   5  16
HETATM   16  C   UNK N   1      33.567  17.414   6.083  0.00  0.00     0.035 C 
HETATM   17  C   UNK N   1      33.444  17.473   7.414  0.00  0.00     0.078 C 
BRANCH  17  18
HETATM   18  C   UNK N   1      34.439  17.990   8.351  0.00  0.00     0.264 C 
HETATM   19  O   UNK N   1      34.903  19.116   8.219  0.00  0.00    -0.266 OA
HETATM   20  N   UNK N   1      34.793  17.222   9.404  0.00  0.00    -0.234 N 
HETATM   21  H   UNK N   1      34.408  16.320   9.494  0.00  0.00     0.197 HD
BRANCH  20  22
HETATM   22  O   UNK N   1      35.654  17.659  10.329  0.00  0.00    -0.287 OA
HETATM   23  H   UNK N   1      35.642  18.591  10.601  0.00  0.00     0.244 HD
ENDBRANCH  20  22
ENDBRANCH  17  18
ENDBRANCH   5  16
TORSDOF 6
ENDMDL
