MODEL 1
REMARK VINA RESULT:      -8.0      0.000      0.000
REMARK  14 active torsions:
REMARK  status: ('A' for Active; 'I' for Inactive)
REMARK    1  A    between atoms: C_1  and  O_3 
REMARK       I    between atoms: C_1  and  N_15 
REMARK    2  A    between atoms: O_3  and  C_4 
REMARK    3  A    between atoms: C_4  and  C_5 
REMARK    4  A    between atoms: C_11  and  C_13 
REMARK       I    between atoms: C_11  and  N_17 
REMARK    5  A    between atoms: C_13  and  N_15 
REMARK    6  A    between atoms: C_16  and  N_17 
REMARK    7  A    between atoms: C_16  and  P_18 
REMARK    8  A    between atoms: P_18  and  O_20 
REMARK    9  A    between atoms: P_18  and  O_21 
REMARK   10  A    between atoms: C_22  and  O_21 
REMARK   11  A    between atoms: C_22  and  C_23 
REMARK   12  A    between atoms: C_22  and  C_26 
REMARK   13  A    between atoms: C_23  and  O_25 
REMARK   14  A    between atoms: C_26  and  C_27 
ROOT
HETATM    1  C   UNK N   1      34.788  12.959  10.221  0.00  0.00     0.247 C 
ENDROOT
BRANCH   1   2
HETATM    2  N   UNK N   1      34.444  12.159  11.393  0.00  0.00    -0.348 N 
HETATM    3  C   UNK N   1      35.279  11.965  12.456  0.00  0.00     0.240 C 
HETATM    4  O   UNK N   1      34.964  11.163  13.318  0.00  0.00    -0.271 OA
HETATM    5  H   UNK N   1      33.556  11.734  11.418  0.00  0.00     0.163 HD
BRANCH   3   6
HETATM    6  C   UNK N   1      36.545  12.788  12.577  0.00  0.00     0.174 C 
HETATM    7  C   UNK N   1      37.734  11.930  12.988  0.00  0.00     0.042 C 
BRANCH   6   8
HETATM    8  N   UNK N   1      36.615  14.018  13.323  0.00  0.00    -0.324 N 
HETATM    9  C   UNK N   1      36.783  14.185  14.649  0.00  0.00     0.361 C 
HETATM   10  O   UNK N   1      37.128  15.270  15.067  0.00  0.00    -0.238 OA
HETATM   11  H   UNK N   1      36.528  14.844  12.794  0.00  0.00     0.165 HD
BRANCH   9  12
HETATM   12  O   UNK N   1      36.452  13.206  15.515  0.00  0.00    -0.299 OA
BRANCH  12  13
HETATM   13  C   UNK N   1      35.269  13.346  16.204  0.00  0.00     0.219 C 
BRANCH  13  14
HETATM   14  C   UNK N   1      35.256  12.546  17.455  0.00  0.00    -0.034 A 
HETATM   15  C   UNK N   1      35.291  11.155  17.370  0.00  0.00     0.009 A 
HETATM   16  C   UNK N   1      35.269  10.385  18.535  0.00  0.00     0.001 A 
HETATM   17  C   UNK N   1      35.216  11.008  19.786  0.00  0.00     0.000 A 
HETATM   18  C   UNK N   1      35.170  12.402  19.873  0.00  0.00     0.001 A 
HETATM   19  C   UNK N   1      35.180  13.169  18.708  0.00  0.00     0.009 A 
ENDBRANCH  13  14
ENDBRANCH  12  13
ENDBRANCH   9  12
ENDBRANCH   6   8
ENDBRANCH   3   6
ENDBRANCH   1   2
BRANCH   1  20
HETATM   20  P   UNK N   1      34.019  14.692  10.053  0.00  0.00     0.257 P 
HETATM   21  O   UNK N   1      34.920  15.607  10.923  0.00  0.00    -0.652 OA
BRANCH  20  22
HETATM   22  O   UNK N   1      32.480  15.146  10.717  0.00  0.00    -0.328 OA
HETATM   23  H   UNK N   1      31.950  15.850  10.313  0.00  0.00     0.220 HD
ENDBRANCH  20  22
BRANCH  20  24
HETATM   24  O   UNK N   1      34.068  15.455   8.479  0.00  0.00    -0.301 OA
BRANCH  24  25
HETATM   25  C   UNK N   1      33.440  16.712   8.531  0.00  0.00     0.233 C 
BRANCH  25  26
HETATM   26  C   UNK N   1      34.473  17.785   8.343  0.00  0.00     0.170 C 
HETATM   27  O   UNK N   1      34.596  18.336   7.261  0.00  0.00    -0.648 OA
BRANCH  26  28
HETATM   28  O   UNK N   1      35.243  18.166   9.380  0.00  0.00    -0.774 OA
HETATM   29  H   UNK N   1      35.878  18.052  10.059  0.00  0.00     0.167 HD
ENDBRANCH  26  28
ENDBRANCH  25  26
BRANCH  25  30
HETATM   30  C   UNK N   1      32.419  16.757   7.397  0.00  0.00     0.082 C 
BRANCH  30  31
HETATM   31  C   UNK N   1      31.103  17.344   7.802  0.00  0.00    -0.055 A 
HETATM   32  C   UNK N   1      31.020  18.078   8.989  0.00  0.00     0.007 A 
HETATM   33  C   UNK N   1      29.798  18.623   9.393  0.00  0.00     0.001 A 
HETATM   34  C   UNK N   1      28.657  18.439   8.606  0.00  0.00     0.000 A 
HETATM   35  C   UNK N   1      28.738  17.709   7.417  0.00  0.00     0.001 A 
HETATM   36  C   UNK N   1      29.957  17.157   7.018  0.00  0.00     0.007 A 
ENDBRANCH  30  31
ENDBRANCH  25  30
ENDBRANCH  24  25
ENDBRANCH  20  24
ENDBRANCH   1  20
TORSDOF 14
ENDMDL
MODEL 2
REMARK VINA RESULT:      -7.9      1.592      2.702
REMARK  14 active torsions:
REMARK  status: ('A' for Active; 'I' for Inactive)
REMARK    1  A    between atoms: C_1  and  O_3 
REMARK       I    between atoms: C_1  and  N_15 
REMARK    2  A    between atoms: O_3  and  C_4 
REMARK    3  A    between atoms: C_4  and  C_5 
REMARK    4  A    between atoms: C_11  and  C_13 
REMARK       I    between atoms: C_11  and  N_17 
REMARK    5  A    between atoms: C_13  and  N_15 
REMARK    6  A    between atoms: C_16  and  N_17 
REMARK    7  A    between atoms: C_16  and  P_18 
REMARK    8  A    between atoms: P_18  and  O_20 
REMARK    9  A    between atoms: P_18  and  O_21 
REMARK   10  A    between atoms: C_22  and  O_21 
REMARK   11  A    between atoms: C_22  and  C_23 
REMARK   12  A    between atoms: C_22  and  C_26 
REMARK   13  A    between atoms: C_23  and  O_25 
REMARK   14  A    between atoms: C_26  and  C_27 
ROOT
HETATM    1  C   UNK N   1      35.433  13.168  10.571  0.00  0.00     0.247 C 
ENDROOT
BRANCH   1   2
HETATM    2  N   UNK N   1      34.581  12.879  11.721  0.00  0.00    -0.348 N 
HETATM    3  C   UNK N   1      35.055  12.589  12.969  0.00  0.00     0.240 C 
HETATM    4  O   UNK N   1      34.275  12.217  13.827  0.00  0.00    -0.271 OA
HETATM    5  H   UNK N   1      33.606  12.894  11.589  0.00  0.00     0.163 HD
BRANCH   3   6
HETATM    6  C   UNK N   1      36.524  12.791  13.280  0.00  0.00     0.174 C 
HETATM    7  C   UNK N   1      37.154  11.531  13.856  0.00  0.00     0.042 C 
BRANCH   6   8
HETATM    8  N   UNK N   1      37.020  13.913  14.035  0.00  0.00    -0.324 N 
HETATM    9  C   UNK N   1      36.796  14.217  15.328  0.00  0.00     0.361 C 
HETATM   10  O   UNK N   1      37.529  15.009  15.882  0.00  0.00    -0.238 OA
HETATM   11  H   UNK N   1      37.598  14.539  13.541  0.00  0.00     0.165 HD
BRANCH   9  12
HETATM   12  O   UNK N   1      35.704  13.751  15.967  0.00  0.00    -0.299 OA
BRANCH  12  13
HETATM   13  C   UNK N   1      35.682  13.860  17.339  0.00  0.00     0.219 C 
BRANCH  13  14
HETATM   14  C   UNK N   1      35.403  12.557  17.996  0.00  0.00    -0.034 A 
HETATM   15  C   UNK N   1      35.318  12.505  19.386  0.00  0.00     0.009 A 
HETATM   16  C   UNK N   1      35.067  11.288  20.024  0.00  0.00     0.001 A 
HETATM   17  C   UNK N   1      34.897  10.123  19.268  0.00  0.00     0.000 A 
HETATM   18  C   UNK N   1      34.992  10.172  17.875  0.00  0.00     0.001 A 
HETATM   19  C   UNK N   1      35.254  11.386  17.241  0.00  0.00     0.009 A 
ENDBRANCH  13  14
ENDBRANCH  12  13
ENDBRANCH   9  12
ENDBRANCH   6   8
ENDBRANCH   3   6
ENDBRANCH   1   2
BRANCH   1  20
HETATM   20  P   UNK N   1      35.746  14.988  10.113  0.00  0.00     0.257 P 
HETATM   21  O   UNK N   1      36.169  14.950   8.621  0.00  0.00    -0.652 OA
BRANCH  20  22
HETATM   22  O   UNK N   1      37.064  15.937  10.725  0.00  0.00    -0.328 OA
HETATM   23  H   UNK N   1      36.903  16.723  11.270  0.00  0.00     0.220 HD
ENDBRANCH  20  22
BRANCH  20  24
HETATM   24  O   UNK N   1      34.374  16.075  10.116  0.00  0.00    -0.301 OA
BRANCH  24  25
HETATM   25  C   UNK N   1      33.585  15.860   8.971  0.00  0.00     0.233 C 
BRANCH  25  26
HETATM   26  C   UNK N   1      32.488  14.892   9.307  0.00  0.00     0.170 C 
HETATM   27  O   UNK N   1      32.290  13.917   8.601  0.00  0.00    -0.648 OA
BRANCH  26  28
HETATM   28  O   UNK N   1      31.740  15.080  10.412  0.00  0.00    -0.774 OA
HETATM   29  H   UNK N   1      30.973  15.320  10.893  0.00  0.00     0.167 HD
ENDBRANCH  26  28
ENDBRANCH  25  26
BRANCH  25  30
HETATM   30  C   UNK N   1      32.994  17.208   8.567  0.00  0.00     0.082 C 
BRANCH  30  31
HETATM   31  C   UNK N   1      32.618  17.285   7.121  0.00  0.00    -0.055 A 
HETATM   32  C   UNK N   1      31.272  17.170   6.759  0.00  0.00     0.007 A 
HETATM   33  C   UNK N   1      30.900  17.224   5.413  0.00  0.00     0.001 A 
HETATM   34  C   UNK N   1      31.874  17.401   4.425  0.00  0.00     0.000 A 
HETATM   35  C   UNK N   1      33.220  17.521   4.784  0.00  0.00     0.001 A 
HETATM   36  C   UNK N   1      33.593  17.457   6.130  0.00  0.00     0.007 A 
ENDBRANCH  30  31
ENDBRANCH  25  30
ENDBRANCH  24  25
ENDBRANCH  20  24
ENDBRANCH   1  20
TORSDOF 14
ENDMDL
MODEL 3
REMARK VINA RESULT:      -7.8      1.281      2.192
REMARK  14 active torsions:
REMARK  status: ('A' for Active; 'I' for Inactive)
REMARK    1  A    between atoms: C_1  and  O_3 
REMARK       I    between atoms: C_1  and  N_15 
REMARK    2  A    between atoms: O_3  and  C_4 
REMARK    3  A    between atoms: C_4  and  C_5 
REMARK    4  A    between atoms: C_11  and  C_13 
REMARK       I    between atoms: C_11  and  N_17 
REMARK    5  A    between atoms: C_13  and  N_15 
REMARK    6  A    between atoms: C_16  and  N_17 
REMARK    7  A    between atoms: C_16  and  P_18 
REMARK    8  A    between atoms: P_18  and  O_20 
REMARK    9  A    between atoms: P_18  and  O_21 
REMARK   10  A    between atoms: C_22  and  O_21 
REMARK   11  A    between atoms: C_22  and  C_23 
REMARK   12  A    between atoms: C_22  and  C_26 
REMARK   13  A    between atoms: C_23  and  O_25 
REMARK   14  A    between atoms: C_26  and  C_27 
ROOT
HETATM    1  C   UNK N   1      36.337  14.688  10.885  0.00  0.00     0.247 C 
ENDROOT
BRANCH   1   2
HETATM    2  N   UNK N   1      36.742  14.786  12.285  0.00  0.00    -0.348 N 
HETATM    3  C   UNK N   1      36.486  13.827  13.222  0.00  0.00     0.240 C 
HETATM    4  O   UNK N   1      36.730  14.062  14.392  0.00  0.00    -0.271 OA
HETATM    5  H   UNK N   1      37.229  15.593  12.570  0.00  0.00     0.163 HD
BRANCH   3   6
HETATM    6  C   UNK N   1      35.962  12.473  12.788  0.00  0.00     0.174 C 
HETATM    7  C   UNK N   1      34.601  12.175  13.401  0.00  0.00     0.042 C 
BRANCH   6   8
HETATM    8  N   UNK N   1      36.747  11.268  12.859  0.00  0.00    -0.324 N 
HETATM    9  C   UNK N   1      37.027  10.513  13.939  0.00  0.00     0.361 C 
HETATM   10  O   UNK N   1      37.431   9.380  13.778  0.00  0.00    -0.238 OA
HETATM   11  H   UNK N   1      37.129  10.955  12.007  0.00  0.00     0.165 HD
BRANCH   9  12
HETATM   12  O   UNK N   1      36.985  11.041  15.179  0.00  0.00    -0.299 OA
BRANCH  12  13
HETATM   13  C   UNK N   1      36.518  10.234  16.192  0.00  0.00     0.219 C 
BRANCH  13  14
HETATM   14  C   UNK N   1      36.040  11.024  17.356  0.00  0.00    -0.034 A 
HETATM   15  C   UNK N   1      35.561  12.316  17.146  0.00  0.00     0.009 A 
HETATM   16  C   UNK N   1      35.117  13.079  18.229  0.00  0.00     0.001 A 
HETATM   17  C   UNK N   1      35.148  12.545  19.521  0.00  0.00     0.000 A 
HETATM   18  C   UNK N   1      35.638  11.255  19.735  0.00  0.00     0.001 A 
HETATM   19  C   UNK N   1      36.092  10.499  18.654  0.00  0.00     0.009 A 
ENDBRANCH  13  14
ENDBRANCH  12  13
ENDBRANCH   9  12
ENDBRANCH   6   8
ENDBRANCH   3   6
ENDBRANCH   1   2
BRANCH   1  20
HETATM   20  P   UNK N   1      34.731  15.556  10.347  0.00  0.00     0.257 P 
HETATM   21  O   UNK N   1      34.871  17.006  10.881  0.00  0.00    -0.652 OA
BRANCH  20  22
HETATM   22  O   UNK N   1      33.162  15.198  10.996  0.00  0.00    -0.328 OA
HETATM   23  H   UNK N   1      33.060  14.615  11.765  0.00  0.00     0.220 HD
ENDBRANCH  20  22
BRANCH  20  24
HETATM   24  O   UNK N   1      34.464  15.781   8.632  0.00  0.00    -0.301 OA
BRANCH  24  25
HETATM   25  C   UNK N   1      33.617  16.883   8.416  0.00  0.00     0.233 C 
BRANCH  25  26
HETATM   26  C   UNK N   1      34.383  17.958   7.701  0.00  0.00     0.170 C 
HETATM   27  O   UNK N   1      34.465  17.949   6.483  0.00  0.00    -0.648 OA
BRANCH  26  28
HETATM   28  O   UNK N   1      34.954  18.957   8.402  0.00  0.00    -0.774 OA
HETATM   29  H   UNK N   1      35.576  19.343   8.987  0.00  0.00     0.167 HD
ENDBRANCH  26  28
ENDBRANCH  25  26
BRANCH  25  30
HETATM   30  C   UNK N   1      32.455  16.400   7.552  0.00  0.00     0.082 C 
BRANCH  30  31
HETATM   31  C   UNK N   1      31.191  17.173   7.765  0.00  0.00    -0.055 A 
HETATM   32  C   UNK N   1      31.067  17.977   8.902  0.00  0.00     0.007 A 
HETATM   33  C   UNK N   1      29.891  18.697   9.128  0.00  0.00     0.001 A 
HETATM   34  C   UNK N   1      28.837  18.618   8.213  0.00  0.00     0.000 A 
HETATM   35  C   UNK N   1      28.959  17.817   7.073  0.00  0.00     0.001 A 
HETATM   36  C   UNK N   1      30.132  17.091   6.852  0.00  0.00     0.007 A 
ENDBRANCH  30  31
ENDBRANCH  25  30
ENDBRANCH  24  25
ENDBRANCH  20  24
ENDBRANCH   1  20
TORSDOF 14
ENDMDL
MODEL 4
REMARK VINA RESULT:      -7.5      1.975      2.982
REMARK  14 active torsions:
REMARK  status: ('A' for Active; 'I' for Inactive)
REMARK    1  A    between atoms: C_1  and  O_3 
REMARK       I    between atoms: C_1  and  N_15 
REMARK    2  A    between atoms: O_3  and  C_4 
REMARK    3  A    between atoms: C_4  and  C_5 
REMARK    4  A    between atoms: C_11  and  C_13 
REMARK       I    between atoms: C_11  and  N_17 
REMARK    5  A    between atoms: C_13  and  N_15 
REMARK    6  A    between atoms: C_16  and  N_17 
REMARK    7  A    between atoms: C_16  and  P_18 
REMARK    8  A    between atoms: P_18  and  O_20 
REMARK    9  A    between atoms: P_18  and  O_21 
REMARK   10  A    between atoms: C_22  and  O_21 
REMARK   11  A    between atoms: C_22  and  C_23 
REMARK   12  A    between atoms: C_22  and  C_26 
REMARK   13  A    between atoms: C_23  and  O_25 
REMARK   14  A    between atoms: C_26  and  C_27 
ROOT
HETATM    1  C   UNK N   1      33.874  12.800   9.468  0.00  0.00     0.247 C 
ENDROOT
BRANCH   1   2
HETATM    2  N   UNK N   1      32.793  11.840   9.266  0.00  0.00    -0.348 N 
HETATM    3  C   UNK N   1      32.763  10.595   9.827  0.00  0.00     0.240 C 
HETATM    4  O   UNK N   1      31.896   9.811   9.483  0.00  0.00    -0.271 OA
HETATM    5  H   UNK N   1      32.040  12.106   8.689  0.00  0.00     0.163 HD
BRANCH   3   6
HETATM    6  C   UNK N   1      33.764  10.233  10.905  0.00  0.00     0.174 C 
HETATM    7  C   UNK N   1      34.632   9.053  10.491  0.00  0.00     0.042 C 
BRANCH   6   8
HETATM    8  N   UNK N   1      33.399  10.043  12.285  0.00  0.00    -0.324 N 
HETATM    9  C   UNK N   1      33.824  10.726  13.366  0.00  0.00     0.361 C 
HETATM   10  O   UNK N   1      33.192  10.648  14.398  0.00  0.00    -0.238 OA
HETATM   11  H   UNK N   1      32.755   9.319  12.462  0.00  0.00     0.165 HD
BRANCH   9  12
HETATM   12  O   UNK N   1      35.000  11.385  13.346  0.00  0.00    -0.299 OA
BRANCH  12  13
HETATM   13  C   UNK N   1      35.869  11.156  14.388  0.00  0.00     0.219 C 
BRANCH  13  14
HETATM   14  C   UNK N   1      36.023  12.351  15.257  0.00  0.00    -0.034 A 
HETATM   15  C   UNK N   1      35.292  12.425  16.442  0.00  0.00     0.009 A 
HETATM   16  C   UNK N   1      35.415  13.545  17.267  0.00  0.00     0.001 A 
HETATM   17  C   UNK N   1      36.275  14.588  16.909  0.00  0.00     0.000 A 
HETATM   18  C   UNK N   1      37.000  14.520  15.718  0.00  0.00     0.001 A 
HETATM   19  C   UNK N   1      36.867  13.407  14.889  0.00  0.00     0.009 A 
ENDBRANCH  13  14
ENDBRANCH  12  13
ENDBRANCH   9  12
ENDBRANCH   6   8
ENDBRANCH   3   6
ENDBRANCH   1   2
BRANCH   1  20
HETATM   20  P   UNK N   1      33.431  14.646   9.596  0.00  0.00     0.257 P 
HETATM   21  O   UNK N   1      34.484  15.236  10.570  0.00  0.00    -0.652 OA
BRANCH  20  22
HETATM   22  O   UNK N   1      32.001  15.256  10.370  0.00  0.00    -0.328 OA
HETATM   23  H   UNK N   1      31.224  15.514   9.851  0.00  0.00     0.220 HD
ENDBRANCH  20  22
BRANCH  20  24
HETATM   24  O   UNK N   1      33.614  15.629   8.159  0.00  0.00    -0.301 OA
BRANCH  24  25
HETATM   25  C   UNK N   1      33.207  16.949   8.422  0.00  0.00     0.233 C 
BRANCH  25  26
HETATM   26  C   UNK N   1      34.402  17.855   8.343  0.00  0.00     0.170 C 
HETATM   27  O   UNK N   1      34.628  18.488   7.325  0.00  0.00    -0.648 OA
BRANCH  26  28
HETATM   28  O   UNK N   1      35.210  17.997   9.412  0.00  0.00    -0.774 OA
HETATM   29  H   UNK N   1      35.661  18.469  10.084  0.00  0.00     0.167 HD
ENDBRANCH  26  28
ENDBRANCH  25  26
BRANCH  25  30
HETATM   30  C   UNK N   1      32.185  17.330   7.354  0.00  0.00     0.082 C 
BRANCH  30  31
HETATM   31  C   UNK N   1      30.818  17.592   7.904  0.00  0.00    -0.055 A 
HETATM   32  C   UNK N   1      30.685  18.353   9.070  0.00  0.00     0.007 A 
HETATM   33  C   UNK N   1      29.419  18.598   9.608  0.00  0.00     0.001 A 
HETATM   34  C   UNK N   1      28.281  18.085   8.977  0.00  0.00     0.000 A 
HETATM   35  C   UNK N   1      28.410  17.327   7.810  0.00  0.00     0.001 A 
HETATM   36  C   UNK N   1      29.677  17.075   7.277  0.00  0.00     0.007 A 
ENDBRANCH  30  31
ENDBRANCH  25  30
ENDBRANCH  24  25
ENDBRANCH  20  24
ENDBRANCH   1  20
TORSDOF 14
ENDMDL
MODEL 5
REMARK VINA RESULT:      -7.3      1.990      3.396
REMARK  14 active torsions:
REMARK  status: ('A' for Active; 'I' for Inactive)
REMARK    1  A    between atoms: C_1  and  O_3 
REMARK       I    between atoms: C_1  and  N_15 
REMARK    2  A    between atoms: O_3  and  C_4 
REMARK    3  A    between atoms: C_4  and  C_5 
REMARK    4  A    between atoms: C_11  and  C_13 
REMARK       I    between atoms: C_11  and  N_17 
REMARK    5  A    between atoms: C_13  and  N_15 
REMARK    6  A    between atoms: C_16  and  N_17 
REMARK    7  A    between atoms: C_16  and  P_18 
REMARK    8  A    between atoms: P_18  and  O_20 
REMARK    9  A    between atoms: P_18  and  O_21 
REMARK   10  A    between atoms: C_22  and  O_21 
REMARK   11  A    between atoms: C_22  and  C_23 
REMARK   12  A    between atoms: C_22  and  C_26 
REMARK   13  A    between atoms: C_23  and  O_25 
REMARK   14  A    between atoms: C_26  and  C_27 
ROOT
HETATM    1  C   UNK N   1      33.476  15.018   9.438  0.00  0.00     0.247 C 
ENDROOT
BRANCH   1   2
HETATM    2  N   UNK N   1      34.244  16.230   9.708  0.00  0.00    -0.348 N 
HETATM    3  C   UNK N   1      35.370  16.263  10.479  0.00  0.00     0.240 C 
HETATM    4  O   UNK N   1      35.857  17.341  10.770  0.00  0.00    -0.271 OA
HETATM    5  H   UNK N   1      33.930  17.074   9.310  0.00  0.00     0.163 HD
BRANCH   3   6
HETATM    6  C   UNK N   1      36.027  14.967  10.908  0.00  0.00     0.174 C 
HETATM    7  C   UNK N   1      36.887  14.380   9.799  0.00  0.00     0.042 C 
BRANCH   6   8
HETATM    8  N   UNK N   1      35.301  13.883  11.518  0.00  0.00    -0.324 N 
HETATM    9  C   UNK N   1      35.433  13.381  12.761  0.00  0.00     0.361 C 
HETATM   10  O   UNK N   1      34.545  12.689  13.214  0.00  0.00    -0.238 OA
HETATM   11  H   UNK N   1      34.620  13.452  10.952  0.00  0.00     0.165 HD
BRANCH   9  12
HETATM   12  O   UNK N   1      36.582  13.534  13.448  0.00  0.00    -0.299 OA
BRANCH  12  13
HETATM   13  C   UNK N   1      36.686  12.885  14.657  0.00  0.00     0.219 C 
BRANCH  13  14
HETATM   14  C   UNK N   1      36.525  13.816  15.804  0.00  0.00    -0.034 A 
HETATM   15  C   UNK N   1      37.291  14.980  15.842  0.00  0.00     0.009 A 
HETATM   16  C   UNK N   1      37.163  15.863  16.917  0.00  0.00     0.001 A 
HETATM   17  C   UNK N   1      36.264  15.583  17.950  0.00  0.00     0.000 A 
HETATM   18  C   UNK N   1      35.503  14.412  17.918  0.00  0.00     0.001 A 
HETATM   19  C   UNK N   1      35.641  13.526  16.851  0.00  0.00     0.009 A 
ENDBRANCH  13  14
ENDBRANCH  12  13
ENDBRANCH   9  12
ENDBRANCH   6   8
ENDBRANCH   3   6
ENDBRANCH   1   2
BRANCH   1  20
HETATM   20  P   UNK N   1      33.452  14.342   7.658  0.00  0.00     0.257 P 
HETATM   21  O   UNK N   1      32.477  13.136   7.710  0.00  0.00    -0.652 OA
BRANCH  20  22
HETATM   22  O   UNK N   1      34.795  13.549   6.896  0.00  0.00    -0.328 OA
HETATM   23  H   UNK N   1      35.488  13.123   7.424  0.00  0.00     0.220 HD
ENDBRANCH  20  22
BRANCH  20  24
HETATM   24  O   UNK N   1      32.768  15.361   6.410  0.00  0.00    -0.301 OA
BRANCH  24  25
HETATM   25  C   UNK N   1      32.569  16.662   6.904  0.00  0.00     0.233 C 
BRANCH  25  26
HETATM   26  C   UNK N   1      33.703  17.537   6.452  0.00  0.00     0.170 C 
HETATM   27  O   UNK N   1      34.322  18.209   7.261  0.00  0.00    -0.648 OA
BRANCH  26  28
HETATM   28  O   UNK N   1      34.064  17.554   5.154  0.00  0.00    -0.774 OA
HETATM   29  H   UNK N   1      34.433  17.207   4.366  0.00  0.00     0.167 HD
ENDBRANCH  26  28
ENDBRANCH  25  26
BRANCH  25  30
HETATM   30  C   UNK N   1      31.250  17.170   6.329  0.00  0.00     0.082 C 
BRANCH  30  31
HETATM   31  C   UNK N   1      30.238  17.519   7.375  0.00  0.00    -0.055 A 
HETATM   32  C   UNK N   1      28.888  17.244   7.136  0.00  0.00     0.007 A 
HETATM   33  C   UNK N   1      27.924  17.574   8.094  0.00  0.00     0.001 A 
HETATM   34  C   UNK N   1      28.311  18.177   9.295  0.00  0.00     0.000 A 
HETATM   35  C   UNK N   1      29.661  18.450   9.538  0.00  0.00     0.001 A 
HETATM   36  C   UNK N   1      30.622  18.127   8.577  0.00  0.00     0.007 A 
ENDBRANCH  30  31
ENDBRANCH  25  30
ENDBRANCH  24  25
ENDBRANCH  20  24
ENDBRANCH   1  20
TORSDOF 14
ENDMDL
MODEL 6
REMARK VINA RESULT:      -7.2     18.139     21.515
REMARK  14 active torsions:
REMARK  status: ('A' for Active; 'I' for Inactive)
REMARK    1  A    between atoms: C_1  and  O_3 
REMARK       I    between atoms: C_1  and  N_15 
REMARK    2  A    between atoms: O_3  and  C_4 
REMARK    3  A    between atoms: C_4  and  C_5 
REMARK    4  A    between atoms: C_11  and  C_13 
REMARK       I    between atoms: C_11  and  N_17 
REMARK    5  A    between atoms: C_13  and  N_15 
REMARK    6  A    between atoms: C_16  and  N_17 
REMARK    7  A    between atoms: C_16  and  P_18 
REMARK    8  A    between atoms: P_18  and  O_20 
REMARK    9  A    between atoms: P_18  and  O_21 
REMARK   10  A    between atoms: C_22  and  O_21 
REMARK   11  A    between atoms: C_22  and  C_23 
REMARK   12  A    between atoms: C_22  and  C_26 
REMARK   13  A    between atoms: C_23  and  O_25 
REMARK   14  A    between atoms: C_26  and  C_27 
ROOT
HETATM    1  C   UNK N   1      30.245  22.612  -6.735  0.00  0.00     0.247 C 
ENDROOT
BRANCH   1   2
HETATM    2  N   UNK N   1      30.402  21.262  -6.201  0.00  0.00    -0.348 N 
HETATM    3  C   UNK N   1      31.272  20.932  -5.201  0.00  0.00     0.240 C 
HETATM    4  O   UNK N   1      31.440  19.758  -4.925  0.00  0.00    -0.271 OA
HETATM    5  H   UNK N   1      29.846  20.546  -6.586  0.00  0.00     0.163 HD
BRANCH   3   6
HETATM    6  C   UNK N   1      31.964  22.028  -4.417  0.00  0.00     0.174 C 
HETATM    7  C   UNK N   1      33.479  21.899  -4.489  0.00  0.00     0.042 C 
BRANCH   6   8
HETATM    8  N   UNK N   1      31.618  22.361  -3.059  0.00  0.00    -0.324 N 
HETATM    9  C   UNK N   1      30.637  23.173  -2.620  0.00  0.00     0.361 C 
HETATM   10  O   UNK N   1      30.287  23.099  -1.460  0.00  0.00    -0.238 OA
HETATM   11  H   UNK N   1      32.172  21.941  -2.361  0.00  0.00     0.165 HD
BRANCH   9  12
HETATM   12  O   UNK N   1      30.135  24.140  -3.413  0.00  0.00    -0.299 OA
BRANCH  12  13
HETATM   13  C   UNK N   1      30.801  25.345  -3.437  0.00  0.00     0.219 C 
BRANCH  13  14
HETATM   14  C   UNK N   1      30.092  26.355  -4.264  0.00  0.00    -0.034 A 
HETATM   15  C   UNK N   1      29.933  27.647  -3.764  0.00  0.00     0.009 A 
HETATM   16  C   UNK N   1      29.261  28.609  -4.522  0.00  0.00     0.001 A 
HETATM   17  C   UNK N   1      28.753  28.278  -5.782  0.00  0.00     0.000 A 
HETATM   18  C   UNK N   1      28.903  26.981  -6.280  0.00  0.00     0.001 A 
HETATM   19  C   UNK N   1      29.564  26.019  -5.517  0.00  0.00     0.009 A 
ENDBRANCH  13  14
ENDBRANCH  12  13
ENDBRANCH   9  12
ENDBRANCH   6   8
ENDBRANCH   3   6
ENDBRANCH   1   2
BRANCH   1  20
HETATM   20  P   UNK N   1      28.765  22.966  -7.877  0.00  0.00     0.257 P 
HETATM   21  O   UNK N   1      29.029  22.104  -9.139  0.00  0.00    -0.652 OA
BRANCH  20  22
HETATM   22  O   UNK N   1      28.480  24.487  -8.664  0.00  0.00    -0.328 OA
HETATM   23  H   UNK N   1      27.922  24.543  -9.455  0.00  0.00     0.220 HD
ENDBRANCH  20  22
BRANCH  20  24
HETATM   24  O   UNK N   1      27.183  22.434  -7.348  0.00  0.00    -0.301 OA
BRANCH  24  25
HETATM   25  C   UNK N   1      26.307  23.531  -7.268  0.00  0.00     0.233 C 
BRANCH  25  26
HETATM   26  C   UNK N   1      25.192  23.341  -8.256  0.00  0.00     0.170 C 
HETATM   27  O   UNK N   1      25.043  24.130  -9.175  0.00  0.00    -0.648 OA
BRANCH  26  28
HETATM   28  O   UNK N   1      24.374  22.276  -8.150  0.00  0.00    -0.774 OA
HETATM   29  H   UNK N   1      24.158  21.377  -7.998  0.00  0.00     0.167 HD
ENDBRANCH  26  28
ENDBRANCH  25  26
BRANCH  25  30
HETATM   30  C   UNK N   1      25.752  23.567  -5.847  0.00  0.00     0.082 C 
BRANCH  30  31
HETATM   31  C   UNK N   1      25.764  24.933  -5.236  0.00  0.00    -0.055 A 
HETATM   32  C   UNK N   1      26.372  25.117  -3.989  0.00  0.00     0.007 A 
HETATM   33  C   UNK N   1      26.383  26.381  -3.394  0.00  0.00     0.001 A 
HETATM   34  C   UNK N   1      25.790  27.466  -4.047  0.00  0.00     0.000 A 
HETATM   35  C   UNK N   1      25.185  27.286  -5.294  0.00  0.00     0.001 A 
HETATM   36  C   UNK N   1      25.166  26.020  -5.885  0.00  0.00     0.007 A 
ENDBRANCH  30  31
ENDBRANCH  25  30
ENDBRANCH  24  25
ENDBRANCH  20  24
ENDBRANCH   1  20
TORSDOF 14
ENDMDL
MODEL 7
REMARK VINA RESULT:      -7.2     18.022     21.884
REMARK  14 active torsions:
REMARK  status: ('A' for Active; 'I' for Inactive)
REMARK    1  A    between atoms: C_1  and  O_3 
REMARK       I    between atoms: C_1  and  N_15 
REMARK    2  A    between atoms: O_3  and  C_4 
REMARK    3  A    between atoms: C_4  and  C_5 
REMARK    4  A    between atoms: C_11  and  C_13 
REMARK       I    between atoms: C_11  and  N_17 
REMARK    5  A    between atoms: C_13  and  N_15 
REMARK    6  A    between atoms: C_16  and  N_17 
REMARK    7  A    between atoms: C_16  and  P_18 
REMARK    8  A    between atoms: P_18  and  O_20 
REMARK    9  A    between atoms: P_18  and  O_21 
REMARK   10  A    between atoms: C_22  and  O_21 
REMARK   11  A    between atoms: C_22  and  C_23 
REMARK   12  A    between atoms: C_22  and  C_26 
REMARK   13  A    between atoms: C_23  and  O_25 
REMARK   14  A    between atoms: C_26  and  C_27 
ROOT
HETATM    1  C   UNK N   1      29.409  27.069  -5.105  0.00  0.00     0.247 C 
ENDROOT
BRANCH   1   2
HETATM    2  N   UNK N   1      28.685  28.227  -4.588  0.00  0.00    -0.348 N 
HETATM    3  C   UNK N   1      27.324  28.299  -4.499  0.00  0.00     0.240 C 
HETATM    4  O   UNK N   1      26.805  29.358  -4.196  0.00  0.00    -0.271 OA
HETATM    5  H   UNK N   1      29.210  29.003  -4.286  0.00  0.00     0.163 HD
BRANCH   3   6
HETATM    6  C   UNK N   1      26.490  27.053  -4.719  0.00  0.00     0.174 C 
HETATM    7  C   UNK N   1      25.119  27.389  -5.286  0.00  0.00     0.042 C 
BRANCH   6   8
HETATM    8  N   UNK N   1      26.311  26.039  -3.712  0.00  0.00    -0.324 N 
HETATM    9  C   UNK N   1      26.688  24.747  -3.749  0.00  0.00     0.361 C 
HETATM   10  O   UNK N   1      26.741  24.119  -2.712  0.00  0.00    -0.238 OA
HETATM   11  H   UNK N   1      25.852  26.329  -2.891  0.00  0.00     0.165 HD
BRANCH   9  12
HETATM   12  O   UNK N   1      26.881  24.117  -4.925  0.00  0.00    -0.299 OA
BRANCH  12  13
HETATM   13  C   UNK N   1      25.763  23.674  -5.595  0.00  0.00     0.219 C 
BRANCH  13  14
HETATM   14  C   UNK N   1      26.108  22.731  -6.690  0.00  0.00    -0.034 A 
HETATM   15  C   UNK N   1      27.417  22.699  -7.167  0.00  0.00     0.009 A 
HETATM   16  C   UNK N   1      27.759  21.827  -8.204  0.00  0.00     0.001 A 
HETATM   17  C   UNK N   1      26.790  20.985  -8.759  0.00  0.00     0.000 A 
HETATM   18  C   UNK N   1      25.476  21.024  -8.289  0.00  0.00     0.001 A 
HETATM   19  C   UNK N   1      25.134  21.903  -7.262  0.00  0.00     0.009 A 
ENDBRANCH  13  14
ENDBRANCH  12  13
ENDBRANCH   9  12
ENDBRANCH   6   8
ENDBRANCH   3   6
ENDBRANCH   1   2
BRANCH   1  20
HETATM   20  P   UNK N   1      30.834  26.357  -4.064  0.00  0.00     0.257 P 
HETATM   21  O   UNK N   1      31.252  27.519  -3.124  0.00  0.00    -0.652 OA
BRANCH  20  22
HETATM   22  O   UNK N   1      32.404  25.966  -4.694  0.00  0.00    -0.328 OA
HETATM   23  H   UNK N   1      33.196  26.033  -4.139  0.00  0.00     0.220 HD
ENDBRANCH  20  22
BRANCH  20  24
HETATM   24  O   UNK N   1      30.461  25.055  -2.955  0.00  0.00    -0.301 OA
BRANCH  24  25
HETATM   25  C   UNK N   1      30.961  23.839  -3.453  0.00  0.00     0.233 C 
BRANCH  25  26
HETATM   26  C   UNK N   1      31.032  22.842  -2.333  0.00  0.00     0.170 C 
HETATM   27  O   UNK N   1      30.218  22.880  -1.424  0.00  0.00    -0.648 OA
BRANCH  26  28
HETATM   28  O   UNK N   1      31.975  21.880  -2.346  0.00  0.00    -0.774 OA
HETATM   29  H   UNK N   1      32.698  21.389  -2.010  0.00  0.00     0.167 HD
ENDBRANCH  26  28
ENDBRANCH  25  26
BRANCH  25  30
HETATM   30  C   UNK N   1      29.992  23.356  -4.529  0.00  0.00     0.082 C 
BRANCH  30  31
HETATM   31  C   UNK N   1      30.588  22.345  -5.458  0.00  0.00    -0.055 A 
HETATM   32  C   UNK N   1      31.577  22.748  -6.361  0.00  0.00     0.007 A 
HETATM   33  C   UNK N   1      32.137  21.824  -7.247  0.00  0.00     0.001 A 
HETATM   34  C   UNK N   1      31.712  20.492  -7.228  0.00  0.00     0.000 A 
HETATM   35  C   UNK N   1      30.726  20.085  -6.325  0.00  0.00     0.001 A 
HETATM   36  C   UNK N   1      30.160  21.011  -5.445  0.00  0.00     0.007 A 
ENDBRANCH  30  31
ENDBRANCH  25  30
ENDBRANCH  24  25
ENDBRANCH  20  24
ENDBRANCH   1  20
TORSDOF 14
ENDMDL
MODEL 8
REMARK VINA RESULT:      -7.1      1.814     10.004
REMARK  14 active torsions:
REMARK  status: ('A' for Active; 'I' for Inactive)
REMARK    1  A    between atoms: C_1  and  O_3 
REMARK       I    between atoms: C_1  and  N_15 
REMARK    2  A    between atoms: O_3  and  C_4 
REMARK    3  A    between atoms: C_4  and  C_5 
REMARK    4  A    between atoms: C_11  and  C_13 
REMARK       I    between atoms: C_11  and  N_17 
REMARK    5  A    between atoms: C_13  and  N_15 
REMARK    6  A    between atoms: C_16  and  N_17 
REMARK    7  A    between atoms: C_16  and  P_18 
REMARK    8  A    between atoms: P_18  and  O_20 
REMARK    9  A    between atoms: P_18  and  O_21 
REMARK   10  A    between atoms: C_22  and  O_21 
REMARK   11  A    between atoms: C_22  and  C_23 
REMARK   12  A    between atoms: C_22  and  C_26 
REMARK   13  A    between atoms: C_23  and  O_25 
REMARK   14  A    between atoms: C_26  and  C_27 
ROOT
HETATM    1  C   UNK N   1      36.939  12.774  11.536  0.00  0.00     0.247 C 
ENDROOT
BRANCH   1   2
HETATM    2  N   UNK N   1      37.066  14.225  11.438  0.00  0.00    -0.348 N 
HETATM    3  C   UNK N   1      36.462  14.981  10.474  0.00  0.00     0.240 C 
HETATM    4  O   UNK N   1      36.744  16.162  10.383  0.00  0.00    -0.271 OA
HETATM    5  H   UNK N   1      37.620  14.687  12.108  0.00  0.00     0.163 HD
BRANCH   3   6
HETATM    6  C   UNK N   1      35.413  14.355   9.577  0.00  0.00     0.174 C 
HETATM    7  C   UNK N   1      35.619  14.741   8.119  0.00  0.00     0.042 C 
BRANCH   6   8
HETATM    8  N   UNK N   1      34.001  14.425   9.851  0.00  0.00    -0.324 N 
HETATM    9  C   UNK N   1      33.109  15.341   9.427  0.00  0.00     0.361 C 
HETATM   10  O   UNK N   1      31.925  15.083   9.489  0.00  0.00    -0.238 OA
HETATM   11  H   UNK N   1      33.641  13.710  10.426  0.00  0.00     0.165 HD
BRANCH   9  12
HETATM   12  O   UNK N   1      33.510  16.574   9.057  0.00  0.00    -0.299 OA
BRANCH  12  13
HETATM   13  C   UNK N   1      32.545  17.437   8.592  0.00  0.00     0.219 C 
BRANCH  13  14
HETATM   14  C   UNK N   1      32.411  17.378   7.113  0.00  0.00    -0.034 A 
HETATM   15  C   UNK N   1      33.548  17.552   6.324  0.00  0.00     0.009 A 
HETATM   16  C   UNK N   1      33.442  17.510   4.932  0.00  0.00     0.001 A 
HETATM   17  C   UNK N   1      32.199  17.290   4.331  0.00  0.00     0.000 A 
HETATM   18  C   UNK N   1      31.058  17.126   5.119  0.00  0.00     0.001 A 
HETATM   19  C   UNK N   1      31.164  17.179   6.509  0.00  0.00     0.009 A 
ENDBRANCH  13  14
ENDBRANCH  12  13
ENDBRANCH   9  12
ENDBRANCH   6   8
ENDBRANCH   3   6
ENDBRANCH   1   2
BRANCH   1  20
HETATM   20  P   UNK N   1      35.390  12.057  12.377  0.00  0.00     0.257 P 
HETATM   21  O   UNK N   1      35.862  10.710  12.985  0.00  0.00    -0.652 OA
BRANCH  20  22
HETATM   22  O   UNK N   1      33.997  11.473  11.521  0.00  0.00    -0.328 OA
HETATM   23  H   UNK N   1      34.076  11.109  10.626  0.00  0.00     0.220 HD
ENDBRANCH  20  22
BRANCH  20  24
HETATM   24  O   UNK N   1      34.740  12.917  13.755  0.00  0.00    -0.301 OA
BRANCH  24  25
HETATM   25  C   UNK N   1      35.482  12.611  14.909  0.00  0.00     0.233 C 
BRANCH  25  26
HETATM   26  C   UNK N   1      36.782  13.362  14.870  0.00  0.00     0.170 C 
HETATM   27  O   UNK N   1      37.832  12.786  15.104  0.00  0.00    -0.648 OA
BRANCH  26  28
HETATM   28  O   UNK N   1      36.795  14.668  14.540  0.00  0.00    -0.774 OA
HETATM   29  H   UNK N   1      36.673  15.408  13.979  0.00  0.00     0.167 HD
ENDBRANCH  26  28
ENDBRANCH  25  26
BRANCH  25  30
HETATM   30  C   UNK N   1      34.654  13.054  16.113  0.00  0.00     0.082 C 
BRANCH  30  31
HETATM   31  C   UNK N   1      35.072  12.407  17.395  0.00  0.00    -0.055 A 
HETATM   32  C   UNK N   1      35.424  11.053  17.393  0.00  0.00     0.007 A 
HETATM   33  C   UNK N   1      35.804  10.425  18.583  0.00  0.00     0.001 A 
HETATM   34  C   UNK N   1      35.839  11.152  19.777  0.00  0.00     0.000 A 
HETATM   35  C   UNK N   1      35.491  12.507  19.781  0.00  0.00     0.001 A 
HETATM   36  C   UNK N   1      35.103  13.132  18.594  0.00  0.00     0.007 A 
ENDBRANCH  30  31
ENDBRANCH  25  30
ENDBRANCH  24  25
ENDBRANCH  20  24
ENDBRANCH   1  20
TORSDOF 14
ENDMDL
MODEL 9
REMARK VINA RESULT:      -7.1     18.115     22.456
REMARK  14 active torsions:
REMARK  status: ('A' for Active; 'I' for Inactive)
REMARK    1  A    between atoms: C_1  and  O_3 
REMARK       I    between atoms: C_1  and  N_15 
REMARK    2  A    between atoms: O_3  and  C_4 
REMARK    3  A    between atoms: C_4  and  C_5 
REMARK    4  A    between atoms: C_11  and  C_13 
REMARK       I    between atoms: C_11  and  N_17 
REMARK    5  A    between atoms: C_13  and  N_15 
REMARK    6  A    between atoms: C_16  and  N_17 
REMARK    7  A    between atoms: C_16  and  P_18 
REMARK    8  A    between atoms: P_18  and  O_20 
REMARK    9  A    between atoms: P_18  and  O_21 
REMARK   10  A    between atoms: C_22  and  O_21 
REMARK   11  A    between atoms: C_22  and  C_23 
REMARK   12  A    between atoms: C_22  and  C_26 
REMARK   13  A    between atoms: C_23  and  O_25 
REMARK   14  A    between atoms: C_26  and  C_27 
ROOT
HETATM    1  C   UNK N   1      28.789  24.163  -6.183  0.00  0.00     0.247 C 
ENDROOT
BRANCH   1   2
HETATM    2  N   UNK N   1      27.334  24.109  -6.286  0.00  0.00    -0.348 N 
HETATM    3  C   UNK N   1      26.485  24.383  -5.251  0.00  0.00     0.240 C 
HETATM    4  O   UNK N   1      25.294  24.168  -5.390  0.00  0.00    -0.271 OA
HETATM    5  H   UNK N   1      26.941  23.861  -7.153  0.00  0.00     0.163 HD
BRANCH   3   6
HETATM    6  C   UNK N   1      27.027  25.002  -3.979  0.00  0.00     0.174 C 
HETATM    7  C   UNK N   1      27.453  23.939  -2.976  0.00  0.00     0.042 C 
BRANCH   6   8
HETATM    8  N   UNK N   1      26.337  26.036  -3.252  0.00  0.00    -0.324 N 
HETATM    9  C   UNK N   1      26.300  27.358  -3.510  0.00  0.00     0.361 C 
HETATM   10  O   UNK N   1      25.434  28.034  -2.996  0.00  0.00    -0.238 OA
HETATM   11  H   UNK N   1      25.828  25.739  -2.464  0.00  0.00     0.165 HD
BRANCH   9  12
HETATM   12  O   UNK N   1      27.278  27.949  -4.225  0.00  0.00    -0.299 OA
BRANCH  12  13
HETATM   13  C   UNK N   1      26.900  28.896  -5.150  0.00  0.00     0.219 C 
BRANCH  13  14
HETATM   14  C   UNK N   1      27.753  28.857  -6.366  0.00  0.00    -0.034 A 
HETATM   15  C   UNK N   1      27.649  27.768  -7.230  0.00  0.00     0.009 A 
HETATM   16  C   UNK N   1      28.449  27.707  -8.373  0.00  0.00     0.001 A 
HETATM   17  C   UNK N   1      29.350  28.740  -8.653  0.00  0.00     0.000 A 
HETATM   18  C   UNK N   1      29.463  29.826  -7.782  0.00  0.00     0.001 A 
HETATM   19  C   UNK N   1      28.671  29.879  -6.636  0.00  0.00     0.009 A 
ENDBRANCH  13  14
ENDBRANCH  12  13
ENDBRANCH   9  12
ENDBRANCH   6   8
ENDBRANCH   3   6
ENDBRANCH   1   2
BRANCH   1  20
HETATM   20  P   UNK N   1      29.769  22.542  -6.373  0.00  0.00     0.257 P 
HETATM   21  O   UNK N   1      30.752  22.814  -7.541  0.00  0.00    -0.652 OA
BRANCH  20  22
HETATM   22  O   UNK N   1      29.090  21.054  -6.953  0.00  0.00    -0.328 OA
HETATM   23  H   UNK N   1      29.364  20.201  -6.581  0.00  0.00     0.220 HD
ENDBRANCH  20  22
BRANCH  20  24
HETATM   24  O   UNK N   1      30.823  22.070  -5.058  0.00  0.00    -0.301 OA
BRANCH  24  25
HETATM   25  C   UNK N   1      30.845  23.072  -4.072  0.00  0.00     0.233 C 
BRANCH  25  26
HETATM   26  C   UNK N   1      31.041  22.433  -2.728  0.00  0.00     0.170 C 
HETATM   27  O   UNK N   1      30.689  23.014  -1.714  0.00  0.00    -0.648 OA
BRANCH  26  28
HETATM   28  O   UNK N   1      31.573  21.199  -2.640  0.00  0.00    -0.774 OA
HETATM   29  H   UNK N   1      32.012  20.486  -2.219  0.00  0.00     0.167 HD
ENDBRANCH  26  28
ENDBRANCH  25  26
BRANCH  25  30
HETATM   30  C   UNK N   1      32.016  23.998  -4.392  0.00  0.00     0.082 C 
BRANCH  30  31
HETATM   31  C   UNK N   1      31.633  25.442  -4.461  0.00  0.00    -0.055 A 
HETATM   32  C   UNK N   1      32.054  26.208  -5.554  0.00  0.00     0.007 A 
HETATM   33  C   UNK N   1      31.719  27.562  -5.633  0.00  0.00     0.001 A 
HETATM   34  C   UNK N   1      30.957  28.153  -4.620  0.00  0.00     0.000 A 
HETATM   35  C   UNK N   1      30.532  27.390  -3.528  0.00  0.00     0.001 A 
HETATM   36  C   UNK N   1      30.874  26.038  -3.446  0.00  0.00     0.007 A 
ENDBRANCH  30  31
ENDBRANCH  25  30
ENDBRANCH  24  25
ENDBRANCH  20  24
ENDBRANCH   1  20
TORSDOF 14
ENDMDL
