MODEL 1
REMARK VINA RESULT:      -5.5      0.000      0.000
REMARK  9 active torsions:
REMARK  status: ('A' for Active; 'I' for Inactive)
REMARK    1  A    between atoms: C_2  and  N_1 
REMARK    2  A    between atoms: C_2  and  C_3 
REMARK    3  A    between atoms: C_2  and  C_4 
REMARK    4  A    between atoms: C_3  and  C_12 
REMARK    5  A    between atoms: C_4  and  C_5 
REMARK    6  A    between atoms: C_10  and  O_11 
REMARK    7  A    between atoms: C_12  and  C_13 
REMARK    8  A    between atoms: C_13  and  O_14 
REMARK    9  A    between atoms: C_13  and  N_15 
ROOT
HETATM    1  C   UNK N   1      35.307  12.904  13.794  0.00  0.00     0.078 C 
ENDROOT
BRANCH   1   2
HETATM    2  N   UNK N   1      34.424  12.093  12.971  0.00  0.00    -0.426 N 
HETATM    3  H   UNK N   1      33.561  11.750  12.552  0.00  0.00     0.150 HD
HETATM    4  H   UNK N   1      35.102  11.469  12.534  0.00  0.00     0.150 HD
ENDBRANCH   1   2
BRANCH   1   5
HETATM    5  C   UNK N   1      36.269  13.685  12.903  0.00  0.00     0.029 C 
BRANCH   5   6
HETATM    6  C   UNK N   1      35.863  15.140  12.682  0.00  0.00     0.055 C 
BRANCH   6   7
HETATM    7  C   UNK N   1      35.117  15.315  11.366  0.00  0.00     0.211 C 
BRANCH   7   8
HETATM    8  O   UNK N   1      33.810  14.834  11.473  0.00  0.00    -0.377 OA
HETATM    9  H   UNK N   1      33.058  14.534  12.006  0.00  0.00     0.212 HD
ENDBRANCH   7   8
BRANCH   7  10
HETATM   10  N   UNK N   1      35.077  16.725  11.025  0.00  0.00    -0.406 N 
HETATM   11  H   UNK N   1      35.561  17.451  11.553  0.00  0.00     0.152 HD
HETATM   12  H   UNK N   1      34.531  17.007  10.210  0.00  0.00     0.152 HD
ENDBRANCH   7  10
ENDBRANCH   6   7
ENDBRANCH   5   6
ENDBRANCH   1   5
BRANCH   1  13
HETATM   13  C   UNK N   1      36.058  12.016  14.795  0.00  0.00     0.063 C 
BRANCH  13  14
HETATM   14  C   UNK N   1      35.786  12.298  16.249  0.00  0.00    -0.056 A 
HETATM   15  C   UNK N   1      35.582  13.624  16.651  0.00  0.00     0.010 A 
HETATM   16  C   UNK N   1      35.289  13.922  17.984  0.00  0.00     0.037 A 
HETATM   17  C   UNK N   1      35.189  12.894  18.927  0.00  0.00     0.065 A 
HETATM   18  C   UNK N   1      35.393  11.567  18.535  0.00  0.00     0.037 A 
HETATM   19  C   UNK N   1      35.689  11.270  17.203  0.00  0.00     0.010 A 
BRANCH  17  20
HETATM   20  O   UNK N   1      34.896  13.178  20.204  0.00  0.00    -0.361 OA
HETATM   21  H   UNK N   1      34.925  14.064  20.509  0.00  0.00     0.217 HD
ENDBRANCH  17  20
ENDBRANCH  13  14
ENDBRANCH   1  13
TORSDOF 9
ENDMDL
MODEL 2
REMARK VINA RESULT:      -5.4      9.777     11.763
REMARK  9 active torsions:
REMARK  status: ('A' for Active; 'I' for Inactive)
REMARK    1  A    between atoms: C_2  and  N_1 
REMARK    2  A    between atoms: C_2  and  C_3 
REMARK    3  A    between atoms: C_2  and  C_4 
REMARK    4  A    between atoms: C_3  and  C_12 
REMARK    5  A    between atoms: C_4  and  C_5 
REMARK    6  A    between atoms: C_10  and  O_11 
REMARK    7  A    between atoms: C_12  and  C_13 
REMARK    8  A    between atoms: C_13  and  O_14 
REMARK    9  A    between atoms: C_13  and  N_15 
ROOT
HETATM    1  C   UNK N   1      28.498  18.585   8.103  0.00  0.00     0.078 C 
ENDROOT
BRANCH   1   2
HETATM    2  N   UNK N   1      27.448  18.474   9.103  0.00  0.00    -0.426 N 
HETATM    3  H   UNK N   1      26.679  18.752   9.713  0.00  0.00     0.150 HD
HETATM    4  H   UNK N   1      27.539  17.490   9.357  0.00  0.00     0.150 HD
ENDBRANCH   1   2
BRANCH   1   5
HETATM    5  C   UNK N   1      27.898  19.029   6.773  0.00  0.00     0.029 C 
BRANCH   5   6
HETATM    6  C   UNK N   1      27.769  20.543   6.627  0.00  0.00     0.055 C 
BRANCH   6   7
HETATM    7  C   UNK N   1      26.309  20.977   6.601  0.00  0.00     0.211 C 
BRANCH   7   8
HETATM    8  O   UNK N   1      25.508  19.977   6.047  0.00  0.00    -0.377 OA
HETATM    9  H   UNK N   1      24.941  19.641   5.336  0.00  0.00     0.212 HD
ENDBRANCH   7   8
BRANCH   7  10
HETATM   10  N   UNK N   1      25.868  21.242   7.958  0.00  0.00    -0.406 N 
HETATM   11  H   UNK N   1      25.088  21.857   8.192  0.00  0.00     0.152 HD
HETATM   12  H   UNK N   1      26.367  20.788   8.723  0.00  0.00     0.152 HD
ENDBRANCH   7  10
ENDBRANCH   6   7
ENDBRANCH   5   6
ENDBRANCH   1   5
BRANCH   1  13
HETATM   13  C   UNK N   1      29.242  17.249   7.970  0.00  0.00     0.063 C 
BRANCH  13  14
HETATM   14  C   UNK N   1      30.699  17.350   7.603  0.00  0.00    -0.056 A 
HETATM   15  C   UNK N   1      31.095  16.980   6.312  0.00  0.00     0.010 A 
HETATM   16  C   UNK N   1      32.433  17.096   5.922  0.00  0.00     0.037 A 
HETATM   17  C   UNK N   1      33.385  17.588   6.819  0.00  0.00     0.065 A 
HETATM   18  C   UNK N   1      32.999  17.957   8.112  0.00  0.00     0.037 A 
HETATM   19  C   UNK N   1      31.663  17.839   8.502  0.00  0.00     0.010 A 
BRANCH  17  20
HETATM   20  O   UNK N   1      34.666  17.710   6.442  0.00  0.00    -0.361 OA
HETATM   21  H   UNK N   1      35.351  17.359   6.977  0.00  0.00     0.217 HD
ENDBRANCH  17  20
ENDBRANCH  13  14
ENDBRANCH   1  13
TORSDOF 9
ENDMDL
MODEL 3
REMARK VINA RESULT:      -5.3      1.955      2.012
REMARK  9 active torsions:
REMARK  status: ('A' for Active; 'I' for Inactive)
REMARK    1  A    between atoms: C_2  and  N_1 
REMARK    2  A    between atoms: C_2  and  C_3 
REMARK    3  A    between atoms: C_2  and  C_4 
REMARK    4  A    between atoms: C_3  and  C_12 
REMARK    5  A    between atoms: C_4  and  C_5 
REMARK    6  A    between atoms: C_10  and  O_11 
REMARK    7  A    between atoms: C_12  and  C_13 
REMARK    8  A    between atoms: C_13  and  O_14 
REMARK    9  A    between atoms: C_13  and  N_15 
ROOT
HETATM    1  C   UNK N   1      36.625  13.442  14.526  0.00  0.00     0.078 C 
ENDROOT
BRANCH   1   2
HETATM    2  N   UNK N   1      37.133  14.764  14.856  0.00  0.00    -0.426 N 
HETATM    3  H   UNK N   1      37.801  15.521  14.996  0.00  0.00     0.150 HD
HETATM    4  H   UNK N   1      36.265  15.235  15.113  0.00  0.00     0.150 HD
ENDBRANCH   1   2
BRANCH   1   5
HETATM    5  C   UNK N   1      36.501  13.303  13.011  0.00  0.00     0.029 C 
BRANCH   5   6
HETATM    6  C   UNK N   1      35.864  14.511  12.329  0.00  0.00     0.055 C 
BRANCH   6   7
HETATM    7  C   UNK N   1      36.498  14.780  10.970  0.00  0.00     0.211 C 
BRANCH   7   8
HETATM    8  O   UNK N   1      36.897  16.114  10.867  0.00  0.00    -0.377 OA
HETATM    9  H   UNK N   1      36.991  17.002  11.245  0.00  0.00     0.212 HD
ENDBRANCH   7   8
BRANCH   7  10
HETATM   10  N   UNK N   1      37.658  13.923  10.809  0.00  0.00    -0.406 N 
HETATM   11  H   UNK N   1      38.478  14.175  10.257  0.00  0.00     0.152 HD
HETATM   12  H   UNK N   1      37.653  13.015  11.274  0.00  0.00     0.152 HD
ENDBRANCH   7  10
ENDBRANCH   6   7
ENDBRANCH   5   6
ENDBRANCH   1   5
BRANCH   1  13
HETATM   13  C   UNK N   1      35.283  13.202  15.228  0.00  0.00     0.063 C 
BRANCH  13  14
HETATM   14  C   UNK N   1      35.370  12.712  16.649  0.00  0.00    -0.056 A 
HETATM   15  C   UNK N   1      35.130  13.618  17.689  0.00  0.00     0.010 A 
HETATM   16  C   UNK N   1      35.164  13.192  19.020  0.00  0.00     0.037 A 
HETATM   17  C   UNK N   1      35.432  11.853  19.322  0.00  0.00     0.065 A 
HETATM   18  C   UNK N   1      35.674  10.942  18.289  0.00  0.00     0.037 A 
HETATM   19  C   UNK N   1      35.643  11.368  16.960  0.00  0.00     0.010 A 
BRANCH  17  20
HETATM   20  O   UNK N   1      35.452  11.443  20.598  0.00  0.00    -0.361 OA
HETATM   21  H   UNK N   1      34.685  11.521  21.131  0.00  0.00     0.217 HD
ENDBRANCH  17  20
ENDBRANCH  13  14
ENDBRANCH   1  13
TORSDOF 9
ENDMDL
MODEL 4
REMARK VINA RESULT:      -5.2      9.750     11.673
REMARK  9 active torsions:
REMARK  status: ('A' for Active; 'I' for Inactive)
REMARK    1  A    between atoms: C_2  and  N_1 
REMARK    2  A    between atoms: C_2  and  C_3 
REMARK    3  A    between atoms: C_2  and  C_4 
REMARK    4  A    between atoms: C_3  and  C_12 
REMARK    5  A    between atoms: C_4  and  C_5 
REMARK    6  A    between atoms: C_10  and  O_11 
REMARK    7  A    between atoms: C_12  and  C_13 
REMARK    8  A    between atoms: C_13  and  O_14 
REMARK    9  A    between atoms: C_13  and  N_15 
ROOT
HETATM    1  C   UNK N   1      28.472  18.717   7.930  0.00  0.00     0.078 C 
ENDROOT
BRANCH   1   2
HETATM    2  N   UNK N   1      27.543  18.539   9.034  0.00  0.00    -0.426 N 
HETATM    3  H   UNK N   1      27.187  18.238   9.941  0.00  0.00     0.150 HD
HETATM    4  H   UNK N   1      26.726  19.026   8.668  0.00  0.00     0.150 HD
ENDBRANCH   1   2
BRANCH   1   5
HETATM    5  C   UNK N   1      27.734  19.290   6.723  0.00  0.00     0.029 C 
BRANCH   5   6
HETATM    6  C   UNK N   1      27.360  18.245   5.675  0.00  0.00     0.055 C 
BRANCH   6   7
HETATM    7  C   UNK N   1      27.761  18.694   4.275  0.00  0.00     0.211 C 
BRANCH   7   8
HETATM    8  O   UNK N   1      28.449  19.908   4.326  0.00  0.00    -0.377 OA
HETATM    9  H   UNK N   1      28.504  20.860   4.147  0.00  0.00     0.212 HD
ENDBRANCH   7   8
BRANCH   7  10
HETATM   10  N   UNK N   1      28.618  17.687   3.680  0.00  0.00    -0.406 N 
HETATM   11  H   UNK N   1      29.338  17.177   4.193  0.00  0.00     0.152 HD
HETATM   12  H   UNK N   1      28.495  17.476   2.689  0.00  0.00     0.152 HD
ENDBRANCH   7  10
ENDBRANCH   6   7
ENDBRANCH   5   6
ENDBRANCH   1   5
BRANCH   1  13
HETATM   13  C   UNK N   1      29.155  17.385   7.595  0.00  0.00     0.063 C 
BRANCH  13  14
HETATM   14  C   UNK N   1      30.646  17.451   7.391  0.00  0.00    -0.056 A 
HETATM   15  C   UNK N   1      31.169  17.117   6.136  0.00  0.00     0.010 A 
HETATM   16  C   UNK N   1      32.543  17.203   5.896  0.00  0.00     0.037 A 
HETATM   17  C   UNK N   1      33.407  17.630   6.910  0.00  0.00     0.065 A 
HETATM   18  C   UNK N   1      32.893  17.963   8.167  0.00  0.00     0.037 A 
HETATM   19  C   UNK N   1      31.520  17.875   8.407  0.00  0.00     0.010 A 
BRANCH  17  20
HETATM   20  O   UNK N   1      34.723  17.724   6.677  0.00  0.00    -0.361 OA
HETATM   21  H   UNK N   1      35.336  17.331   7.268  0.00  0.00     0.217 HD
ENDBRANCH  17  20
ENDBRANCH  13  14
ENDBRANCH   1  13
TORSDOF 9
ENDMDL
MODEL 5
REMARK VINA RESULT:      -5.1      6.076      9.496
REMARK  9 active torsions:
REMARK  status: ('A' for Active; 'I' for Inactive)
REMARK    1  A    between atoms: C_2  and  N_1 
REMARK    2  A    between atoms: C_2  and  C_3 
REMARK    3  A    between atoms: C_2  and  C_4 
REMARK    4  A    between atoms: C_3  and  C_12 
REMARK    5  A    between atoms: C_4  and  C_5 
REMARK    6  A    between atoms: C_10  and  O_11 
REMARK    7  A    between atoms: C_12  and  C_13 
REMARK    8  A    between atoms: C_13  and  O_14 
REMARK    9  A    between atoms: C_13  and  N_15 
ROOT
HETATM    1  C   UNK N   1      33.644  17.253   8.439  0.00  0.00     0.078 C 
ENDROOT
BRANCH   1   2
HETATM    2  N   UNK N   1      34.618  18.332   8.484  0.00  0.00    -0.426 N 
HETATM    3  H   UNK N   1      35.522  18.803   8.441  0.00  0.00     0.150 HD
HETATM    4  H   UNK N   1      34.008  19.122   8.694  0.00  0.00     0.150 HD
ENDBRANCH   1   2
BRANCH   1   5
HETATM    5  C   UNK N   1      34.352  15.932   8.154  0.00  0.00     0.029 C 
BRANCH   5   6
HETATM    6  C   UNK N   1      33.654  14.715   8.756  0.00  0.00     0.055 C 
BRANCH   6   7
HETATM    7  C   UNK N   1      34.074  14.493  10.203  0.00  0.00     0.211 C 
BRANCH   7   8
HETATM    8  O   UNK N   1      33.114  15.007  11.078  0.00  0.00    -0.377 OA
HETATM    9  H   UNK N   1      32.259  15.433  11.243  0.00  0.00     0.212 HD
ENDBRANCH   7   8
BRANCH   7  10
HETATM   10  N   UNK N   1      34.220  13.069  10.444  0.00  0.00    -0.406 N 
HETATM   11  H   UNK N   1      34.871  12.471   9.934  0.00  0.00     0.152 HD
HETATM   12  H   UNK N   1      33.638  12.642  11.164  0.00  0.00     0.152 HD
ENDBRANCH   7  10
ENDBRANCH   6   7
ENDBRANCH   5   6
ENDBRANCH   1   5
BRANCH   1  13
HETATM   13  C   UNK N   1      32.570  17.557   7.386  0.00  0.00     0.063 C 
BRANCH  13  14
HETATM   14  C   UNK N   1      31.162  17.677   7.908  0.00  0.00    -0.056 A 
HETATM   15  C   UNK N   1      30.939  18.409   9.081  0.00  0.00     0.010 A 
HETATM   16  C   UNK N   1      29.642  18.575   9.575  0.00  0.00     0.037 A 
HETATM   17  C   UNK N   1      28.555  18.014   8.896  0.00  0.00     0.065 A 
HETATM   18  C   UNK N   1      28.770  17.280   7.725  0.00  0.00     0.037 A 
HETATM   19  C   UNK N   1      30.066  17.112   7.233  0.00  0.00     0.010 A 
BRANCH  17  20
HETATM   20  O   UNK N   1      27.311  18.184   9.363  0.00  0.00    -0.361 OA
HETATM   21  H   UNK N   1      26.578  17.839   8.890  0.00  0.00     0.217 HD
ENDBRANCH  17  20
ENDBRANCH  13  14
ENDBRANCH   1  13
TORSDOF 9
ENDMDL
MODEL 6
REMARK VINA RESULT:      -5.1      6.071     10.402
REMARK  9 active torsions:
REMARK  status: ('A' for Active; 'I' for Inactive)
REMARK    1  A    between atoms: C_2  and  N_1 
REMARK    2  A    between atoms: C_2  and  C_3 
REMARK    3  A    between atoms: C_2  and  C_4 
REMARK    4  A    between atoms: C_3  and  C_12 
REMARK    5  A    between atoms: C_4  and  C_5 
REMARK    6  A    between atoms: C_10  and  O_11 
REMARK    7  A    between atoms: C_12  and  C_13 
REMARK    8  A    between atoms: C_13  and  O_14 
REMARK    9  A    between atoms: C_13  and  N_15 
ROOT
HETATM    1  C   UNK N   1      32.623  15.574   8.907  0.00  0.00     0.078 C 
ENDROOT
BRANCH   1   2
HETATM    2  N   UNK N   1      31.956  15.249  10.158  0.00  0.00    -0.426 N 
HETATM    3  H   UNK N   1      31.579  15.372  11.097  0.00  0.00     0.150 HD
HETATM    4  H   UNK N   1      31.705  14.276   9.985  0.00  0.00     0.150 HD
ENDBRANCH   1   2
BRANCH   1   5
HETATM    5  C   UNK N   1      34.134  15.464   9.086  0.00  0.00     0.029 C 
BRANCH   5   6
HETATM    6  C   UNK N   1      34.574  15.279  10.537  0.00  0.00     0.055 C 
BRANCH   6   7
HETATM    7  C   UNK N   1      35.502  16.402  10.984  0.00  0.00     0.211 C 
BRANCH   7   8
HETATM    8  O   UNK N   1      36.837  16.003  10.892  0.00  0.00    -0.377 OA
HETATM    9  H   UNK N   1      37.613  15.754  10.367  0.00  0.00     0.212 HD
ENDBRANCH   7   8
BRANCH   7  10
HETATM   10  N   UNK N   1      35.293  17.559  10.133  0.00  0.00    -0.406 N 
HETATM   11  H   UNK N   1      34.635  18.309  10.346  0.00  0.00     0.152 HD
HETATM   12  H   UNK N   1      35.835  17.626   9.272  0.00  0.00     0.152 HD
ENDBRANCH   7  10
ENDBRANCH   6   7
ENDBRANCH   5   6
ENDBRANCH   1   5
BRANCH   1  13
HETATM   13  C   UNK N   1      32.210  16.975   8.437  0.00  0.00     0.063 C 
BRANCH  13  14
HETATM   14  C   UNK N   1      32.062  17.145   6.948  0.00  0.00    -0.056 A 
HETATM   15  C   UNK N   1      33.206  17.405   6.184  0.00  0.00     0.010 A 
HETATM   16  C   UNK N   1      33.115  17.531   4.795  0.00  0.00     0.037 A 
HETATM   17  C   UNK N   1      31.878  17.392   4.157  0.00  0.00     0.065 A 
HETATM   18  C   UNK N   1      30.730  17.134   4.913  0.00  0.00     0.037 A 
HETATM   19  C   UNK N   1      30.821  17.011   6.302  0.00  0.00     0.010 A 
BRANCH  17  20
HETATM   20  O   UNK N   1      31.793  17.500   2.824  0.00  0.00    -0.361 OA
HETATM   21  H   UNK N   1      31.930  16.750   2.280  0.00  0.00     0.217 HD
ENDBRANCH  17  20
ENDBRANCH  13  14
ENDBRANCH   1  13
TORSDOF 9
ENDMDL
MODEL 7
REMARK VINA RESULT:      -5.0     13.832     15.261
REMARK  9 active torsions:
REMARK  status: ('A' for Active; 'I' for Inactive)
REMARK    1  A    between atoms: C_2  and  N_1 
REMARK    2  A    between atoms: C_2  and  C_3 
REMARK    3  A    between atoms: C_2  and  C_4 
REMARK    4  A    between atoms: C_3  and  C_12 
REMARK    5  A    between atoms: C_4  and  C_5 
REMARK    6  A    between atoms: C_10  and  O_11 
REMARK    7  A    between atoms: C_12  and  C_13 
REMARK    8  A    between atoms: C_13  and  O_14 
REMARK    9  A    between atoms: C_13  and  N_15 
ROOT
HETATM    1  C   UNK N   1      20.716  14.241   7.525  0.00  0.00     0.078 C 
ENDROOT
BRANCH   1   2
HETATM    2  N   UNK N   1      21.580  15.002   6.637  0.00  0.00    -0.426 N 
HETATM    3  H   UNK N   1      21.962  15.376   5.768  0.00  0.00     0.150 HD
HETATM    4  H   UNK N   1      22.202  15.440   7.316  0.00  0.00     0.150 HD
ENDBRANCH   1   2
BRANCH   1   5
HETATM    5  C   UNK N   1      20.548  14.989   8.845  0.00  0.00     0.029 C 
BRANCH   5   6
HETATM    6  C   UNK N   1      20.398  16.500   8.684  0.00  0.00     0.055 C 
BRANCH   6   7
HETATM    7  C   UNK N   1      18.933  16.918   8.703  0.00  0.00     0.211 C 
BRANCH   7   8
HETATM    8  O   UNK N   1      18.160  15.972   9.377  0.00  0.00    -0.377 OA
HETATM    9  H   UNK N   1      18.053  15.303  10.071  0.00  0.00     0.212 HD
ENDBRANCH   7   8
BRANCH   7  10
HETATM   10  N   UNK N   1      18.812  18.198   9.377  0.00  0.00    -0.406 N 
HETATM   11  H   UNK N   1      18.556  19.066   8.907  0.00  0.00     0.152 HD
HETATM   12  H   UNK N   1      18.995  18.231  10.380  0.00  0.00     0.152 HD
ENDBRANCH   7  10
ENDBRANCH   6   7
ENDBRANCH   5   6
ENDBRANCH   1   5
BRANCH   1  13
HETATM   13  C   UNK N   1      21.289  12.835   7.742  0.00  0.00     0.063 C 
BRANCH  13  14
HETATM   14  C   UNK N   1      22.322  12.713   8.831  0.00  0.00    -0.056 A 
HETATM   15  C   UNK N   1      21.931  12.213  10.078  0.00  0.00     0.010 A 
HETATM   16  C   UNK N   1      22.869  12.049  11.101  0.00  0.00     0.037 A 
HETATM   17  C   UNK N   1      24.210  12.379  10.883  0.00  0.00     0.065 A 
HETATM   18  C   UNK N   1      24.610  12.881   9.640  0.00  0.00     0.037 A 
HETATM   19  C   UNK N   1      23.672  13.048   8.619  0.00  0.00     0.010 A 
BRANCH  17  20
HETATM   20  O   UNK N   1      25.112  12.210  11.860  0.00  0.00    -0.361 OA
HETATM   21  H   UNK N   1      24.855  11.836  12.680  0.00  0.00     0.217 HD
ENDBRANCH  17  20
ENDBRANCH  13  14
ENDBRANCH   1  13
TORSDOF 9
ENDMDL
MODEL 8
REMARK VINA RESULT:      -4.9      2.413      3.130
REMARK  9 active torsions:
REMARK  status: ('A' for Active; 'I' for Inactive)
REMARK    1  A    between atoms: C_2  and  N_1 
REMARK    2  A    between atoms: C_2  and  C_3 
REMARK    3  A    between atoms: C_2  and  C_4 
REMARK    4  A    between atoms: C_3  and  C_12 
REMARK    5  A    between atoms: C_4  and  C_5 
REMARK    6  A    between atoms: C_10  and  O_11 
REMARK    7  A    between atoms: C_12  and  C_13 
REMARK    8  A    between atoms: C_13  and  O_14 
REMARK    9  A    between atoms: C_13  and  N_15 
ROOT
HETATM    1  C   UNK N   1      36.475  13.159  14.860  0.00  0.00     0.078 C 
ENDROOT
BRANCH   1   2
HETATM    2  N   UNK N   1      36.830  14.431  14.252  0.00  0.00    -0.426 N 
HETATM    3  H   UNK N   1      36.779  15.239  13.632  0.00  0.00     0.150 HD
HETATM    4  H   UNK N   1      37.664  14.666  14.791  0.00  0.00     0.150 HD
ENDBRANCH   1   2
BRANCH   1   5
HETATM    5  C   UNK N   1      36.225  12.120  13.770  0.00  0.00     0.029 C 
BRANCH   5   6
HETATM    6  C   UNK N   1      34.785  12.088  13.265  0.00  0.00     0.055 C 
BRANCH   6   7
HETATM    7  C   UNK N   1      34.161  10.711  13.453  0.00  0.00     0.211 C 
BRANCH   7   8
HETATM    8  O   UNK N   1      33.182  10.745  14.448  0.00  0.00    -0.377 OA
HETATM    9  H   UNK N   1      32.716  10.335  15.194  0.00  0.00     0.212 HD
ENDBRANCH   7   8
BRANCH   7  10
HETATM   10  N   UNK N   1      33.554  10.290  12.204  0.00  0.00    -0.406 N 
HETATM   11  H   UNK N   1      32.582   9.991  12.117  0.00  0.00     0.152 HD
HETATM   12  H   UNK N   1      34.132  10.292  11.364  0.00  0.00     0.152 HD
ENDBRANCH   7  10
ENDBRANCH   6   7
ENDBRANCH   5   6
ENDBRANCH   1   5
BRANCH   1  13
HETATM   13  C   UNK N   1      35.251  13.331  15.768  0.00  0.00     0.063 C 
BRANCH  13  14
HETATM   14  C   UNK N   1      35.343  12.672  17.118  0.00  0.00    -0.056 A 
HETATM   15  C   UNK N   1      35.170  13.457  18.264  0.00  0.00     0.010 A 
HETATM   16  C   UNK N   1      35.210  12.874  19.534  0.00  0.00     0.037 A 
HETATM   17  C   UNK N   1      35.418  11.498  19.668  0.00  0.00     0.065 A 
HETATM   18  C   UNK N   1      35.595  10.706  18.529  0.00  0.00     0.037 A 
HETATM   19  C   UNK N   1      35.557  11.289  17.260  0.00  0.00     0.010 A 
BRANCH  17  20
HETATM   20  O   UNK N   1      35.445  10.936  20.885  0.00  0.00    -0.361 OA
HETATM   21  H   UNK N   1      35.135  10.060  21.007  0.00  0.00     0.217 HD
ENDBRANCH  17  20
ENDBRANCH  13  14
ENDBRANCH   1  13
TORSDOF 9
ENDMDL
MODEL 9
REMARK VINA RESULT:      -4.9      7.435     10.952
REMARK  9 active torsions:
REMARK  status: ('A' for Active; 'I' for Inactive)
REMARK    1  A    between atoms: C_2  and  N_1 
REMARK    2  A    between atoms: C_2  and  C_3 
REMARK    3  A    between atoms: C_2  and  C_4 
REMARK    4  A    between atoms: C_3  and  C_12 
REMARK    5  A    between atoms: C_4  and  C_5 
REMARK    6  A    between atoms: C_10  and  O_11 
REMARK    7  A    between atoms: C_12  and  C_13 
REMARK    8  A    between atoms: C_13  and  O_14 
REMARK    9  A    between atoms: C_13  and  N_15 
ROOT
HETATM    1  C   UNK N   1      33.919  17.702   8.250  0.00  0.00     0.078 C 
ENDROOT
BRANCH   1   2
HETATM    2  N   UNK N   1      34.846  18.785   8.539  0.00  0.00    -0.426 N 
HETATM    3  H   UNK N   1      35.490  19.558   8.373  0.00  0.00     0.150 HD
HETATM    4  H   UNK N   1      34.862  18.746   9.558  0.00  0.00     0.150 HD
ENDBRANCH   1   2
BRANCH   1   5
HETATM    5  C   UNK N   1      34.128  16.566   9.247  0.00  0.00     0.029 C 
BRANCH   5   6
HETATM    6  C   UNK N   1      33.841  15.180   8.675  0.00  0.00     0.055 C 
BRANCH   6   7
HETATM    7  C   UNK N   1      32.458  14.687   9.080  0.00  0.00     0.211 C 
BRANCH   7   8
HETATM    8  O   UNK N   1      32.414  13.291   9.082  0.00  0.00    -0.377 OA
HETATM    9  H   UNK N   1      32.650  12.435   8.693  0.00  0.00     0.212 HD
ENDBRANCH   7   8
BRANCH   7  10
HETATM   10  N   UNK N   1      32.151  15.174  10.412  0.00  0.00    -0.406 N 
HETATM   11  H   UNK N   1      32.437  16.088  10.763  0.00  0.00     0.152 HD
HETATM   12  H   UNK N   1      31.618  14.566  11.034  0.00  0.00     0.152 HD
ENDBRANCH   7  10
ENDBRANCH   6   7
ENDBRANCH   5   6
ENDBRANCH   1   5
BRANCH   1  13
HETATM   13  C   UNK N   1      34.100  17.225   6.803  0.00  0.00     0.063 C 
BRANCH  13  14
HETATM   14  C   UNK N   1      32.867  17.277   5.941  0.00  0.00    -0.056 A 
HETATM   15  C   UNK N   1      33.018  17.436   4.559  0.00  0.00     0.010 A 
HETATM   16  C   UNK N   1      31.898  17.450   3.722  0.00  0.00     0.037 A 
HETATM   17  C   UNK N   1      30.617  17.298   4.261  0.00  0.00     0.065 A 
HETATM   18  C   UNK N   1      30.457  17.141   5.641  0.00  0.00     0.037 A 
HETATM   19  C   UNK N   1      31.575  17.130   6.478  0.00  0.00     0.010 A 
BRANCH  17  20
HETATM   20  O   UNK N   1      29.544  17.299   3.457  0.00  0.00    -0.361 OA
HETATM   21  H   UNK N   1      29.081  18.097   3.290  0.00  0.00     0.217 HD
ENDBRANCH  17  20
ENDBRANCH  13  14
ENDBRANCH   1  13
TORSDOF 9
ENDMDL
