REMARK  9 active torsions:
REMARK  status: ('A' for Active; 'I' for Inactive)
REMARK    1  A    between atoms: C_2  and  N_1 
REMARK    2  A    between atoms: C_2  and  C_3 
REMARK    3  A    between atoms: C_2  and  C_4 
REMARK    4  A    between atoms: C_3  and  C_12 
REMARK    5  A    between atoms: C_4  and  C_5 
REMARK    6  A    between atoms: C_10  and  O_11 
REMARK    7  A    between atoms: C_12  and  C_13 
REMARK    8  A    between atoms: C_13  and  O_14 
REMARK    9  A    between atoms: C_13  and  N_15 
ROOT
HETATM    1  C   UNK N   1      -1.036  -0.596   0.235  0.00  0.00     0.078 C 
ENDROOT
BRANCH   1   2
HETATM    2  N   UNK N   1      -1.158  -1.106  -1.121  0.00  0.00    -0.426 N 
HETATM    3  H   UNK N   1      -1.511  -1.211  -2.072  0.00  0.00     0.150 HD
HETATM    4  H   UNK N   1      -0.418  -1.808  -1.121  0.00  0.00     0.150 HD
ENDBRANCH   1   2
BRANCH   1   5
HETATM    5  C   UNK N   1      -2.389  -0.078   0.714  0.00  0.00     0.029 C 
BRANCH   5   6
HETATM    6  C   UNK N   1      -2.859   1.183  -0.007  0.00  0.00     0.055 C 
BRANCH   6   7
HETATM    7  C   UNK N   1      -4.370   1.183  -0.199  0.00  0.00     0.211 C 
BRANCH   7   8
HETATM    8  O   UNK N   1      -5.020   0.922   1.009  0.00  0.00    -0.377 OA
HETATM    9  H   UNK N   1      -5.403   1.222   1.848  0.00  0.00     0.212 HD
ENDBRANCH   7   8
BRANCH   7  10
HETATM   10  N   UNK N   1      -4.787   2.483  -0.691  0.00  0.00    -0.406 N 
HETATM   11  H   UNK N   1      -4.142   3.194  -1.036  0.00  0.00     0.152 HD
HETATM   12  H   UNK N   1      -5.784   2.699  -0.691  0.00  0.00     0.152 HD
ENDBRANCH   7  10
ENDBRANCH   6   7
ENDBRANCH   5   6
ENDBRANCH   1   5
BRANCH   1  13
HETATM   13  C   UNK N   1       0.040   0.496   0.293  0.00  0.00     0.063 C 
BRANCH  13  14
HETATM   14  C   UNK N   1       1.459   0.022   0.121  0.00  0.00    -0.056 A 
HETATM   15  C   UNK N   1       2.485   0.973   0.069  0.00  0.00     0.010 A 
HETATM   16  C   UNK N   1       3.818   0.570  -0.051  0.00  0.00     0.037 A 
HETATM   17  C   UNK N   1       4.137  -0.790  -0.114  0.00  0.00     0.065 A 
HETATM   18  C   UNK N   1       3.118  -1.747  -0.065  0.00  0.00     0.037 A 
HETATM   19  C   UNK N   1       1.786  -1.344   0.052  0.00  0.00     0.010 A 
BRANCH  17  20
HETATM   20  O   UNK N   1       5.416  -1.177  -0.217  0.00  0.00    -0.361 OA
HETATM   21  H   UNK N   1       5.629  -2.087  -0.290  0.00  0.00     0.217 HD
ENDBRANCH  17  20
ENDBRANCH  13  14
ENDBRANCH   1  13
TORSDOF 9
