MODEL 1
REMARK VINA RESULT:      -7.4      0.000      0.000
REMARK  2 active torsions:
REMARK  status: ('A' for Active; 'I' for Inactive)
REMARK    1  A    between atoms: C_5  and  O_23 
REMARK    2  A    between atoms: C_6  and  O_21 
ROOT
HETATM    1  C   UNK N   1      36.313  14.545  13.695  0.00  0.00     0.052 A 
HETATM    2  C   UNK N   1      35.663  13.925  12.633  0.00  0.00    -0.013 A 
HETATM    3  C   UNK N   1      35.325  12.558  12.700  0.00  0.00    -0.007 A 
HETATM    4  C   UNK N   1      35.649  11.830  13.848  0.00  0.00     0.053 A 
HETATM    5  C   UNK N   1      36.310  12.453  14.933  0.00  0.00     0.102 A 
HETATM    6  C   UNK N   1      36.644  13.835  14.847  0.00  0.00     0.102 A 
HETATM    7  C   UNK N   1      34.665  11.954  11.606  0.00  0.00     0.100 A 
HETATM    8  N   UNK N   1      34.358  12.691  10.491  0.00  0.00    -0.364 N 
HETATM    9  C   UNK N   1      34.694  14.009  10.446  0.00  0.00     0.050 A 
HETATM   10  C   UNK N   1      35.336  14.634  11.488  0.00  0.00    -0.015 A 
HETATM   11  C   UNK N   1      35.604  16.094  11.209  0.00  0.00     0.081 A 
HETATM   12  C   UNK N   1      35.005  16.186   9.834  0.00  0.00    -0.038 A 
HETATM   13  C   UNK N   1      34.478  14.969   9.400  0.00  0.00     0.001 A 
HETATM   14  C   UNK N   1      33.871  14.839   8.139  0.00  0.00     0.054 A 
HETATM   15  C   UNK N   1      33.833  16.009   7.359  0.00  0.00     0.105 A 
HETATM   16  C   UNK N   1      34.345  17.183   7.787  0.00  0.00     0.105 A 
HETATM   17  C   UNK N   1      34.951  17.333   9.033  0.00  0.00     0.048 A 
HETATM   18  O   UNK N   1      34.167  18.107   6.845  0.00  0.00    -0.323 OA
HETATM   19  C   UNK N   1      33.514  17.513   5.761  0.00  0.00     0.352 A 
HETATM   20  O   UNK N   1      33.325  16.177   6.140  0.00  0.00    -0.323 OA
HETATM   21  H   UNK N   1      33.898  12.270   9.729  0.00  0.00     0.165 HD
ENDROOT
BRANCH   5  22
HETATM   22  O   UNK N   1      36.624  11.746  16.048  0.00  0.00    -0.353 OA
HETATM   23  C   UNK N   1      35.730  11.475  17.057  0.00  0.00     0.210 C 
ENDBRANCH   5  22
BRANCH   6  24
HETATM   24  O   UNK N   1      37.278  14.523  15.833  0.00  0.00    -0.353 OA
HETATM   25  C   UNK N   1      37.415  15.889  15.902  0.00  0.00     0.210 C 
ENDBRANCH   6  24
TORSDOF 2
ENDMDL
MODEL 2
REMARK VINA RESULT:      -7.0      7.883     11.707
REMARK  2 active torsions:
REMARK  status: ('A' for Active; 'I' for Inactive)
REMARK    1  A    between atoms: C_5  and  O_23 
REMARK    2  A    between atoms: C_6  and  O_21 
ROOT
HETATM    1  C   UNK N   1      29.606  17.947   4.553  0.00  0.00     0.052 A 
HETATM    2  C   UNK N   1      28.356  17.529   4.998  0.00  0.00    -0.013 A 
HETATM    3  C   UNK N   1      28.241  16.459   5.908  0.00  0.00    -0.007 A 
HETATM    4  C   UNK N   1      29.399  15.820   6.360  0.00  0.00     0.053 A 
HETATM    5  C   UNK N   1      30.674  16.239   5.913  0.00  0.00     0.102 A 
HETATM    6  C   UNK N   1      30.770  17.322   4.993  0.00  0.00     0.102 A 
HETATM    7  C   UNK N   1      26.959  16.055   6.343  0.00  0.00     0.100 A 
HETATM    8  N   UNK N   1      25.838  16.699   5.884  0.00  0.00    -0.364 N 
HETATM    9  C   UNK N   1      25.971  17.729   5.006  0.00  0.00     0.050 A 
HETATM   10  C   UNK N   1      27.199  18.153   4.558  0.00  0.00    -0.015 A 
HETATM   11  C   UNK N   1      27.095  19.309   3.592  0.00  0.00     0.081 A 
HETATM   12  C   UNK N   1      25.600  19.466   3.570  0.00  0.00    -0.038 A 
HETATM   13  C   UNK N   1      24.956  18.543   4.396  0.00  0.00     0.001 A 
HETATM   14  C   UNK N   1      23.556  18.519   4.519  0.00  0.00     0.054 A 
HETATM   15  C   UNK N   1      22.863  19.480   3.761  0.00  0.00     0.105 A 
HETATM   16  C   UNK N   1      23.494  20.369   2.965  0.00  0.00     0.105 A 
HETATM   17  C   UNK N   1      24.881  20.410   2.828  0.00  0.00     0.048 A 
HETATM   18  O   UNK N   1      22.589  21.148   2.376  0.00  0.00    -0.323 OA
HETATM   19  C   UNK N   1      21.319  20.752   2.804  0.00  0.00     0.352 A 
HETATM   20  O   UNK N   1      21.550  19.686   3.685  0.00  0.00    -0.323 OA
HETATM   21  H   UNK N   1      24.945  16.417   6.187  0.00  0.00     0.165 HD
ENDROOT
BRANCH   5  22
HETATM   22  O   UNK N   1      31.798  15.619   6.352  0.00  0.00    -0.353 OA
HETATM   23  C   UNK N   1      32.173  15.567   7.675  0.00  0.00     0.210 C 
ENDBRANCH   5  22
BRANCH   6  24
HETATM   24  O   UNK N   1      31.946  17.798   4.505  0.00  0.00    -0.353 OA
HETATM   25  C   UNK N   1      32.669  17.251   3.471  0.00  0.00     0.210 C 
ENDBRANCH   6  24
TORSDOF 2
ENDMDL
MODEL 3
REMARK VINA RESULT:      -7.0      8.638     13.954
REMARK  2 active torsions:
REMARK  status: ('A' for Active; 'I' for Inactive)
REMARK    1  A    between atoms: C_5  and  O_23 
REMARK    2  A    between atoms: C_6  and  O_21 
ROOT
HETATM    1  C   UNK N   1      23.793  18.025   4.144  0.00  0.00     0.052 A 
HETATM    2  C   UNK N   1      25.050  18.592   3.963  0.00  0.00    -0.013 A 
HETATM    3  C   UNK N   1      25.179  19.884   3.415  0.00  0.00    -0.007 A 
HETATM    4  C   UNK N   1      24.029  20.593   3.056  0.00  0.00     0.053 A 
HETATM    5  C   UNK N   1      22.747  20.023   3.237  0.00  0.00     0.102 A 
HETATM    6  C   UNK N   1      22.635  18.715   3.792  0.00  0.00     0.102 A 
HETATM    7  C   UNK N   1      26.469  20.436   3.242  0.00  0.00     0.100 A 
HETATM    8  N   UNK N   1      27.582  19.720   3.603  0.00  0.00    -0.364 N 
HETATM    9  C   UNK N   1      27.435  18.475   4.129  0.00  0.00     0.050 A 
HETATM   10  C   UNK N   1      26.199  17.901   4.315  0.00  0.00    -0.015 A 
HETATM   11  C   UNK N   1      26.287  16.518   4.912  0.00  0.00     0.081 A 
HETATM   12  C   UNK N   1      27.781  16.406   5.032  0.00  0.00    -0.038 A 
HETATM   13  C   UNK N   1      28.439  17.549   4.575  0.00  0.00     0.001 A 
HETATM   14  C   UNK N   1      29.841  17.650   4.600  0.00  0.00     0.054 A 
HETATM   15  C   UNK N   1      30.521  16.530   5.113  0.00  0.00     0.105 A 
HETATM   16  C   UNK N   1      29.877  15.429   5.553  0.00  0.00     0.105 A 
HETATM   17  C   UNK N   1      28.488  15.309   5.537  0.00  0.00     0.048 A 
HETATM   18  O   UNK N   1      30.772  14.539   5.978  0.00  0.00    -0.323 OA
HETATM   19  C   UNK N   1      32.049  15.082   5.808  0.00  0.00     0.352 A 
HETATM   20  O   UNK N   1      31.832  16.351   5.254  0.00  0.00    -0.323 OA
HETATM   21  H   UNK N   1      28.480  20.105   3.482  0.00  0.00     0.165 HD
ENDROOT
BRANCH   5  22
HETATM   22  O   UNK N   1      21.631  20.710   2.888  0.00  0.00    -0.353 OA
HETATM   23  C   UNK N   1      21.065  20.661   1.635  0.00  0.00     0.210 C 
ENDBRANCH   5  22
BRANCH   6  24
HETATM   24  O   UNK N   1      21.452  18.083   4.005  0.00  0.00    -0.353 OA
HETATM   25  C   UNK N   1      20.833  17.217   3.134  0.00  0.00     0.210 C 
ENDBRANCH   6  24
TORSDOF 2
ENDMDL
MODEL 4
REMARK VINA RESULT:      -7.0      2.919      8.339
REMARK  2 active torsions:
REMARK  status: ('A' for Active; 'I' for Inactive)
REMARK    1  A    between atoms: C_5  and  O_23 
REMARK    2  A    between atoms: C_6  and  O_21 
ROOT
HETATM    1  C   UNK N   1      36.309  14.478  12.388  0.00  0.00     0.052 A 
HETATM    2  C   UNK N   1      36.616  13.209  12.868  0.00  0.00    -0.013 A 
HETATM    3  C   UNK N   1      37.220  12.253  12.026  0.00  0.00    -0.007 A 
HETATM    4  C   UNK N   1      37.508  12.593  10.702  0.00  0.00     0.053 A 
HETATM    5  C   UNK N   1      37.200  13.883  10.207  0.00  0.00     0.102 A 
HETATM    6  C   UNK N   1      36.590  14.836  11.071  0.00  0.00     0.102 A 
HETATM    7  C   UNK N   1      37.520  10.971  12.540  0.00  0.00     0.100 A 
HETATM    8  N   UNK N   1      37.226  10.662  13.844  0.00  0.00    -0.364 N 
HETATM    9  C   UNK N   1      36.643  11.599  14.639  0.00  0.00     0.050 A 
HETATM   10  C   UNK N   1      36.335  12.857  14.179  0.00  0.00    -0.015 A 
HETATM   11  C   UNK N   1      35.696  13.720  15.240  0.00  0.00     0.081 A 
HETATM   12  C   UNK N   1      35.696  12.737  16.376  0.00  0.00    -0.038 A 
HETATM   13  C   UNK N   1      36.249  11.507  16.017  0.00  0.00     0.001 A 
HETATM   14  C   UNK N   1      36.344  10.447  16.935  0.00  0.00     0.054 A 
HETATM   15  C   UNK N   1      35.848  10.714  18.224  0.00  0.00     0.105 A 
HETATM   16  C   UNK N   1      35.315  11.907  18.564  0.00  0.00     0.105 A 
HETATM   17  C   UNK N   1      35.211  12.970  17.669  0.00  0.00     0.048 A 
HETATM   18  O   UNK N   1      34.933  11.868  19.839  0.00  0.00    -0.323 OA
HETATM   19  C   UNK N   1      35.229  10.601  20.350  0.00  0.00     0.352 A 
HETATM   20  O   UNK N   1      35.810   9.906  19.281  0.00  0.00    -0.323 OA
HETATM   21  H   UNK N   1      37.436   9.769  14.201  0.00  0.00     0.165 HD
ENDROOT
BRANCH   5  22
HETATM   22  O   UNK N   1      37.480  14.213   8.921  0.00  0.00    -0.353 OA
HETATM   23  C   UNK N   1      36.676  13.881   7.855  0.00  0.00     0.210 C 
ENDBRANCH   5  22
BRANCH   6  24
HETATM   24  O   UNK N   1      36.255  16.097  10.691  0.00  0.00    -0.353 OA
HETATM   25  C   UNK N   1      35.032  16.493  10.203  0.00  0.00     0.210 C 
ENDBRANCH   6  24
TORSDOF 2
ENDMDL
MODEL 5
REMARK VINA RESULT:      -7.0     17.002     20.215
REMARK  2 active torsions:
REMARK  status: ('A' for Active; 'I' for Inactive)
REMARK    1  A    between atoms: C_5  and  O_23 
REMARK    2  A    between atoms: C_6  and  O_21 
ROOT
HETATM    1  C   UNK N   1      27.835  24.400  -3.921  0.00  0.00     0.052 A 
HETATM    2  C   UNK N   1      28.253  23.521  -4.915  0.00  0.00    -0.013 A 
HETATM    3  C   UNK N   1      27.506  23.376  -6.102  0.00  0.00    -0.007 A 
HETATM    4  C   UNK N   1      26.339  24.125  -6.270  0.00  0.00     0.053 A 
HETATM    5  C   UNK N   1      25.907  25.021  -5.264  0.00  0.00     0.102 A 
HETATM    6  C   UNK N   1      26.674  25.155  -4.071  0.00  0.00     0.102 A 
HETATM    7  C   UNK N   1      27.954  22.476  -7.095  0.00  0.00     0.100 A 
HETATM    8  N   UNK N   1      29.104  21.752  -6.906  0.00  0.00    -0.364 N 
HETATM    9  C   UNK N   1      29.810  21.908  -5.753  0.00  0.00     0.050 A 
HETATM   10  C   UNK N   1      29.409  22.772  -4.762  0.00  0.00    -0.015 A 
HETATM   11  C   UNK N   1      30.350  22.774  -3.581  0.00  0.00     0.081 A 
HETATM   12  C   UNK N   1      31.349  21.765  -4.073  0.00  0.00    -0.038 A 
HETATM   13  C   UNK N   1      31.026  21.267  -5.336  0.00  0.00     0.001 A 
HETATM   14  C   UNK N   1      31.833  20.311  -5.978  0.00  0.00     0.054 A 
HETATM   15  C   UNK N   1      32.972  19.899  -5.263  0.00  0.00     0.105 A 
HETATM   16  C   UNK N   1      33.277  20.386  -4.041  0.00  0.00     0.105 A 
HETATM   17  C   UNK N   1      32.491  21.334  -3.387  0.00  0.00     0.048 A 
HETATM   18  O   UNK N   1      34.402  19.818  -3.612  0.00  0.00    -0.323 OA
HETATM   19  C   UNK N   1      34.848  18.926  -4.593  0.00  0.00     0.352 A 
HETATM   20  O   UNK N   1      33.901  19.017  -5.622  0.00  0.00    -0.323 OA
HETATM   21  H   UNK N   1      29.416  21.125  -7.598  0.00  0.00     0.165 HD
ENDROOT
BRANCH   5  22
HETATM   22  O   UNK N   1      24.773  25.748  -5.428  0.00  0.00    -0.353 OA
HETATM   23  C   UNK N   1      24.748  27.008  -5.980  0.00  0.00     0.210 C 
ENDBRANCH   5  22
BRANCH   6  24
HETATM   24  O   UNK N   1      26.344  25.987  -3.049  0.00  0.00    -0.353 OA
HETATM   25  C   UNK N   1      26.582  27.340  -3.003  0.00  0.00     0.210 C 
ENDBRANCH   6  24
TORSDOF 2
ENDMDL
MODEL 6
REMARK VINA RESULT:      -6.9     17.106     20.732
REMARK  2 active torsions:
REMARK  status: ('A' for Active; 'I' for Inactive)
REMARK    1  A    between atoms: C_5  and  O_23 
REMARK    2  A    between atoms: C_6  and  O_21 
ROOT
HETATM    1  C   UNK N   1      27.188  23.254  -6.516  0.00  0.00     0.052 A 
HETATM    2  C   UNK N   1      28.104  23.388  -5.477  0.00  0.00    -0.013 A 
HETATM    3  C   UNK N   1      27.894  24.336  -4.456  0.00  0.00    -0.007 A 
HETATM    4  C   UNK N   1      26.753  25.143  -4.496  0.00  0.00     0.053 A 
HETATM    5  C   UNK N   1      25.817  25.013  -5.549  0.00  0.00     0.102 A 
HETATM    6  C   UNK N   1      26.046  24.049  -6.573  0.00  0.00     0.102 A 
HETATM    7  C   UNK N   1      28.841  24.450  -3.413  0.00  0.00     0.100 A 
HETATM    8  N   UNK N   1      29.952  23.646  -3.396  0.00  0.00    -0.364 N 
HETATM    9  C   UNK N   1      30.135  22.738  -4.391  0.00  0.00     0.050 A 
HETATM   10  C   UNK N   1      29.239  22.595  -5.424  0.00  0.00    -0.015 A 
HETATM   11  C   UNK N   1      29.655  21.526  -6.406  0.00  0.00     0.081 A 
HETATM   12  C   UNK N   1      30.937  21.091  -5.754  0.00  0.00    -0.038 A 
HETATM   13  C   UNK N   1      31.207  21.801  -4.583  0.00  0.00     0.001 A 
HETATM   14  C   UNK N   1      32.360  21.547  -3.819  0.00  0.00     0.054 A 
HETATM   15  C   UNK N   1      33.207  20.540  -4.314  0.00  0.00     0.105 A 
HETATM   16  C   UNK N   1      32.938  19.857  -5.448  0.00  0.00     0.105 A 
HETATM   17  C   UNK N   1      31.801  20.093  -6.220  0.00  0.00     0.048 A 
HETATM   18  O   UNK N   1      33.909  18.973  -5.667  0.00  0.00    -0.323 OA
HETATM   19  C   UNK N   1      34.848  19.083  -4.637  0.00  0.00     0.352 A 
HETATM   20  O   UNK N   1      34.352  20.095  -3.803  0.00  0.00    -0.323 OA
HETATM   21  H   UNK N   1      30.611  23.726  -2.669  0.00  0.00     0.165 HD
ENDROOT
BRANCH   5  22
HETATM   22  O   UNK N   1      24.710  25.796  -5.588  0.00  0.00    -0.353 OA
HETATM   23  C   UNK N   1      24.749  27.171  -5.631  0.00  0.00     0.210 C 
ENDBRANCH   5  22
BRANCH   6  24
HETATM   24  O   UNK N   1      25.208  23.849  -7.624  0.00  0.00    -0.353 OA
HETATM   25  C   UNK N   1      25.483  24.140  -8.940  0.00  0.00     0.210 C 
ENDBRANCH   6  24
TORSDOF 2
ENDMDL
MODEL 7
REMARK VINA RESULT:      -6.9      6.322     11.164
REMARK  2 active torsions:
REMARK  status: ('A' for Active; 'I' for Inactive)
REMARK    1  A    between atoms: C_5  and  O_23 
REMARK    2  A    between atoms: C_6  and  O_21 
ROOT
HETATM    1  C   UNK N   1      26.732  16.022   5.166  0.00  0.00     0.052 A 
HETATM    2  C   UNK N   1      27.965  16.212   4.551  0.00  0.00    -0.013 A 
HETATM    3  C   UNK N   1      28.102  16.047   3.158  0.00  0.00    -0.007 A 
HETATM    4  C   UNK N   1      26.985  15.689   2.398  0.00  0.00     0.053 A 
HETATM    5  C   UNK N   1      25.727  15.493   3.017  0.00  0.00     0.102 A 
HETATM    6  C   UNK N   1      25.607  15.665   4.425  0.00  0.00     0.102 A 
HETATM    7  C   UNK N   1      29.367  16.247   2.559  0.00  0.00     0.100 A 
HETATM    8  N   UNK N   1      30.448  16.598   3.327  0.00  0.00    -0.364 N 
HETATM    9  C   UNK N   1      30.293  16.752   4.669  0.00  0.00     0.050 A 
HETATM   10  C   UNK N   1      29.082  16.567   5.291  0.00  0.00    -0.015 A 
HETATM   11  C   UNK N   1      29.156  16.794   6.782  0.00  0.00     0.081 A 
HETATM   12  C   UNK N   1      30.614  17.138   6.897  0.00  0.00    -0.038 A 
HETATM   13  C   UNK N   1      31.266  17.111   5.663  0.00  0.00     0.001 A 
HETATM   14  C   UNK N   1      32.637  17.403   5.550  0.00  0.00     0.054 A 
HETATM   15  C   UNK N   1      33.292  17.719   6.754  0.00  0.00     0.105 A 
HETATM   16  C   UNK N   1      32.653  17.743   7.943  0.00  0.00     0.105 A 
HETATM   17  C   UNK N   1      31.295  17.457   8.077  0.00  0.00     0.048 A 
HETATM   18  O   UNK N   1      33.520  18.072   8.899  0.00  0.00    -0.323 OA
HETATM   19  C   UNK N   1      34.772  18.271   8.310  0.00  0.00     0.352 A 
HETATM   20  O   UNK N   1      34.571  18.033   6.943  0.00  0.00    -0.323 OA
HETATM   21  H   UNK N   1      31.329  16.737   2.909  0.00  0.00     0.165 HD
ENDROOT
BRANCH   5  22
HETATM   22  O   UNK N   1      24.643  15.146   2.279  0.00  0.00    -0.353 OA
HETATM   23  C   UNK N   1      24.504  13.928   1.653  0.00  0.00     0.210 C 
ENDBRANCH   5  22
BRANCH   6  24
HETATM   24  O   UNK N   1      24.445  15.500   5.111  0.00  0.00    -0.353 OA
HETATM   25  C   UNK N   1      23.576  16.502   5.474  0.00  0.00     0.210 C 
ENDBRANCH   6  24
TORSDOF 2
ENDMDL
MODEL 8
REMARK VINA RESULT:      -6.8      4.779      9.830
REMARK  2 active torsions:
REMARK  status: ('A' for Active; 'I' for Inactive)
REMARK    1  A    between atoms: C_5  and  O_23 
REMARK    2  A    between atoms: C_6  and  O_21 
ROOT
HETATM    1  C   UNK N   1      28.977  17.508   5.677  0.00  0.00     0.052 A 
HETATM    2  C   UNK N   1      29.552  17.488   6.944  0.00  0.00    -0.013 A 
HETATM    3  C   UNK N   1      29.131  18.397   7.935  0.00  0.00    -0.007 A 
HETATM    4  C   UNK N   1      28.127  19.321   7.633  0.00  0.00     0.053 A 
HETATM    5  C   UNK N   1      27.536  19.347   6.347  0.00  0.00     0.102 A 
HETATM    6  C   UNK N   1      27.975  18.421   5.358  0.00  0.00     0.102 A 
HETATM    7  C   UNK N   1      29.732  18.354   9.213  0.00  0.00     0.100 A 
HETATM    8  N   UNK N   1      30.716  17.437   9.485  0.00  0.00    -0.364 N 
HETATM    9  C   UNK N   1      31.108  16.569   8.513  0.00  0.00     0.050 A 
HETATM   10  C   UNK N   1      30.549  16.577   7.258  0.00  0.00    -0.015 A 
HETATM   11  C   UNK N   1      31.143  15.525   6.353  0.00  0.00     0.081 A 
HETATM   12  C   UNK N   1      32.132  14.922   7.310  0.00  0.00    -0.038 A 
HETATM   13  C   UNK N   1      32.104  15.536   8.563  0.00  0.00     0.001 A 
HETATM   14  C   UNK N   1      32.953  15.121   9.604  0.00  0.00     0.054 A 
HETATM   15  C   UNK N   1      33.819  14.057   9.295  0.00  0.00     0.105 A 
HETATM   16  C   UNK N   1      33.840  13.469   8.080  0.00  0.00     0.105 A 
HETATM   17  C   UNK N   1      33.008  13.865   7.034  0.00  0.00     0.048 A 
HETATM   18  O   UNK N   1      34.753  12.500   8.079  0.00  0.00    -0.323 OA
HETATM   19  C   UNK N   1      35.351  12.455   9.342  0.00  0.00     0.352 A 
HETATM   20  O   UNK N   1      34.720  13.467  10.077  0.00  0.00    -0.323 OA
HETATM   21  H   UNK N   1      31.135  17.408  10.375  0.00  0.00     0.165 HD
ENDROOT
BRANCH   5  22
HETATM   22  O   UNK N   1      26.562  20.244   6.054  0.00  0.00    -0.353 OA
HETATM   23  C   UNK N   1      26.591  21.561   6.454  0.00  0.00     0.210 C 
ENDBRANCH   5  22
BRANCH   6  24
HETATM   24  O   UNK N   1      27.472  18.367   4.096  0.00  0.00    -0.353 OA
HETATM   25  C   UNK N   1      26.465  17.534   3.666  0.00  0.00     0.210 C 
ENDBRANCH   6  24
TORSDOF 2
ENDMDL
MODEL 9
REMARK VINA RESULT:      -6.8      1.825      3.565
REMARK  2 active torsions:
REMARK  status: ('A' for Active; 'I' for Inactive)
REMARK    1  A    between atoms: C_5  and  O_23 
REMARK    2  A    between atoms: C_6  and  O_21 
ROOT
HETATM    1  C   UNK N   1      34.871  13.039  10.923  0.00  0.00     0.052 A 
HETATM    2  C   UNK N   1      34.920  14.371  10.526  0.00  0.00    -0.013 A 
HETATM    3  C   UNK N   1      35.419  15.360  11.398  0.00  0.00    -0.007 A 
HETATM    4  C   UNK N   1      35.866  14.988  12.669  0.00  0.00     0.053 A 
HETATM    5  C   UNK N   1      35.820  13.634  13.080  0.00  0.00     0.102 A 
HETATM    6  C   UNK N   1      35.312  12.649  12.186  0.00  0.00     0.102 A 
HETATM    7  C   UNK N   1      35.457  16.706  10.968  0.00  0.00     0.100 A 
HETATM    8  N   UNK N   1      35.013  17.045   9.716  0.00  0.00    -0.364 N 
HETATM    9  C   UNK N   1      34.535  16.075   8.890  0.00  0.00     0.050 A 
HETATM   10  C   UNK N   1      34.481  14.755   9.268  0.00  0.00    -0.015 A 
HETATM   11  C   UNK N   1      33.914  13.866   8.188  0.00  0.00     0.081 A 
HETATM   12  C   UNK N   1      33.658  14.908   7.135  0.00  0.00    -0.038 A 
HETATM   13  C   UNK N   1      34.022  16.189   7.553  0.00  0.00     0.001 A 
HETATM   14  C   UNK N   1      33.864  17.308   6.717  0.00  0.00     0.054 A 
HETATM   15  C   UNK N   1      33.319  17.045   5.447  0.00  0.00     0.105 A 
HETATM   16  C   UNK N   1      32.970  15.803   5.051  0.00  0.00     0.105 A 
HETATM   17  C   UNK N   1      33.118  14.680   5.864  0.00  0.00     0.048 A 
HETATM   18  O   UNK N   1      32.486  15.859   3.811  0.00  0.00    -0.323 OA
HETATM   19  C   UNK N   1      32.523  17.189   3.383  0.00  0.00     0.352 A 
HETATM   20  O   UNK N   1      33.061  17.902   4.463  0.00  0.00    -0.323 OA
HETATM   21  H   UNK N   1      35.040  17.983   9.417  0.00  0.00     0.165 HD
ENDROOT
BRANCH   5  22
HETATM   22  O   UNK N   1      36.253  13.273  14.314  0.00  0.00    -0.353 OA
HETATM   23  C   UNK N   1      36.808  14.152  15.215  0.00  0.00     0.210 C 
ENDBRANCH   5  22
BRANCH   6  24
HETATM   24  O   UNK N   1      35.227  11.327  12.487  0.00  0.00    -0.353 OA
HETATM   25  C   UNK N   1      34.155  10.704  13.084  0.00  0.00     0.210 C 
ENDBRANCH   6  24
TORSDOF 2
ENDMDL
