MODEL 1
REMARK VINA RESULT:      -5.6      0.000      0.000
REMARK  9 active torsions:
REMARK  status: ('A' for Active; 'I' for Inactive)
REMARK    1  A    between atoms: C_4  and  C_12 
REMARK    2  A    between atoms: C_4  and  C_10 
REMARK    3  A    between atoms: C_5  and  C_14 
REMARK    4  A    between atoms: C_5  and  O_17 
REMARK    5  A    between atoms: C_6  and  C_13 
REMARK    6  A    between atoms: C_8  and  C_6 
REMARK    7  A    between atoms: O_16  and  C_8 
REMARK    8  A    between atoms: C_11  and  O_16 
REMARK    9  A    between atoms: C_13  and  C_12 
ROOT
HETATM    1  C   UNK N   1      32.119  17.589   7.989  0.00  0.00     0.055 A 
HETATM    2  C   UNK N   1      32.774  17.278   5.290  0.00  0.00     0.004 A 
HETATM    3  C   UNK N   1      33.768  17.602   6.218  0.00  0.00     0.018 A 
HETATM    4  C   UNK N   1      31.453  17.114   5.712  0.00  0.00     0.037 A 
HETATM    5  C   UNK N   1      31.119  17.272   7.070  0.00  0.00     0.069 A 
HETATM    6  C   UNK N   1      33.444  17.759   7.573  0.00  0.00     0.040 A 
ENDROOT
BRANCH   5   7
HETATM    7  O   UNK N   1      29.851  17.129   7.514  0.00  0.00    -0.351 OA
BRANCH   7   8
HETATM    8  C   UNK N   1      28.825  17.940   7.103  0.00  0.00     0.175 C 
BRANCH   8   9
HETATM    9  C   UNK N   1      27.744  17.104   6.462  0.00  0.00     0.027 C 
BRANCH   9  10
HETATM   10  C   UNK N   1      27.229  17.880   5.277  0.00  0.00     0.002 C 
BRANCH  10  11
HETATM   11  C   UNK N   1      28.280  18.835   4.769  0.00  0.00     0.000 C 
BRANCH  11  12
HETATM   12  C   UNK N   1      27.565  20.100   4.354  0.00  0.00    -0.000 C 
BRANCH  12  13
HETATM   13  C   UNK N   1      26.587  20.525   5.422  0.00  0.00    -0.005 C 
HETATM   14  C   UNK N   1      27.256  21.553   6.308  0.00  0.00     0.005 C 
ENDBRANCH  12  13
ENDBRANCH  11  12
ENDBRANCH  10  11
ENDBRANCH   9  10
ENDBRANCH   8   9
ENDBRANCH   7   8
ENDBRANCH   5   7
BRANCH   6  15
HETATM   15  C   UNK N   1      34.478  18.106   8.563  0.00  0.00     0.176 C 
HETATM   16  O   UNK N   1      34.650  17.403   9.548  0.00  0.00    -0.646 OA
BRANCH  15  17
HETATM   17  O   UNK N   1      35.245  19.198   8.388  0.00  0.00    -0.773 OA
HETATM   18  H   UNK N   1      36.139  19.105   8.121  0.00  0.00     0.167 HD
ENDBRANCH  15  17
ENDBRANCH   6  15
TORSDOF 9
ENDMDL
MODEL 2
REMARK VINA RESULT:      -5.5     11.058     13.003
REMARK  9 active torsions:
REMARK  status: ('A' for Active; 'I' for Inactive)
REMARK    1  A    between atoms: C_4  and  C_12 
REMARK    2  A    between atoms: C_4  and  C_10 
REMARK    3  A    between atoms: C_5  and  C_14 
REMARK    4  A    between atoms: C_5  and  O_17 
REMARK    5  A    between atoms: C_6  and  C_13 
REMARK    6  A    between atoms: C_8  and  C_6 
REMARK    7  A    between atoms: O_16  and  C_8 
REMARK    8  A    between atoms: C_11  and  O_16 
REMARK    9  A    between atoms: C_13  and  C_12 
ROOT
HETATM    1  C   UNK N   1      29.580  22.768  -4.339  0.00  0.00     0.055 A 
HETATM    2  C   UNK N   1      30.473  20.721  -6.020  0.00  0.00     0.004 A 
HETATM    3  C   UNK N   1      31.068  20.907  -4.769  0.00  0.00     0.018 A 
HETATM    4  C   UNK N   1      29.436  21.562  -6.432  0.00  0.00     0.037 A 
HETATM    5  C   UNK N   1      28.985  22.593  -5.588  0.00  0.00     0.069 A 
HETATM    6  C   UNK N   1      30.622  21.931  -3.922  0.00  0.00     0.040 A 
ENDROOT
BRANCH   5   7
HETATM    7  O   UNK N   1      27.990  23.430  -5.955  0.00  0.00    -0.351 OA
BRANCH   7   8
HETATM    8  C   UNK N   1      27.295  24.199  -5.055  0.00  0.00     0.175 C 
BRANCH   8   9
HETATM    9  C   UNK N   1      25.876  24.384  -5.536  0.00  0.00     0.027 C 
BRANCH   9  10
HETATM   10  C   UNK N   1      25.878  25.564  -6.474  0.00  0.00     0.002 C 
BRANCH  10  11
HETATM   11  C   UNK N   1      25.041  26.687  -5.918  0.00  0.00     0.000 C 
BRANCH  11  12
HETATM   12  C   UNK N   1      25.994  27.773  -5.476  0.00  0.00    -0.000 C 
BRANCH  12  13
HETATM   13  C   UNK N   1      25.655  28.234  -4.079  0.00  0.00    -0.005 C 
HETATM   14  C   UNK N   1      26.179  27.213  -3.094  0.00  0.00     0.005 C 
ENDBRANCH  12  13
ENDBRANCH  11  12
ENDBRANCH  10  11
ENDBRANCH   9  10
ENDBRANCH   8   9
ENDBRANCH   7   8
ENDBRANCH   5   7
BRANCH   6  15
HETATM   15  C   UNK N   1      31.241  22.145  -2.602  0.00  0.00     0.176 C 
HETATM   16  O   UNK N   1      30.789  22.986  -1.837  0.00  0.00    -0.646 OA
BRANCH  15  17
HETATM   17  O   UNK N   1      32.306  21.413  -2.226  0.00  0.00    -0.773 OA
HETATM   18  H   UNK N   1      32.346  20.501  -2.438  0.00  0.00     0.167 HD
ENDBRANCH  15  17
ENDBRANCH   6  15
TORSDOF 9
ENDMDL
MODEL 3
REMARK VINA RESULT:      -5.3     11.112     13.204
REMARK  9 active torsions:
REMARK  status: ('A' for Active; 'I' for Inactive)
REMARK    1  A    between atoms: C_4  and  C_12 
REMARK    2  A    between atoms: C_4  and  C_10 
REMARK    3  A    between atoms: C_5  and  C_14 
REMARK    4  A    between atoms: C_5  and  O_17 
REMARK    5  A    between atoms: C_6  and  C_13 
REMARK    6  A    between atoms: C_8  and  C_6 
REMARK    7  A    between atoms: O_16  and  C_8 
REMARK    8  A    between atoms: C_11  and  O_16 
REMARK    9  A    between atoms: C_13  and  C_12 
ROOT
HETATM    1  C   UNK N   1      29.301  23.324  -4.107  0.00  0.00     0.055 A 
HETATM    2  C   UNK N   1      29.863  21.296  -5.947  0.00  0.00     0.004 A 
HETATM    3  C   UNK N   1      30.527  21.329  -4.718  0.00  0.00     0.018 A 
HETATM    4  C   UNK N   1      28.921  22.280  -6.257  0.00  0.00     0.037 A 
HETATM    5  C   UNK N   1      28.637  23.304  -5.333  0.00  0.00     0.069 A 
HETATM    6  C   UNK N   1      30.248  22.343  -3.791  0.00  0.00     0.040 A 
ENDROOT
BRANCH   5   7
HETATM    7  O   UNK N   1      27.739  24.277  -5.602  0.00  0.00    -0.351 OA
BRANCH   7   8
HETATM    8  C   UNK N   1      26.407  24.022  -5.806  0.00  0.00     0.175 C 
BRANCH   8   9
HETATM    9  C   UNK N   1      25.583  25.158  -5.249  0.00  0.00     0.027 C 
BRANCH   9  10
HETATM   10  C   UNK N   1      26.292  25.655  -4.016  0.00  0.00     0.002 C 
BRANCH  10  11
HETATM   11  C   UNK N   1      26.019  27.123  -3.800  0.00  0.00     0.000 C 
BRANCH  11  12
HETATM   12  C   UNK N   1      25.827  27.743  -5.165  0.00  0.00    -0.000 C 
BRANCH  12  13
HETATM   13  C   UNK N   1      27.010  28.610  -5.518  0.00  0.00    -0.005 C 
HETATM   14  C   UNK N   1      27.582  28.133  -6.835  0.00  0.00     0.005 C 
ENDBRANCH  12  13
ENDBRANCH  11  12
ENDBRANCH  10  11
ENDBRANCH   9  10
ENDBRANCH   8   9
ENDBRANCH   7   8
ENDBRANCH   5   7
BRANCH   6  15
HETATM   15  C   UNK N   1      30.943  22.396  -2.493  0.00  0.00     0.176 C 
HETATM   16  O   UNK N   1      32.021  21.837  -2.348  0.00  0.00    -0.646 OA
BRANCH  15  17
HETATM   17  O   UNK N   1      30.399  23.064  -1.459  0.00  0.00    -0.773 OA
HETATM   18  H   UNK N   1      30.917  23.671  -0.969  0.00  0.00     0.167 HD
ENDBRANCH  15  17
ENDBRANCH   6  15
TORSDOF 9
ENDMDL
MODEL 4
REMARK VINA RESULT:      -5.3      6.211     10.094
REMARK  9 active torsions:
REMARK  status: ('A' for Active; 'I' for Inactive)
REMARK    1  A    between atoms: C_4  and  C_12 
REMARK    2  A    between atoms: C_4  and  C_10 
REMARK    3  A    between atoms: C_5  and  C_14 
REMARK    4  A    between atoms: C_5  and  O_17 
REMARK    5  A    between atoms: C_6  and  C_13 
REMARK    6  A    between atoms: C_8  and  C_6 
REMARK    7  A    between atoms: O_16  and  C_8 
REMARK    8  A    between atoms: C_11  and  O_16 
REMARK    9  A    between atoms: C_13  and  C_12 
ROOT
HETATM    1  C   UNK N   1      35.267  16.748  10.088  0.00  0.00     0.055 A 
HETATM    2  C   UNK N   1      33.027  15.140   9.625  0.00  0.00     0.004 A 
HETATM    3  C   UNK N   1      33.287  16.233   8.793  0.00  0.00     0.018 A 
HETATM    4  C   UNK N   1      33.885  14.855  10.690  0.00  0.00     0.037 A 
HETATM    5  C   UNK N   1      35.012  15.663  10.926  0.00  0.00     0.069 A 
HETATM    6  C   UNK N   1      34.409  17.042   9.021  0.00  0.00     0.040 A 
ENDROOT
BRANCH   5   7
HETATM    7  O   UNK N   1      35.860  15.422  11.951  0.00  0.00    -0.351 OA
BRANCH   7   8
HETATM    8  C   UNK N   1      35.684  14.387  12.833  0.00  0.00     0.175 C 
BRANCH   8   9
HETATM    9  C   UNK N   1      36.516  14.627  14.069  0.00  0.00     0.027 C 
BRANCH   9  10
HETATM   10  C   UNK N   1      36.519  13.342  14.856  0.00  0.00     0.002 C 
BRANCH  10  11
HETATM   11  C   UNK N   1      35.909  13.550  16.219  0.00  0.00     0.000 C 
BRANCH  11  12
HETATM   12  C   UNK N   1      35.003  12.370  16.484  0.00  0.00    -0.000 C 
BRANCH  12  13
HETATM   13  C   UNK N   1      35.303  11.772  17.837  0.00  0.00    -0.005 C 
HETATM   14  C   UNK N   1      36.042  10.467  17.634  0.00  0.00     0.005 C 
ENDBRANCH  12  13
ENDBRANCH  11  12
ENDBRANCH  10  11
ENDBRANCH   9  10
ENDBRANCH   8   9
ENDBRANCH   7   8
ENDBRANCH   5   7
BRANCH   6  15
HETATM   15  C   UNK N   1      34.695  18.201   8.158  0.00  0.00     0.176 C 
HETATM   16  O   UNK N   1      34.366  18.189   6.980  0.00  0.00    -0.646 OA
BRANCH  15  17
HETATM   17  O   UNK N   1      35.317  19.283   8.660  0.00  0.00    -0.773 OA
HETATM   18  H   UNK N   1      34.850  20.090   8.755  0.00  0.00     0.167 HD
ENDBRANCH  15  17
ENDBRANCH   6  15
TORSDOF 9
ENDMDL
MODEL 5
REMARK VINA RESULT:      -5.3      7.886     10.284
REMARK  9 active torsions:
REMARK  status: ('A' for Active; 'I' for Inactive)
REMARK    1  A    between atoms: C_4  and  C_12 
REMARK    2  A    between atoms: C_4  and  C_10 
REMARK    3  A    between atoms: C_5  and  C_14 
REMARK    4  A    between atoms: C_5  and  O_17 
REMARK    5  A    between atoms: C_6  and  C_13 
REMARK    6  A    between atoms: C_8  and  C_6 
REMARK    7  A    between atoms: O_16  and  C_8 
REMARK    8  A    between atoms: C_11  and  O_16 
REMARK    9  A    between atoms: C_13  and  C_12 
ROOT
HETATM    1  C   UNK N   1      21.881  12.970  10.173  0.00  0.00     0.055 A 
HETATM    2  C   UNK N   1      22.822  11.493   7.995  0.00  0.00     0.004 A 
HETATM    3  C   UNK N   1      23.478  11.417   9.227  0.00  0.00     0.018 A 
HETATM    4  C   UNK N   1      21.698  12.310   7.852  0.00  0.00     0.037 A 
HETATM    5  C   UNK N   1      21.223  13.056   8.947  0.00  0.00     0.069 A 
HETATM    6  C   UNK N   1      23.009  12.156  10.322  0.00  0.00     0.040 A 
ENDROOT
BRANCH   5   7
HETATM    7  O   UNK N   1      20.144  13.863   8.844  0.00  0.00    -0.351 OA
BRANCH   7   8
HETATM    8  C   UNK N   1      20.225  15.228   8.950  0.00  0.00     0.175 C 
BRANCH   8   9
HETATM    9  C   UNK N   1      20.076  15.852   7.583  0.00  0.00     0.027 C 
BRANCH   9  10
HETATM   10  C   UNK N   1      21.427  16.398   7.197  0.00  0.00     0.002 C 
BRANCH  10  11
HETATM   11  C   UNK N   1      22.072  15.531   6.146  0.00  0.00     0.000 C 
BRANCH  11  12
HETATM   12  C   UNK N   1      23.565  15.728   6.264  0.00  0.00    -0.000 C 
BRANCH  12  13
HETATM   13  C   UNK N   1      24.275  14.397   6.232  0.00  0.00    -0.005 C 
HETATM   14  C   UNK N   1      25.188  14.307   7.435  0.00  0.00     0.005 C 
ENDBRANCH  12  13
ENDBRANCH  11  12
ENDBRANCH  10  11
ENDBRANCH   9  10
ENDBRANCH   8   9
ENDBRANCH   7   8
ENDBRANCH   5   7
BRANCH   6  15
HETATM   15  C   UNK N   1      23.692  12.093  11.626  0.00  0.00     0.176 C 
HETATM   16  O   UNK N   1      23.059  11.846  12.643  0.00  0.00    -0.646 OA
BRANCH  15  17
HETATM   17  O   UNK N   1      25.019  12.303  11.708  0.00  0.00    -0.773 OA
HETATM   18  H   UNK N   1      25.349  13.170  11.839  0.00  0.00     0.167 HD
ENDBRANCH  15  17
ENDBRANCH   6  15
TORSDOF 9
ENDMDL
MODEL 6
REMARK VINA RESULT:      -5.2      7.048     10.583
REMARK  9 active torsions:
REMARK  status: ('A' for Active; 'I' for Inactive)
REMARK    1  A    between atoms: C_4  and  C_12 
REMARK    2  A    between atoms: C_4  and  C_10 
REMARK    3  A    between atoms: C_5  and  C_14 
REMARK    4  A    between atoms: C_5  and  O_17 
REMARK    5  A    between atoms: C_6  and  C_13 
REMARK    6  A    between atoms: C_8  and  C_6 
REMARK    7  A    between atoms: O_16  and  C_8 
REMARK    8  A    between atoms: C_11  and  O_16 
REMARK    9  A    between atoms: C_13  and  C_12 
ROOT
HETATM    1  C   UNK N   1      35.475  15.106  12.250  0.00  0.00     0.055 A 
HETATM    2  C   UNK N   1      37.266  13.537  10.786  0.00  0.00     0.004 A 
HETATM    3  C   UNK N   1      36.661  14.647  10.190  0.00  0.00     0.018 A 
HETATM    4  C   UNK N   1      36.971  13.209  12.112  0.00  0.00     0.037 A 
HETATM    5  C   UNK N   1      36.069  13.997  12.851  0.00  0.00     0.069 A 
HETATM    6  C   UNK N   1      35.763  15.438  10.921  0.00  0.00     0.040 A 
ENDROOT
BRANCH   5   7
HETATM    7  O   UNK N   1      35.754  13.706  14.132  0.00  0.00    -0.351 OA
BRANCH   7   8
HETATM    8  C   UNK N   1      36.677  13.723  15.146  0.00  0.00     0.175 C 
BRANCH   8   9
HETATM    9  C   UNK N   1      35.976  13.547  16.472  0.00  0.00     0.027 C 
BRANCH   9  10
HETATM   10  C   UNK N   1      34.774  12.673  16.224  0.00  0.00     0.002 C 
BRANCH  10  11
HETATM   11  C   UNK N   1      35.060  11.247  16.624  0.00  0.00     0.000 C 
BRANCH  11  12
HETATM   12  C   UNK N   1      34.933  10.403  15.377  0.00  0.00    -0.000 C 
BRANCH  12  13
HETATM   13  C   UNK N   1      33.726  10.827  14.577  0.00  0.00    -0.005 C 
HETATM   14  C   UNK N   1      33.972  10.498  13.121  0.00  0.00     0.005 C 
ENDBRANCH  12  13
ENDBRANCH  11  12
ENDBRANCH  10  11
ENDBRANCH   9  10
ENDBRANCH   8   9
ENDBRANCH   7   8
ENDBRANCH   5   7
BRANCH   6  15
HETATM   15  C   UNK N   1      35.113  16.609  10.307  0.00  0.00     0.176 C 
HETATM   16  O   UNK N   1      35.703  17.677  10.238  0.00  0.00    -0.646 OA
BRANCH  15  17
HETATM   17  O   UNK N   1      33.864  16.510   9.815  0.00  0.00    -0.773 OA
HETATM   18  H   UNK N   1      33.320  17.271   9.761  0.00  0.00     0.167 HD
ENDBRANCH  15  17
ENDBRANCH   6  15
TORSDOF 9
ENDMDL
MODEL 7
REMARK VINA RESULT:      -5.2     10.202     13.225
REMARK  9 active torsions:
REMARK  status: ('A' for Active; 'I' for Inactive)
REMARK    1  A    between atoms: C_4  and  C_12 
REMARK    2  A    between atoms: C_4  and  C_10 
REMARK    3  A    between atoms: C_5  and  C_14 
REMARK    4  A    between atoms: C_5  and  O_17 
REMARK    5  A    between atoms: C_6  and  C_13 
REMARK    6  A    between atoms: C_8  and  C_6 
REMARK    7  A    between atoms: O_16  and  C_8 
REMARK    8  A    between atoms: C_11  and  O_16 
REMARK    9  A    between atoms: C_13  and  C_12 
ROOT
HETATM    1  C   UNK N   1      34.801  13.049  16.437  0.00  0.00     0.055 A 
HETATM    2  C   UNK N   1      34.930  10.267  16.675  0.00  0.00     0.004 A 
HETATM    3  C   UNK N   1      35.132  11.074  17.798  0.00  0.00     0.018 A 
HETATM    4  C   UNK N   1      34.668  10.851  15.433  0.00  0.00     0.037 A 
HETATM    5  C   UNK N   1      34.605  12.251  15.310  0.00  0.00     0.069 A 
HETATM    6  C   UNK N   1      35.067  12.470  17.684  0.00  0.00     0.040 A 
ENDROOT
BRANCH   5   7
HETATM    7  O   UNK N   1      34.362  12.852  14.124  0.00  0.00    -0.351 OA
BRANCH   7   8
HETATM    8  C   UNK N   1      35.057  12.548  12.982  0.00  0.00     0.175 C 
BRANCH   8   9
HETATM    9  C   UNK N   1      36.404  13.229  13.012  0.00  0.00     0.027 C 
BRANCH   9  10
HETATM   10  C   UNK N   1      37.384  12.298  12.346  0.00  0.00     0.002 C 
BRANCH  10  11
HETATM   11  C   UNK N   1      37.337  10.931  12.981  0.00  0.00     0.000 C 
BRANCH  11  12
HETATM   12  C   UNK N   1      38.160  11.002  14.246  0.00  0.00    -0.000 C 
BRANCH  12  13
HETATM   13  C   UNK N   1      38.205   9.653  14.920  0.00  0.00    -0.005 C 
HETATM   14  C   UNK N   1      39.621   9.124  14.847  0.00  0.00     0.005 C 
ENDBRANCH  12  13
ENDBRANCH  11  12
ENDBRANCH  10  11
ENDBRANCH   9  10
ENDBRANCH   8   9
ENDBRANCH   7   8
ENDBRANCH   5   7
BRANCH   6  15
HETATM   15  C   UNK N   1      35.283  13.336  18.856  0.00  0.00     0.176 C 
HETATM   16  O   UNK N   1      35.256  14.553  18.737  0.00  0.00    -0.646 OA
BRANCH  15  17
HETATM   17  O   UNK N   1      35.508  12.794  20.067  0.00  0.00    -0.773 OA
HETATM   18  H   UNK N   1      35.786  13.337  20.779  0.00  0.00     0.167 HD
ENDBRANCH  15  17
ENDBRANCH   6  15
TORSDOF 9
ENDMDL
MODEL 8
REMARK VINA RESULT:      -5.2     12.120     14.791
REMARK  9 active torsions:
REMARK  status: ('A' for Active; 'I' for Inactive)
REMARK    1  A    between atoms: C_4  and  C_12 
REMARK    2  A    between atoms: C_4  and  C_10 
REMARK    3  A    between atoms: C_5  and  C_14 
REMARK    4  A    between atoms: C_5  and  O_17 
REMARK    5  A    between atoms: C_6  and  C_13 
REMARK    6  A    between atoms: C_8  and  C_6 
REMARK    7  A    between atoms: O_16  and  C_8 
REMARK    8  A    between atoms: C_11  and  O_16 
REMARK    9  A    between atoms: C_13  and  C_12 
ROOT
HETATM    1  C   UNK N   1      26.445  26.433  -3.410  0.00  0.00     0.055 A 
HETATM    2  C   UNK N   1      25.276  26.463  -5.949  0.00  0.00     0.004 A 
HETATM    3  C   UNK N   1      25.557  27.666  -5.295  0.00  0.00     0.018 A 
HETATM    4  C   UNK N   1      25.575  25.246  -5.332  0.00  0.00     0.037 A 
HETATM    5  C   UNK N   1      26.162  25.228  -4.053  0.00  0.00     0.069 A 
HETATM    6  C   UNK N   1      26.144  27.656  -4.022  0.00  0.00     0.040 A 
ENDROOT
BRANCH   5   7
HETATM    7  O   UNK N   1      26.459  24.071  -3.421  0.00  0.00    -0.351 OA
BRANCH   7   8
HETATM    8  C   UNK N   1      27.675  23.836  -2.832  0.00  0.00     0.175 C 
BRANCH   8   9
HETATM    9  C   UNK N   1      28.747  23.768  -3.893  0.00  0.00     0.027 C 
BRANCH   9  10
HETATM   10  C   UNK N   1      30.012  24.308  -3.277  0.00  0.00     0.002 C 
BRANCH  10  11
HETATM   11  C   UNK N   1      30.620  25.371  -4.156  0.00  0.00     0.000 C 
BRANCH  11  12
HETATM   12  C   UNK N   1      29.905  26.666  -3.844  0.00  0.00    -0.000 C 
BRANCH  12  13
HETATM   13  C   UNK N   1      29.734  27.487  -5.098  0.00  0.00    -0.005 C 
HETATM   14  C   UNK N   1      29.099  26.617  -6.161  0.00  0.00     0.005 C 
ENDBRANCH  12  13
ENDBRANCH  11  12
ENDBRANCH  10  11
ENDBRANCH   9  10
ENDBRANCH   8   9
ENDBRANCH   7   8
ENDBRANCH   5   7
BRANCH   6  15
HETATM   15  C   UNK N   1      26.442  28.914  -3.315  0.00  0.00     0.176 C 
HETATM   16  O   UNK N   1      27.145  28.908  -2.315  0.00  0.00    -0.646 OA
BRANCH  15  17
HETATM   17  O   UNK N   1      25.946  30.080  -3.769  0.00  0.00    -0.773 OA
HETATM   18  H   UNK N   1      25.092  30.107  -4.154  0.00  0.00     0.167 HD
ENDBRANCH  15  17
ENDBRANCH   6  15
TORSDOF 9
ENDMDL
MODEL 9
REMARK VINA RESULT:      -5.1     11.439     13.822
REMARK  9 active torsions:
REMARK  status: ('A' for Active; 'I' for Inactive)
REMARK    1  A    between atoms: C_4  and  C_12 
REMARK    2  A    between atoms: C_4  and  C_10 
REMARK    3  A    between atoms: C_5  and  C_14 
REMARK    4  A    between atoms: C_5  and  O_17 
REMARK    5  A    between atoms: C_6  and  C_13 
REMARK    6  A    between atoms: C_8  and  C_6 
REMARK    7  A    between atoms: O_16  and  C_8 
REMARK    8  A    between atoms: C_11  and  O_16 
REMARK    9  A    between atoms: C_13  and  C_12 
ROOT
HETATM    1  C   UNK N   1      29.141  23.438  -4.789  0.00  0.00     0.055 A 
HETATM    2  C   UNK N   1      26.821  24.026  -3.346  0.00  0.00     0.004 A 
HETATM    3  C   UNK N   1      28.013  23.751  -2.671  0.00  0.00     0.018 A 
HETATM    4  C   UNK N   1      26.789  24.003  -4.743  0.00  0.00     0.037 A 
HETATM    5  C   UNK N   1      27.955  23.705  -5.472  0.00  0.00     0.069 A 
HETATM    6  C   UNK N   1      29.180  23.457  -3.390  0.00  0.00     0.040 A 
ENDROOT
BRANCH   5   7
HETATM    7  O   UNK N   1      27.960  23.665  -6.822  0.00  0.00    -0.351 OA
BRANCH   7   8
HETATM    8  C   UNK N   1      26.875  24.025  -7.580  0.00  0.00     0.175 C 
BRANCH   8   9
HETATM    9  C   UNK N   1      27.080  25.417  -8.128  0.00  0.00     0.027 C 
BRANCH   9  10
HETATM   10  C   UNK N   1      25.915  26.252  -7.660  0.00  0.00     0.002 C 
BRANCH  10  11
HETATM   11  C   UNK N   1      26.342  27.190  -6.559  0.00  0.00     0.000 C 
BRANCH  11  12
HETATM   12  C   UNK N   1      25.224  27.215  -5.542  0.00  0.00    -0.000 C 
BRANCH  12  13
HETATM   13  C   UNK N   1      25.518  28.229  -4.464  0.00  0.00    -0.005 C 
HETATM   14  C   UNK N   1      25.985  27.495  -3.226  0.00  0.00     0.005 C 
ENDBRANCH  12  13
ENDBRANCH  11  12
ENDBRANCH  10  11
ENDBRANCH   9  10
ENDBRANCH   8   9
ENDBRANCH   7   8
ENDBRANCH   5   7
BRANCH   6  15
HETATM   15  C   UNK N   1      30.444  23.159  -2.694  0.00  0.00     0.176 C 
HETATM   16  O   UNK N   1      30.458  23.003  -1.482  0.00  0.00    -0.646 OA
BRANCH  15  17
HETATM   17  O   UNK N   1      31.592  23.053  -3.389  0.00  0.00    -0.773 OA
HETATM   18  H   UNK N   1      31.813  23.700  -4.030  0.00  0.00     0.167 HD
ENDBRANCH  15  17
ENDBRANCH   6  15
TORSDOF 9
ENDMDL
