REMARK  9 active torsions:
REMARK  status: ('A' for Active; 'I' for Inactive)
REMARK    1  A    between atoms: C_4  and  C_12 
REMARK    2  A    between atoms: C_4  and  C_10 
REMARK    3  A    between atoms: C_5  and  C_14 
REMARK    4  A    between atoms: C_5  and  O_17 
REMARK    5  A    between atoms: C_6  and  C_13 
REMARK    6  A    between atoms: C_8  and  C_6 
REMARK    7  A    between atoms: O_16  and  C_8 
REMARK    8  A    between atoms: C_11  and  O_16 
REMARK    9  A    between atoms: C_13  and  C_12 
ROOT
HETATM    1  C   UNK N   1      -4.824  -1.334   0.034  0.00  0.00     0.055 A 
HETATM    2  C   UNK N   1      -4.840  -4.129   0.004  0.00  0.00     0.004 A 
HETATM    3  C   UNK N   1      -6.046  -3.423  -0.018  0.00  0.00     0.018 A 
HETATM    4  C   UNK N   1      -3.627  -3.437   0.045  0.00  0.00     0.037 A 
HETATM    5  C   UNK N   1      -3.616  -2.030   0.062  0.00  0.00     0.069 A 
HETATM    6  C   UNK N   1      -6.043  -2.021  -0.004  0.00  0.00     0.040 A 
ENDROOT
BRANCH   5   7
HETATM    7  O   UNK N   1      -2.463  -1.327   0.110  0.00  0.00    -0.351 OA
BRANCH   7   8
HETATM    8  C   UNK N   1      -1.229  -1.925   0.136  0.00  0.00     0.175 C 
BRANCH   8   9
HETATM    9  C   UNK N   1      -0.153  -0.866   0.145  0.00  0.00     0.027 C 
BRANCH   9  10
HETATM   10  C   UNK N   1       1.032  -1.434  -0.593  0.00  0.00     0.002 C 
BRANCH  10  11
HETATM   11  C   UNK N   1       2.321  -0.899  -0.022  0.00  0.00     0.000 C 
BRANCH  11  12
HETATM   12  C   UNK N   1       3.294  -2.054   0.033  0.00  0.00    -0.000 C 
BRANCH  12  13
HETATM   13  C   UNK N   1       4.712  -1.543   0.105  0.00  0.00    -0.005 C 
HETATM   14  C   UNK N   1       5.655  -2.724   0.035  0.00  0.00     0.005 C 
ENDBRANCH  12  13
ENDBRANCH  11  12
ENDBRANCH  10  11
ENDBRANCH   9  10
ENDBRANCH   8   9
ENDBRANCH   7   8
ENDBRANCH   5   7
BRANCH   6  15
HETATM   15  C   UNK N   1      -7.305  -1.261  -0.021  0.00  0.00     0.176 C 
HETATM   16  O   UNK N   1      -8.378  -1.847  -0.034  0.00  0.00    -0.646 OA
BRANCH  15  17
HETATM   17  O   UNK N   1      -7.286   0.085  -0.018  0.00  0.00    -0.773 OA
HETATM   18  H   UNK N   1      -6.468   0.542  -0.016  0.00  0.00     0.167 HD
ENDBRANCH  15  17
ENDBRANCH   6  15
TORSDOF 9
