REMARK  5 active torsions:
REMARK  status: ('A' for Active; 'I' for Inactive)
REMARK    1  A    between atoms: C_2  and  C_7 
REMARK    2  A    between atoms: C_3  and  C_8 
REMARK       I    between atoms: C_3  and  N_9 
REMARK    3  A    between atoms: C_7  and  N_12 
REMARK    4  A    between atoms: C_8  and  C_13 
REMARK    5  A    between atoms: C_8  and  N_14 
ROOT
HETATM    1  C   UNK N   1       2.623   1.152   0.089  0.00  0.00     0.166 C 
HETATM    2  C   UNK N   1       1.990  -1.080   0.341  0.00  0.00     0.105 C 
HETATM    3  C   UNK N   1       0.161   0.658  -0.093  0.00  0.00     0.243 C 
HETATM    4  C   UNK N   1       3.549   0.394  -0.847  0.00  0.00     0.040 C 
HETATM    5  C   UNK N   1       2.425   2.567  -0.273  0.00  0.00    -0.092 C 
HETATM    6  C   UNK N   1       3.171  -1.094  -0.639  0.00  0.00     0.030 C 
HETATM    7  N   UNK N   1       1.473   0.264   0.146  0.00  0.00    -0.329 N 
HETATM    8  O   UNK N   1      -0.070   1.825  -0.373  0.00  0.00    -0.271 OA
HETATM    9  C   UNK N   1       2.249   3.729  -0.551  0.00  0.00     0.014 C 
ENDROOT
BRANCH   2  10
HETATM   10  C   UNK N   1       1.090  -2.314   0.219  0.00  0.00     0.136 C 
BRANCH  10  11
HETATM   11  N   UNK N   1       0.867  -2.696  -1.170  0.00  0.00    -0.428 N 
HETATM   12  H   UNK N   1       0.558  -2.695  -2.142  0.00  0.00     0.149 HD
HETATM   13  H   UNK N   1       1.373  -3.581  -1.170  0.00  0.00     0.149 HD
ENDBRANCH  10  11
ENDBRANCH   2  10
BRANCH   3  14
HETATM   14  C   UNK N   1      -1.039  -0.281  -0.001  0.00  0.00     0.171 C 
BRANCH  14  15
HETATM   15  C   UNK N   1      -2.372   0.408  -0.374  0.00  0.00     0.017 C 
HETATM   16  C   UNK N   1      -3.580  -0.500  -0.238  0.00  0.00     0.007 C 
HETATM   17  C   UNK N   1      -4.763   0.443  -0.073  0.00  0.00     0.000 C 
HETATM   18  C   UNK N   1      -4.189   1.833   0.169  0.00  0.00     0.000 C 
HETATM   19  C   UNK N   1      -2.725   1.617   0.467  0.00  0.00     0.007 C 
ENDBRANCH  14  15
BRANCH  14  20
HETATM   20  N   UNK N   1      -1.131  -0.815   1.351  0.00  0.00    -0.418 N 
HETATM   21  H   UNK N   1      -1.487  -0.946   2.298  0.00  0.00     0.150 HD
HETATM   22  H   UNK N   1      -0.347  -1.468   1.351  0.00  0.00     0.150 HD
ENDBRANCH  14  20
ENDBRANCH   3  14
TORSDOF 5
