MODEL 1
REMARK VINA RESULT:      -5.9      0.000      0.000
REMARK  5 active torsions:
REMARK  status: ('A' for Active; 'I' for Inactive)
REMARK    1  A    between atoms: C_2  and  C_7 
REMARK    2  A    between atoms: C_3  and  C_8 
REMARK       I    between atoms: C_3  and  N_9 
REMARK    3  A    between atoms: C_7  and  N_12 
REMARK    4  A    between atoms: C_8  and  C_13 
REMARK    5  A    between atoms: C_8  and  N_14 
ROOT
HETATM    1  C   UNK N   1      35.289  12.200  15.649  0.00  0.00     0.166 C 
HETATM    2  C   UNK N   1      36.696  14.063  15.657  0.00  0.00     0.105 C 
HETATM    3  C   UNK N   1      35.482  13.469  13.483  0.00  0.00     0.243 C 
HETATM    4  C   UNK N   1      34.856  12.989  16.873  0.00  0.00     0.040 C 
HETATM    5  C   UNK N   1      34.247  11.312  15.103  0.00  0.00    -0.092 C 
HETATM    6  C   UNK N   1      35.826  14.196  16.915  0.00  0.00     0.030 C 
HETATM    7  N   UNK N   1      35.845  13.248  14.807  0.00  0.00    -0.329 N 
HETATM    8  O   UNK N   1      34.641  12.748  12.966  0.00  0.00    -0.271 OA
HETATM    9  C   UNK N   1      33.409  10.577  14.640  0.00  0.00     0.014 C 
ENDROOT
BRANCH   2  10
HETATM   10  C   UNK N   1      37.271  15.399  15.176  0.00  0.00     0.136 C 
BRANCH  10  11
HETATM   11  N   UNK N   1      37.502  16.325  16.278  0.00  0.00    -0.428 N 
HETATM   12  H   UNK N   1      37.937  16.830  17.050  0.00  0.00     0.149 HD
HETATM   13  H   UNK N   1      36.601  16.801  16.272  0.00  0.00     0.149 HD
ENDBRANCH  10  11
ENDBRANCH   2  10
BRANCH   3  14
HETATM   14  C   UNK N   1      36.095  14.555  12.603  0.00  0.00     0.171 C 
BRANCH  14  15
HETATM   15  C   UNK N   1      35.099  15.125  11.567  0.00  0.00     0.017 C 
HETATM   16  C   UNK N   1      35.414  16.547  11.144  0.00  0.00     0.007 C 
HETATM   17  C   UNK N   1      34.746  16.710   9.787  0.00  0.00     0.000 C 
HETATM   18  C   UNK N   1      34.317  15.320   9.336  0.00  0.00     0.000 C 
HETATM   19  C   UNK N   1      35.026  14.361  10.262  0.00  0.00     0.007 C 
ENDBRANCH  14  15
BRANCH  14  20
HETATM   20  N   UNK N   1      37.258  14.016  11.911  0.00  0.00    -0.418 N 
HETATM   21  H   UNK N   1      38.230  13.749  11.754  0.00  0.00     0.150 HD
HETATM   22  H   UNK N   1      36.835  13.720  11.031  0.00  0.00     0.150 HD
ENDBRANCH  14  20
ENDBRANCH   3  14
TORSDOF 5
ENDMDL
MODEL 2
REMARK VINA RESULT:      -5.7      9.203     11.973
REMARK  5 active torsions:
REMARK  status: ('A' for Active; 'I' for Inactive)
REMARK    1  A    between atoms: C_2  and  C_7 
REMARK    2  A    between atoms: C_3  and  C_8 
REMARK       I    between atoms: C_3  and  N_9 
REMARK    3  A    between atoms: C_7  and  N_12 
REMARK    4  A    between atoms: C_8  and  C_13 
REMARK    5  A    between atoms: C_8  and  N_14 
ROOT
HETATM    1  C   UNK N   1      30.339  17.000   7.395  0.00  0.00     0.166 C 
HETATM    2  C   UNK N   1      29.777  16.065   5.331  0.00  0.00     0.105 C 
HETATM    3  C   UNK N   1      28.112  17.670   6.430  0.00  0.00     0.243 C 
HETATM    4  C   UNK N   1      31.565  17.240   6.530  0.00  0.00     0.040 C 
HETATM    5  C   UNK N   1      30.200  17.941   8.520  0.00  0.00    -0.092 C 
HETATM    6  C   UNK N   1      31.218  16.570   5.177  0.00  0.00     0.030 C 
HETATM    7  N   UNK N   1      29.286  16.925   6.395  0.00  0.00    -0.329 N 
HETATM    8  O   UNK N   1      27.927  18.449   7.353  0.00  0.00    -0.271 OA
HETATM    9  C   UNK N   1      30.067  18.701   9.449  0.00  0.00     0.014 C 
ENDROOT
BRANCH   2  10
HETATM   10  C   UNK N   1      29.037  15.934   3.996  0.00  0.00     0.136 C 
BRANCH  10  11
HETATM   11  N   UNK N   1      29.583  16.821   2.976  0.00  0.00    -0.428 N 
HETATM   12  H   UNK N   1      30.192  17.465   2.471  0.00  0.00     0.149 HD
HETATM   13  H   UNK N   1      28.834  16.747   2.289  0.00  0.00     0.149 HD
ENDBRANCH  10  11
ENDBRANCH   2  10
BRANCH   3  14
HETATM   14  C   UNK N   1      27.003  17.558   5.387  0.00  0.00     0.171 C 
BRANCH  14  15
HETATM   15  C   UNK N   1      26.452  18.934   4.946  0.00  0.00     0.017 C 
HETATM   16  C   UNK N   1      27.262  19.582   3.839  0.00  0.00     0.007 C 
HETATM   17  C   UNK N   1      26.304  20.558   3.171  0.00  0.00     0.000 C 
HETATM   18  C   UNK N   1      24.913  20.247   3.708  0.00  0.00     0.000 C 
HETATM   19  C   UNK N   1      25.038  18.913   4.402  0.00  0.00     0.007 C 
ENDBRANCH  14  15
BRANCH  14  20
HETATM   20  N   UNK N   1      25.916  16.750   5.924  0.00  0.00    -0.418 N 
HETATM   21  H   UNK N   1      25.246  16.391   6.604  0.00  0.00     0.150 HD
HETATM   22  H   UNK N   1      25.671  16.193   5.105  0.00  0.00     0.150 HD
ENDBRANCH  14  20
ENDBRANCH   3  14
TORSDOF 5
ENDMDL
MODEL 3
REMARK VINA RESULT:      -5.6      8.171     11.533
REMARK  5 active torsions:
REMARK  status: ('A' for Active; 'I' for Inactive)
REMARK    1  A    between atoms: C_2  and  C_7 
REMARK    2  A    between atoms: C_3  and  C_8 
REMARK       I    between atoms: C_3  and  N_9 
REMARK    3  A    between atoms: C_7  and  N_12 
REMARK    4  A    between atoms: C_8  and  C_13 
REMARK    5  A    between atoms: C_8  and  N_14 
ROOT
HETATM    1  C   UNK N   1      32.124  16.767   6.047  0.00  0.00     0.166 C 
HETATM    2  C   UNK N   1      30.635  16.543   4.264  0.00  0.00     0.105 C 
HETATM    3  C   UNK N   1      29.763  17.537   6.456  0.00  0.00     0.243 C 
HETATM    4  C   UNK N   1      32.857  17.387   4.869  0.00  0.00     0.040 C 
HETATM    5  C   UNK N   1      32.574  17.256   7.362  0.00  0.00    -0.092 C 
HETATM    6  C   UNK N   1      31.896  17.188   3.671  0.00  0.00     0.030 C 
HETATM    7  N   UNK N   1      30.736  16.948   5.656  0.00  0.00    -0.329 N 
HETATM    8  O   UNK N   1      30.069  17.940   7.568  0.00  0.00    -0.271 OA
HETATM    9  C   UNK N   1      32.927  17.643   8.451  0.00  0.00     0.014 C 
ENDROOT
BRANCH   2  10
HETATM   10  C   UNK N   1      29.374  16.812   3.437  0.00  0.00     0.136 C 
BRANCH  10  11
HETATM   11  N   UNK N   1      28.947  15.635   2.689  0.00  0.00    -0.428 N 
HETATM   12  H   UNK N   1      28.829  14.941   1.952  0.00  0.00     0.149 HD
HETATM   13  H   UNK N   1      28.350  15.210   3.398  0.00  0.00     0.149 HD
ENDBRANCH  10  11
ENDBRANCH   2  10
BRANCH   3  14
HETATM   14  C   UNK N   1      28.302  17.694   6.042  0.00  0.00     0.171 C 
BRANCH  14  15
HETATM   15  C   UNK N   1      27.941  19.145   5.648  0.00  0.00     0.017 C 
HETATM   16  C   UNK N   1      26.841  19.232   4.606  0.00  0.00     0.007 C 
HETATM   17  C   UNK N   1      26.248  20.623   4.777  0.00  0.00     0.000 C 
HETATM   18  C   UNK N   1      26.810  21.186   6.076  0.00  0.00     0.000 C 
HETATM   19  C   UNK N   1      27.439  20.011   6.784  0.00  0.00     0.007 C 
ENDBRANCH  14  15
BRANCH  14  20
HETATM   20  N   UNK N   1      27.442  17.260   7.134  0.00  0.00    -0.418 N 
HETATM   21  H   UNK N   1      26.690  16.760   7.609  0.00  0.00     0.150 HD
HETATM   22  H   UNK N   1      27.842  17.785   7.911  0.00  0.00     0.150 HD
ENDBRANCH  14  20
ENDBRANCH   3  14
TORSDOF 5
ENDMDL
MODEL 4
REMARK VINA RESULT:      -5.5     10.129     12.600
REMARK  5 active torsions:
REMARK  status: ('A' for Active; 'I' for Inactive)
REMARK    1  A    between atoms: C_2  and  C_7 
REMARK    2  A    between atoms: C_3  and  C_8 
REMARK       I    between atoms: C_3  and  N_9 
REMARK    3  A    between atoms: C_7  and  N_12 
REMARK    4  A    between atoms: C_8  and  C_13 
REMARK    5  A    between atoms: C_8  and  N_14 
ROOT
HETATM    1  C   UNK N   1      26.093  20.401   5.176  0.00  0.00     0.166 C 
HETATM    2  C   UNK N   1      27.250  19.724   7.086  0.00  0.00     0.105 C 
HETATM    3  C   UNK N   1      27.650  18.441   4.906  0.00  0.00     0.243 C 
HETATM    4  C   UNK N   1      26.690  21.685   5.724  0.00  0.00     0.040 C 
HETATM    5  C   UNK N   1      25.799  20.440   3.732  0.00  0.00    -0.092 C 
HETATM    6  C   UNK N   1      27.411  21.249   7.025  0.00  0.00     0.030 C 
HETATM    7  N   UNK N   1      27.020  19.404   5.687  0.00  0.00    -0.329 N 
HETATM    8  O   UNK N   1      27.427  18.407   3.705  0.00  0.00    -0.271 OA
HETATM    9  C   UNK N   1      25.550  20.451   2.550  0.00  0.00     0.014 C 
ENDROOT
BRANCH   2  10
HETATM   10  C   UNK N   1      28.350  19.033   7.898  0.00  0.00     0.136 C 
BRANCH  10  11
HETATM   11  N   UNK N   1      27.817  18.334   9.061  0.00  0.00    -0.428 N 
HETATM   12  H   UNK N   1      27.244  17.743   9.663  0.00  0.00     0.149 HD
HETATM   13  H   UNK N   1      28.478  18.671   9.761  0.00  0.00     0.149 HD
ENDBRANCH  10  11
ENDBRANCH   2  10
BRANCH   3  14
HETATM   14  C   UNK N   1      28.599  17.383   5.463  0.00  0.00     0.171 C 
BRANCH  14  15
HETATM   15  C   UNK N   1      30.059  17.576   4.990  0.00  0.00     0.017 C 
HETATM   16  C   UNK N   1      31.088  17.195   6.037  0.00  0.00     0.007 C 
HETATM   17  C   UNK N   1      32.356  16.897   5.250  0.00  0.00     0.000 C 
HETATM   18  C   UNK N   1      31.959  16.831   3.781  0.00  0.00     0.000 C 
HETATM   19  C   UNK N   1      30.451  16.760   3.776  0.00  0.00     0.007 C 
ENDBRANCH  14  15
BRANCH  14  20
HETATM   20  N   UNK N   1      28.133  16.061   5.069  0.00  0.00    -0.418 N 
HETATM   21  H   UNK N   1      27.920  15.066   5.149  0.00  0.00     0.150 HD
HETATM   22  H   UNK N   1      27.826  16.244   4.114  0.00  0.00     0.150 HD
ENDBRANCH  14  20
ENDBRANCH   3  14
TORSDOF 5
ENDMDL
MODEL 5
REMARK VINA RESULT:      -5.5      2.508      4.157
REMARK  5 active torsions:
REMARK  status: ('A' for Active; 'I' for Inactive)
REMARK    1  A    between atoms: C_2  and  C_7 
REMARK    2  A    between atoms: C_3  and  C_8 
REMARK       I    between atoms: C_3  and  N_9 
REMARK    3  A    between atoms: C_7  and  N_12 
REMARK    4  A    between atoms: C_8  and  C_13 
REMARK    5  A    between atoms: C_8  and  N_14 
ROOT
HETATM    1  C   UNK N   1      34.255  11.466  14.994  0.00  0.00     0.166 C 
HETATM    2  C   UNK N   1      34.137  10.552  12.850  0.00  0.00     0.105 C 
HETATM    3  C   UNK N   1      34.963  12.963  13.097  0.00  0.00     0.243 C 
HETATM    4  C   UNK N   1      34.965  10.129  15.119  0.00  0.00     0.040 C 
HETATM    5  C   UNK N   1      34.657  12.461  16.005  0.00  0.00    -0.092 C 
HETATM    6  C   UNK N   1      34.838   9.494  13.712  0.00  0.00     0.030 C 
HETATM    7  N   UNK N   1      34.444  11.768  13.584  0.00  0.00    -0.329 N 
HETATM    8  O   UNK N   1      35.291  13.836  13.886  0.00  0.00    -0.271 OA
HETATM    9  C   UNK N   1      34.971  13.290  16.824  0.00  0.00     0.014 C 
ENDROOT
BRANCH   2  10
HETATM   10  C   UNK N   1      34.446  10.414  11.356  0.00  0.00     0.136 C 
BRANCH  10  11
HETATM   11  N   UNK N   1      35.578   9.531  11.108  0.00  0.00    -0.428 N 
HETATM   12  H   UNK N   1      36.367   8.899  11.243  0.00  0.00     0.149 HD
HETATM   13  H   UNK N   1      35.591   9.578  10.090  0.00  0.00     0.149 HD
ENDBRANCH  10  11
ENDBRANCH   2  10
BRANCH   3  14
HETATM   14  C   UNK N   1      35.129  13.275  11.612  0.00  0.00     0.171 C 
BRANCH  14  15
HETATM   15  C   UNK N   1      36.565  13.717  11.247  0.00  0.00     0.017 C 
HETATM   16  C   UNK N   1      37.592  12.609  11.385  0.00  0.00     0.007 C 
HETATM   17  C   UNK N   1      38.742  13.025  10.478  0.00  0.00     0.000 C 
HETATM   18  C   UNK N   1      38.240  14.190   9.635  0.00  0.00     0.000 C 
HETATM   19  C   UNK N   1      36.742  14.208   9.825  0.00  0.00     0.007 C 
ENDBRANCH  14  15
BRANCH  14  20
HETATM   20  N   UNK N   1      34.188  14.319  11.231  0.00  0.00    -0.418 N 
HETATM   21  H   UNK N   1      33.640  15.176  11.304  0.00  0.00     0.150 HD
HETATM   22  H   UNK N   1      33.890  13.981  10.315  0.00  0.00     0.150 HD
ENDBRANCH  14  20
ENDBRANCH   3  14
TORSDOF 5
ENDMDL
MODEL 6
REMARK VINA RESULT:      -5.4     20.300     23.836
REMARK  5 active torsions:
REMARK  status: ('A' for Active; 'I' for Inactive)
REMARK    1  A    between atoms: C_2  and  C_7 
REMARK    2  A    between atoms: C_3  and  C_8 
REMARK       I    between atoms: C_3  and  N_9 
REMARK    3  A    between atoms: C_7  and  N_12 
REMARK    4  A    between atoms: C_8  and  C_13 
REMARK    5  A    between atoms: C_8  and  N_14 
ROOT
HETATM    1  C   UNK N   1      26.573  27.699  -6.163  0.00  0.00     0.166 C 
HETATM    2  C   UNK N   1      25.957  25.448  -6.180  0.00  0.00     0.105 C 
HETATM    3  C   UNK N   1      28.376  26.040  -5.587  0.00  0.00     0.243 C 
HETATM    4  C   UNK N   1      25.303  27.653  -5.330  0.00  0.00     0.040 C 
HETATM    5  C   UNK N   1      27.450  28.845  -5.863  0.00  0.00    -0.092 C 
HETATM    6  C   UNK N   1      24.859  26.170  -5.387  0.00  0.00     0.030 C 
HETATM    7  N   UNK N   1      27.083  26.348  -5.994  0.00  0.00    -0.329 N 
HETATM    8  O   UNK N   1      29.159  26.947  -5.348  0.00  0.00    -0.271 OA
HETATM    9  C   UNK N   1      28.184  29.776  -5.634  0.00  0.00     0.014 C 
ENDROOT
BRANCH   2  10
HETATM   10  C   UNK N   1      26.057  23.955  -5.850  0.00  0.00     0.136 C 
BRANCH  10  11
HETATM   11  N   UNK N   1      25.360  23.128  -6.827  0.00  0.00    -0.428 N 
HETATM   12  H   UNK N   1      24.832  22.825  -7.645  0.00  0.00     0.149 HD
HETATM   13  H   UNK N   1      25.494  22.220  -6.385  0.00  0.00     0.149 HD
ENDBRANCH  10  11
ENDBRANCH   2  10
BRANCH   3  14
HETATM   14  C   UNK N   1      28.905  24.615  -5.442  0.00  0.00     0.171 C 
BRANCH  14  15
HETATM   15  C   UNK N   1      29.484  24.329  -4.037  0.00  0.00     0.017 C 
HETATM   16  C   UNK N   1      28.477  23.716  -3.082  0.00  0.00     0.007 C 
HETATM   17  C   UNK N   1      29.317  23.002  -2.032  0.00  0.00     0.000 C 
HETATM   18  C   UNK N   1      30.747  22.974  -2.555  0.00  0.00     0.000 C 
HETATM   19  C   UNK N   1      30.651  23.364  -4.010  0.00  0.00     0.007 C 
ENDBRANCH  14  15
BRANCH  14  20
HETATM   20  N   UNK N   1      29.932  24.377  -6.447  0.00  0.00    -0.418 N 
HETATM   21  H   UNK N   1      30.766  24.543  -7.011  0.00  0.00     0.150 HD
HETATM   22  H   UNK N   1      29.623  23.481  -6.825  0.00  0.00     0.150 HD
ENDBRANCH  14  20
ENDBRANCH   3  14
TORSDOF 5
ENDMDL
MODEL 7
REMARK VINA RESULT:      -5.3      9.428     12.638
REMARK  5 active torsions:
REMARK  status: ('A' for Active; 'I' for Inactive)
REMARK    1  A    between atoms: C_2  and  C_7 
REMARK    2  A    between atoms: C_3  and  C_8 
REMARK       I    between atoms: C_3  and  N_9 
REMARK    3  A    between atoms: C_7  and  N_12 
REMARK    4  A    between atoms: C_8  and  C_13 
REMARK    5  A    between atoms: C_8  and  N_14 
ROOT
HETATM    1  C   UNK N   1      25.693  18.225   3.936  0.00  0.00     0.166 C 
HETATM    2  C   UNK N   1      26.300  19.755   5.591  0.00  0.00     0.105 C 
HETATM    3  C   UNK N   1      27.309  17.404   5.683  0.00  0.00     0.243 C 
HETATM    4  C   UNK N   1      26.087  19.473   3.164  0.00  0.00     0.040 C 
HETATM    5  C   UNK N   1      25.804  16.976   3.162  0.00  0.00    -0.092 C 
HETATM    6  C   UNK N   1      26.435  20.510   4.261  0.00  0.00     0.030 C 
HETATM    7  N   UNK N   1      26.468  18.379   5.157  0.00  0.00    -0.329 N 
HETATM    8  O   UNK N   1      27.424  16.336   5.099  0.00  0.00    -0.271 OA
HETATM    9  C   UNK N   1      25.887  15.940   2.547  0.00  0.00     0.014 C 
ENDROOT
BRANCH   2  10
HETATM   10  C   UNK N   1      27.151  20.355   6.714  0.00  0.00     0.136 C 
BRANCH  10  11
HETATM   11  N   UNK N   1      26.347  20.741   7.867  0.00  0.00    -0.428 N 
HETATM   12  H   UNK N   1      25.556  20.925   8.484  0.00  0.00     0.149 HD
HETATM   13  H   UNK N   1      27.100  21.024   8.493  0.00  0.00     0.149 HD
ENDBRANCH  10  11
ENDBRANCH   2  10
BRANCH   3  14
HETATM   14  C   UNK N   1      28.095  17.570   6.981  0.00  0.00     0.171 C 
BRANCH  14  15
HETATM   15  C   UNK N   1      29.489  16.902   6.930  0.00  0.00     0.017 C 
HETATM   16  C   UNK N   1      30.368  17.423   5.809  0.00  0.00     0.007 C 
HETATM   17  C   UNK N   1      31.791  17.117   6.253  0.00  0.00     0.000 C 
HETATM   18  C   UNK N   1      31.718  16.700   7.716  0.00  0.00     0.000 C 
HETATM   19  C   UNK N   1      30.332  17.086   8.174  0.00  0.00     0.007 C 
ENDBRANCH  14  15
BRANCH  14  20
HETATM   20  N   UNK N   1      27.328  17.009   8.084  0.00  0.00    -0.418 N 
HETATM   21  H   UNK N   1      26.972  16.898   9.034  0.00  0.00     0.150 HD
HETATM   22  H   UNK N   1      26.841  16.248   7.609  0.00  0.00     0.150 HD
ENDBRANCH  14  20
ENDBRANCH   3  14
TORSDOF 5
ENDMDL
MODEL 8
REMARK VINA RESULT:      -5.3     20.251     23.645
REMARK  5 active torsions:
REMARK  status: ('A' for Active; 'I' for Inactive)
REMARK    1  A    between atoms: C_2  and  C_7 
REMARK    2  A    between atoms: C_3  and  C_8 
REMARK       I    between atoms: C_3  and  N_9 
REMARK    3  A    between atoms: C_7  and  N_12 
REMARK    4  A    between atoms: C_8  and  C_13 
REMARK    5  A    between atoms: C_8  and  N_14 
ROOT
HETATM    1  C   UNK N   1      26.332  28.080  -5.335  0.00  0.00     0.166 C 
HETATM    2  C   UNK N   1      26.798  26.129  -6.526  0.00  0.00     0.105 C 
HETATM    3  C   UNK N   1      28.434  26.851  -4.694  0.00  0.00     0.243 C 
HETATM    4  C   UNK N   1      25.033  27.295  -5.287  0.00  0.00     0.040 C 
HETATM    5  C   UNK N   1      26.493  29.048  -4.235  0.00  0.00    -0.092 C 
HETATM    6  C   UNK N   1      25.320  26.025  -6.126  0.00  0.00     0.030 C 
HETATM    7  N   UNK N   1      27.311  27.017  -5.497  0.00  0.00    -0.329 N 
HETATM    8  O   UNK N   1      28.636  27.638  -3.781  0.00  0.00    -0.271 OA
HETATM    9  C   UNK N   1      26.646  29.848  -3.343  0.00  0.00     0.014 C 
ENDROOT
BRANCH   2  10
HETATM   10  C   UNK N   1      27.444  24.768  -6.809  0.00  0.00     0.136 C 
BRANCH  10  11
HETATM   11  N   UNK N   1      26.616  23.661  -6.348  0.00  0.00    -0.428 N 
HETATM   12  H   UNK N   1      25.839  23.117  -5.972  0.00  0.00     0.149 HD
HETATM   13  H   UNK N   1      27.268  22.897  -6.523  0.00  0.00     0.149 HD
ENDBRANCH  10  11
ENDBRANCH   2  10
BRANCH   3  14
HETATM   14  C   UNK N   1      29.468  25.747  -4.896  0.00  0.00     0.171 C 
BRANCH  14  15
HETATM   15  C   UNK N   1      29.699  24.899  -3.623  0.00  0.00     0.017 C 
HETATM   16  C   UNK N   1      28.574  23.924  -3.334  0.00  0.00     0.007 C 
HETATM   17  C   UNK N   1      29.204  22.844  -2.466  0.00  0.00     0.000 C 
HETATM   18  C   UNK N   1      30.711  23.062  -2.514  0.00  0.00     0.000 C 
HETATM   19  C   UNK N   1      30.940  24.031  -3.649  0.00  0.00     0.007 C 
ENDBRANCH  14  15
BRANCH  14  20
HETATM   20  N   UNK N   1      30.729  26.338  -5.320  0.00  0.00    -0.418 N 
HETATM   21  H   UNK N   1      31.383  27.055  -5.635  0.00  0.00     0.150 HD
HETATM   22  H   UNK N   1      31.345  25.526  -5.273  0.00  0.00     0.150 HD
ENDBRANCH  14  20
ENDBRANCH   3  14
TORSDOF 5
ENDMDL
MODEL 9
REMARK VINA RESULT:      -5.2     20.145     23.905
REMARK  5 active torsions:
REMARK  status: ('A' for Active; 'I' for Inactive)
REMARK    1  A    between atoms: C_2  and  C_7 
REMARK    2  A    between atoms: C_3  and  C_8 
REMARK       I    between atoms: C_3  and  N_9 
REMARK    3  A    between atoms: C_7  and  N_12 
REMARK    4  A    between atoms: C_8  and  C_13 
REMARK    5  A    between atoms: C_8  and  N_14 
ROOT
HETATM    1  C   UNK N   1      27.113  27.279  -7.316  0.00  0.00     0.166 C 
HETATM    2  C   UNK N   1      26.872  27.883  -5.075  0.00  0.00     0.105 C 
HETATM    3  C   UNK N   1      27.485  25.457  -5.618  0.00  0.00     0.243 C 
HETATM    4  C   UNK N   1      27.957  28.534  -7.175  0.00  0.00     0.040 C 
HETATM    5  C   UNK N   1      27.517  26.402  -8.430  0.00  0.00    -0.092 C 
HETATM    6  C   UNK N   1      27.753  28.971  -5.703  0.00  0.00     0.030 C 
HETATM    7  N   UNK N   1      27.133  26.759  -5.958  0.00  0.00    -0.329 N 
HETATM    8  O   UNK N   1      27.805  24.675  -6.502  0.00  0.00    -0.271 OA
HETATM    9  C   UNK N   1      27.830  25.670  -9.338  0.00  0.00     0.014 C 
ENDROOT
BRANCH   2  10
HETATM   10  C   UNK N   1      27.043  27.769  -3.556  0.00  0.00     0.136 C 
BRANCH  10  11
HETATM   11  N   UNK N   1      25.764  27.776  -2.857  0.00  0.00    -0.428 N 
HETATM   12  H   UNK N   1      24.860  27.493  -2.479  0.00  0.00     0.149 HD
HETATM   13  H   UNK N   1      25.795  28.726  -2.488  0.00  0.00     0.149 HD
ENDBRANCH  10  11
ENDBRANCH   2  10
BRANCH   3  14
HETATM   14  C   UNK N   1      27.473  24.918  -4.190  0.00  0.00     0.171 C 
BRANCH  14  15
HETATM   15  C   UNK N   1      28.671  23.989  -3.887  0.00  0.00     0.017 C 
HETATM   16  C   UNK N   1      30.013  24.696  -3.942  0.00  0.00     0.007 C 
HETATM   17  C   UNK N   1      30.942  23.841  -3.093  0.00  0.00     0.000 C 
HETATM   18  C   UNK N   1      30.065  22.843  -2.348  0.00  0.00     0.000 C 
HETATM   19  C   UNK N   1      28.652  23.345  -2.517  0.00  0.00     0.007 C 
ENDBRANCH  14  15
BRANCH  14  20
HETATM   20  N   UNK N   1      26.229  24.197  -3.957  0.00  0.00    -0.418 N 
HETATM   21  H   UNK N   1      25.553  23.600  -3.481  0.00  0.00     0.150 HD
HETATM   22  H   UNK N   1      25.706  24.445  -4.797  0.00  0.00     0.150 HD
ENDBRANCH  14  20
ENDBRANCH   3  14
TORSDOF 5
ENDMDL
