MODEL 1
REMARK VINA RESULT:      -5.6      0.000      0.000
REMARK  11 active torsions:
REMARK  status: ('A' for Active; 'I' for Inactive)
REMARK    1  A    between atoms: C_1  and  O_2 
REMARK    2  A    between atoms: O_2  and  C_13 
REMARK    3  A    between atoms: C_3  and  O_4 
REMARK    4  A    between atoms: C_5  and  N_12 
REMARK    5  A    between atoms: C_6  and  O_7 
REMARK    6  A    between atoms: C_8  and  C_10 
REMARK    7  A    between atoms: C_10  and  O_11 
REMARK    8  A    between atoms: C_13  and  C_14 
REMARK    9  A    between atoms: C_14  and  C_15 
REMARK   10  A    between atoms: C_15  and  C_16 
REMARK   11  A    between atoms: C_16  and  C_17 
ROOT
HETATM    1  C   UNK N   1      22.330  19.411   3.784  0.00  0.00     0.291 C 
HETATM    2  C   UNK N   1      21.943  20.232   2.524  0.00  0.00     0.198 C 
HETATM    3  C   UNK N   1      20.416  20.206   2.382  0.00  0.00     0.139 C 
HETATM    4  C   UNK N   1      19.925  18.755   2.377  0.00  0.00     0.174 C 
HETATM    5  C   UNK N   1      20.451  18.039   3.638  0.00  0.00     0.179 C 
HETATM    6  O   UNK N   1      21.877  18.071   3.670  0.00  0.00    -0.349 OA
ENDROOT
BRANCH   1   7
HETATM    7  O   UNK N   1      23.715  19.436   4.113  0.00  0.00    -0.359 OA
BRANCH   7   8
HETATM    8  C   UNK N   1      24.301  18.164   4.008  0.00  0.00     0.171 C 
BRANCH   8   9
HETATM    9  C   UNK N   1      25.736  18.315   3.512  0.00  0.00     0.026 C 
BRANCH   9  10
HETATM   10  C   UNK N   1      26.153  19.777   3.536  0.00  0.00     0.002 C 
BRANCH  10  11
HETATM   11  C   UNK N   1      27.507  19.950   4.199  0.00  0.00    -0.000 C 
BRANCH  11  12
HETATM   12  C   UNK N   1      27.350  20.022   5.704  0.00  0.00    -0.005 C 
HETATM   13  C   UNK N   1      26.606  21.287   6.075  0.00  0.00     0.005 C 
ENDBRANCH  11  12
ENDBRANCH  10  11
ENDBRANCH   9  10
ENDBRANCH   8   9
ENDBRANCH   7   8
ENDBRANCH   1   7
BRANCH   2  14
HETATM   14  O   UNK N   1      22.372  21.553   2.649  0.00  0.00    -0.388 OA
HETATM   15  H   UNK N   1      23.126  21.905   3.146  0.00  0.00     0.210 HD
ENDBRANCH   2  14
BRANCH   3  16
HETATM   16  N   UNK N   1      20.013  20.885   1.159  0.00  0.00    -0.421 N 
HETATM   17  H   UNK N   1      20.091  20.477   0.228  0.00  0.00     0.150 HD
HETATM   18  H   UNK N   1      19.630  21.827   1.238  0.00  0.00     0.150 HD
ENDBRANCH   3  16
BRANCH   5  19
HETATM   19  C   UNK N   1      19.985  16.587   3.631  0.00  0.00     0.198 C 
BRANCH  19  20
HETATM   20  O   UNK N   1      18.774  16.462   4.312  0.00  0.00    -0.398 OA
HETATM   21  H   UNK N   1      17.961  16.930   4.065  0.00  0.00     0.209 HD
ENDBRANCH  19  20
ENDBRANCH   5  19
BRANCH   4  22
HETATM   22  O   UNK N   1      18.525  18.736   2.357  0.00  0.00    -0.391 OA
HETATM   23  H   UNK N   1      17.997  19.499   2.639  0.00  0.00     0.210 HD
ENDBRANCH   4  22
TORSDOF 11
ENDMDL
MODEL 2
REMARK VINA RESULT:      -5.5      1.735      2.195
REMARK  11 active torsions:
REMARK  status: ('A' for Active; 'I' for Inactive)
REMARK    1  A    between atoms: C_1  and  O_2 
REMARK    2  A    between atoms: O_2  and  C_13 
REMARK    3  A    between atoms: C_3  and  O_4 
REMARK    4  A    between atoms: C_5  and  N_12 
REMARK    5  A    between atoms: C_6  and  O_7 
REMARK    6  A    between atoms: C_8  and  C_10 
REMARK    7  A    between atoms: C_10  and  O_11 
REMARK    8  A    between atoms: C_13  and  C_14 
REMARK    9  A    between atoms: C_14  and  C_15 
REMARK   10  A    between atoms: C_15  and  C_16 
REMARK   11  A    between atoms: C_16  and  C_17 
ROOT
HETATM    1  C   UNK N   1      21.720  19.989   2.807  0.00  0.00     0.291 C 
HETATM    2  C   UNK N   1      21.087  19.114   1.691  0.00  0.00     0.198 C 
HETATM    3  C   UNK N   1      19.838  18.432   2.263  0.00  0.00     0.139 C 
HETATM    4  C   UNK N   1      20.208  17.672   3.541  0.00  0.00     0.174 C 
HETATM    5  C   UNK N   1      20.901  18.639   4.523  0.00  0.00     0.179 C 
HETATM    6  O   UNK N   1      22.073  19.195   3.928  0.00  0.00    -0.349 OA
ENDROOT
BRANCH   1   7
HETATM    7  O   UNK N   1      22.830  20.777   2.392  0.00  0.00    -0.359 OA
BRANCH   7   8
HETATM    8  C   UNK N   1      23.952  20.575   3.213  0.00  0.00     0.171 C 
BRANCH   8   9
HETATM    9  C   UNK N   1      25.204  20.524   2.343  0.00  0.00     0.026 C 
BRANCH   9  10
HETATM   10  C   UNK N   1      26.453  20.600   3.207  0.00  0.00     0.002 C 
BRANCH  10  11
HETATM   11  C   UNK N   1      26.613  19.350   4.051  0.00  0.00    -0.000 C 
BRANCH  11  12
HETATM   12  C   UNK N   1      27.234  19.694   5.389  0.00  0.00    -0.005 C 
HETATM   13  C   UNK N   1      27.108  21.182   5.638  0.00  0.00     0.005 C 
ENDBRANCH  11  12
ENDBRANCH  10  11
ENDBRANCH   9  10
ENDBRANCH   8   9
ENDBRANCH   7   8
ENDBRANCH   1   7
BRANCH   2  14
HETATM   14  O   UNK N   1      20.722  19.900   0.599  0.00  0.00    -0.388 OA
HETATM   15  H   UNK N   1      20.943  19.784  -0.337  0.00  0.00     0.210 HD
ENDBRANCH   2  14
BRANCH   3  16
HETATM   16  N   UNK N   1      19.264  17.525   1.280  0.00  0.00    -0.421 N 
HETATM   17  H   UNK N   1      19.795  17.091   0.525  0.00  0.00     0.150 HD
HETATM   18  H   UNK N   1      18.269  17.311   1.349  0.00  0.00     0.150 HD
ENDBRANCH   3  16
BRANCH   5  19
HETATM   19  C   UNK N   1      21.293  17.888   5.789  0.00  0.00     0.198 C 
BRANCH  19  20
HETATM   20  O   UNK N   1      21.025  18.663   6.918  0.00  0.00    -0.398 OA
HETATM   21  H   UNK N   1      21.508  18.587   7.756  0.00  0.00     0.209 HD
ENDBRANCH  19  20
ENDBRANCH   5  19
BRANCH   4  22
HETATM   22  O   UNK N   1      19.049  17.141   4.122  0.00  0.00    -0.391 OA
HETATM   23  H   UNK N   1      18.932  16.187   4.253  0.00  0.00     0.210 HD
ENDBRANCH   4  22
TORSDOF 11
ENDMDL
MODEL 3
REMARK VINA RESULT:      -5.4      1.783      2.921
REMARK  11 active torsions:
REMARK  status: ('A' for Active; 'I' for Inactive)
REMARK    1  A    between atoms: C_1  and  O_2 
REMARK    2  A    between atoms: O_2  and  C_13 
REMARK    3  A    between atoms: C_3  and  O_4 
REMARK    4  A    between atoms: C_5  and  N_12 
REMARK    5  A    between atoms: C_6  and  O_7 
REMARK    6  A    between atoms: C_8  and  C_10 
REMARK    7  A    between atoms: C_10  and  O_11 
REMARK    8  A    between atoms: C_13  and  C_14 
REMARK    9  A    between atoms: C_14  and  C_15 
REMARK   10  A    between atoms: C_15  and  C_16 
REMARK   11  A    between atoms: C_16  and  C_17 
ROOT
HETATM    1  C   UNK N   1      22.538  18.545   3.728  0.00  0.00     0.291 C 
HETATM    2  C   UNK N   1      21.431  17.726   4.447  0.00  0.00     0.198 C 
HETATM    3  C   UNK N   1      20.375  17.328   3.409  0.00  0.00     0.139 C 
HETATM    4  C   UNK N   1      19.874  18.579   2.680  0.00  0.00     0.174 C 
HETATM    5  C   UNK N   1      21.081  19.337   2.089  0.00  0.00     0.179 C 
HETATM    6  O   UNK N   1      21.991  19.707   3.124  0.00  0.00    -0.349 OA
ENDROOT
BRANCH   1   7
HETATM    7  O   UNK N   1      23.651  18.892   4.544  0.00  0.00    -0.359 OA
BRANCH   7   8
HETATM    8  C   UNK N   1      24.864  18.795   3.843  0.00  0.00     0.171 C 
BRANCH   8   9
HETATM    9  C   UNK N   1      25.343  20.196   3.477  0.00  0.00     0.026 C 
BRANCH   9  10
HETATM   10  C   UNK N   1      26.842  20.320   3.703  0.00  0.00     0.002 C 
BRANCH  10  11
HETATM   11  C   UNK N   1      27.230  19.832   5.087  0.00  0.00    -0.000 C 
BRANCH  11  12
HETATM   12  C   UNK N   1      27.677  20.995   5.948  0.00  0.00    -0.005 C 
HETATM   13  C   UNK N   1      26.500  21.516   6.746  0.00  0.00     0.005 C 
ENDBRANCH  11  12
ENDBRANCH  10  11
ENDBRANCH   9  10
ENDBRANCH   8   9
ENDBRANCH   7   8
ENDBRANCH   1   7
BRANCH   2  14
HETATM   14  O   UNK N   1      21.968  16.574   5.021  0.00  0.00    -0.388 OA
HETATM   15  H   UNK N   1      22.341  15.793   4.585  0.00  0.00     0.210 HD
ENDBRANCH   2  14
BRANCH   3  16
HETATM   16  N   UNK N   1      19.268  16.638   4.055  0.00  0.00    -0.421 N 
HETATM   17  H   UNK N   1      19.355  16.102   4.918  0.00  0.00     0.150 HD
HETATM   18  H   UNK N   1      18.348  16.695   3.619  0.00  0.00     0.150 HD
ENDBRANCH   3  16
BRANCH   5  19
HETATM   19  C   UNK N   1      20.595  20.596   1.380  0.00  0.00     0.198 C 
BRANCH  19  20
HETATM   20  O   UNK N   1      20.569  20.398  -0.001  0.00  0.00    -0.398 OA
HETATM   21  H   UNK N   1      19.769  20.178  -0.503  0.00  0.00     0.209 HD
ENDBRANCH  19  20
ENDBRANCH   5  19
BRANCH   4  22
HETATM   22  O   UNK N   1      18.991  18.204   1.659  0.00  0.00    -0.391 OA
HETATM   23  H   UNK N   1      19.192  17.478   1.048  0.00  0.00     0.210 HD
ENDBRANCH   4  22
TORSDOF 11
ENDMDL
MODEL 4
REMARK VINA RESULT:      -5.0      7.082     10.551
REMARK  11 active torsions:
REMARK  status: ('A' for Active; 'I' for Inactive)
REMARK    1  A    between atoms: C_1  and  O_2 
REMARK    2  A    between atoms: O_2  and  C_13 
REMARK    3  A    between atoms: C_3  and  O_4 
REMARK    4  A    between atoms: C_5  and  N_12 
REMARK    5  A    between atoms: C_6  and  O_7 
REMARK    6  A    between atoms: C_8  and  C_10 
REMARK    7  A    between atoms: C_10  and  O_11 
REMARK    8  A    between atoms: C_13  and  C_14 
REMARK    9  A    between atoms: C_14  and  C_15 
REMARK   10  A    between atoms: C_15  and  C_16 
REMARK   11  A    between atoms: C_16  and  C_17 
ROOT
HETATM    1  C   UNK N   1      30.475  17.507   7.036  0.00  0.00     0.291 C 
HETATM    2  C   UNK N   1      31.306  17.269   8.327  0.00  0.00     0.198 C 
HETATM    3  C   UNK N   1      32.722  17.811   8.096  0.00  0.00     0.139 C 
HETATM    4  C   UNK N   1      33.312  17.183   6.830  0.00  0.00     0.174 C 
HETATM    5  C   UNK N   1      32.348  17.422   5.650  0.00  0.00     0.179 C 
HETATM    6  O   UNK N   1      31.070  16.851   5.928  0.00  0.00    -0.349 OA
ENDROOT
BRANCH   1   7
HETATM    7  O   UNK N   1      29.099  17.157   7.136  0.00  0.00    -0.359 OA
BRANCH   7   8
HETATM    8  C   UNK N   1      28.303  17.903   6.252  0.00  0.00     0.171 C 
BRANCH   8   9
HETATM    9  C   UNK N   1      27.855  19.185   6.946  0.00  0.00     0.026 C 
BRANCH   9  10
HETATM   10  C   UNK N   1      27.784  20.331   5.949  0.00  0.00     0.002 C 
BRANCH  10  11
HETATM   11  C   UNK N   1      26.495  20.283   5.150  0.00  0.00    -0.000 C 
BRANCH  11  12
HETATM   12  C   UNK N   1      26.797  20.154   3.672  0.00  0.00    -0.005 C 
HETATM   13  C   UNK N   1      25.539  20.417   2.873  0.00  0.00     0.005 C 
ENDBRANCH  11  12
ENDBRANCH  10  11
ENDBRANCH   9  10
ENDBRANCH   8   9
ENDBRANCH   7   8
ENDBRANCH   1   7
BRANCH   2  14
HETATM   14  O   UNK N   1      30.730  17.933   9.410  0.00  0.00    -0.388 OA
HETATM   15  H   UNK N   1      30.712  17.674  10.344  0.00  0.00     0.210 HD
ENDBRANCH   2  14
BRANCH   3  16
HETATM   16  N   UNK N   1      33.565  17.523   9.247  0.00  0.00    -0.421 N 
HETATM   17  H   UNK N   1      33.772  18.196   9.985  0.00  0.00     0.150 HD
HETATM   18  H   UNK N   1      33.975  16.592   9.320  0.00  0.00     0.150 HD
ENDBRANCH   3  16
BRANCH   5  19
HETATM   19  C   UNK N   1      32.916  16.782   4.388  0.00  0.00     0.198 C 
BRANCH  19  20
HETATM   20  O   UNK N   1      33.694  15.671   4.715  0.00  0.00    -0.398 OA
HETATM   21  H   UNK N   1      34.617  15.722   5.008  0.00  0.00     0.209 HD
ENDBRANCH  19  20
ENDBRANCH   5  19
BRANCH   4  22
HETATM   22  O   UNK N   1      34.560  17.759   6.559  0.00  0.00    -0.391 OA
HETATM   23  H   UNK N   1      35.164  18.031   7.268  0.00  0.00     0.210 HD
ENDBRANCH   4  22
TORSDOF 11
ENDMDL
MODEL 5
REMARK VINA RESULT:      -4.9     14.559     17.332
REMARK  11 active torsions:
REMARK  status: ('A' for Active; 'I' for Inactive)
REMARK    1  A    between atoms: C_1  and  O_2 
REMARK    2  A    between atoms: O_2  and  C_13 
REMARK    3  A    between atoms: C_3  and  O_4 
REMARK    4  A    between atoms: C_5  and  N_12 
REMARK    5  A    between atoms: C_6  and  O_7 
REMARK    6  A    between atoms: C_8  and  C_10 
REMARK    7  A    between atoms: C_10  and  O_11 
REMARK    8  A    between atoms: C_13  and  C_14 
REMARK    9  A    between atoms: C_14  and  C_15 
REMARK   10  A    between atoms: C_15  and  C_16 
REMARK   11  A    between atoms: C_16  and  C_17 
ROOT
HETATM    1  C   UNK N   1      35.021  13.484  11.790  0.00  0.00     0.291 C 
HETATM    2  C   UNK N   1      34.636  14.785  11.034  0.00  0.00     0.198 C 
HETATM    3  C   UNK N   1      34.988  14.604   9.552  0.00  0.00     0.139 C 
HETATM    4  C   UNK N   1      36.459  14.197   9.419  0.00  0.00     0.174 C 
HETATM    5  C   UNK N   1      36.717  12.945  10.284  0.00  0.00     0.179 C 
HETATM    6  O   UNK N   1      36.406  13.212  11.650  0.00  0.00    -0.349 OA
ENDROOT
BRANCH   1   7
HETATM    7  O   UNK N   1      34.649  13.457  13.163  0.00  0.00    -0.359 OA
BRANCH   7   8
HETATM    8  C   UNK N   1      35.745  13.701  14.007  0.00  0.00     0.171 C 
BRANCH   8   9
HETATM    9  C   UNK N   1      35.745  12.674  15.135  0.00  0.00     0.026 C 
BRANCH   9  10
HETATM   10  C   UNK N   1      34.715  13.045  16.190  0.00  0.00     0.002 C 
BRANCH  10  11
HETATM   11  C   UNK N   1      35.328  13.053  17.577  0.00  0.00    -0.000 C 
BRANCH  11  12
HETATM   12  C   UNK N   1      35.225  14.434  18.190  0.00  0.00    -0.005 C 
HETATM   13  C   UNK N   1      36.405  15.274  17.749  0.00  0.00     0.005 C 
ENDBRANCH  11  12
ENDBRANCH  10  11
ENDBRANCH   9  10
ENDBRANCH   8   9
ENDBRANCH   7   8
ENDBRANCH   1   7
BRANCH   2  14
HETATM   14  O   UNK N   1      33.270  15.037  11.155  0.00  0.00    -0.388 OA
HETATM   15  H   UNK N   1      32.730  15.093  11.958  0.00  0.00     0.210 HD
ENDBRANCH   2  14
BRANCH   3  16
HETATM   16  N   UNK N   1      34.733  15.836   8.820  0.00  0.00    -0.421 N 
HETATM   17  H   UNK N   1      34.869  15.941   7.815  0.00  0.00     0.150 HD
HETATM   18  H   UNK N   1      34.397  16.644   9.344  0.00  0.00     0.150 HD
ENDBRANCH   3  16
BRANCH   5  19
HETATM   19  C   UNK N   1      38.184  12.544  10.175  0.00  0.00     0.198 C 
BRANCH  19  20
HETATM   20  O   UNK N   1      38.994  13.486  10.810  0.00  0.00    -0.398 OA
HETATM   21  H   UNK N   1      38.843  13.813  11.711  0.00  0.00     0.209 HD
ENDBRANCH  19  20
ENDBRANCH   5  19
BRANCH   4  22
HETATM   22  O   UNK N   1      36.750  13.926   8.077  0.00  0.00    -0.391 OA
HETATM   23  H   UNK N   1      37.654  13.970   7.728  0.00  0.00     0.210 HD
ENDBRANCH   4  22
TORSDOF 11
ENDMDL
MODEL 6
REMARK VINA RESULT:      -4.8     10.320     12.759
REMARK  11 active torsions:
REMARK  status: ('A' for Active; 'I' for Inactive)
REMARK    1  A    between atoms: C_1  and  O_2 
REMARK    2  A    between atoms: O_2  and  C_13 
REMARK    3  A    between atoms: C_3  and  O_4 
REMARK    4  A    between atoms: C_5  and  N_12 
REMARK    5  A    between atoms: C_6  and  O_7 
REMARK    6  A    between atoms: C_8  and  C_10 
REMARK    7  A    between atoms: C_10  and  O_11 
REMARK    8  A    between atoms: C_13  and  C_14 
REMARK    9  A    between atoms: C_14  and  C_15 
REMARK   10  A    between atoms: C_15  and  C_16 
REMARK   11  A    between atoms: C_16  and  C_17 
ROOT
HETATM    1  C   UNK N   1      34.347  16.964   7.107  0.00  0.00     0.291 C 
HETATM    2  C   UNK N   1      34.422  17.661   8.493  0.00  0.00     0.198 C 
HETATM    3  C   UNK N   1      35.010  16.667   9.502  0.00  0.00     0.139 C 
HETATM    4  C   UNK N   1      34.194  15.370   9.481  0.00  0.00     0.174 C 
HETATM    5  C   UNK N   1      34.132  14.835   8.035  0.00  0.00     0.179 C 
HETATM    6  O   UNK N   1      33.534  15.803   7.173  0.00  0.00    -0.349 OA
ENDROOT
BRANCH   1   7
HETATM    7  O   UNK N   1      33.924  17.801   6.037  0.00  0.00    -0.359 OA
BRANCH   7   8
HETATM    8  C   UNK N   1      33.478  17.056   4.934  0.00  0.00     0.171 C 
BRANCH   8   9
HETATM    9  C   UNK N   1      32.373  17.831   4.222  0.00  0.00     0.026 C 
BRANCH   9  10
HETATM   10  C   UNK N   1      31.014  17.463   4.796  0.00  0.00     0.002 C 
BRANCH  10  11
HETATM   11  C   UNK N   1      30.883  15.963   4.979  0.00  0.00    -0.000 C 
BRANCH  11  12
HETATM   12  C   UNK N   1      29.595  15.631   5.702  0.00  0.00    -0.005 C 
HETATM   13  C   UNK N   1      29.256  16.745   6.670  0.00  0.00     0.005 C 
ENDBRANCH  11  12
ENDBRANCH  10  11
ENDBRANCH   9  10
ENDBRANCH   8   9
ENDBRANCH   7   8
ENDBRANCH   1   7
BRANCH   2  14
HETATM   14  O   UNK N   1      35.239  18.789   8.430  0.00  0.00    -0.388 OA
HETATM   15  H   UNK N   1      35.006  19.698   8.184  0.00  0.00     0.210 HD
ENDBRANCH   2  14
BRANCH   3  16
HETATM   16  N   UNK N   1      35.012  17.246  10.837  0.00  0.00    -0.421 N 
HETATM   17  H   UNK N   1      34.272  17.100  11.523  0.00  0.00     0.150 HD
HETATM   18  H   UNK N   1      35.801  17.834  11.103  0.00  0.00     0.150 HD
ENDBRANCH   3  16
BRANCH   5  19
HETATM   19  C   UNK N   1      33.303  13.556   7.999  0.00  0.00     0.198 C 
BRANCH  19  20
HETATM   20  O   UNK N   1      32.376  13.548   9.042  0.00  0.00    -0.398 OA
HETATM   21  H   UNK N   1      31.932  14.342   9.380  0.00  0.00     0.209 HD
ENDBRANCH  19  20
ENDBRANCH   5  19
BRANCH   4  22
HETATM   22  O   UNK N   1      34.796  14.425  10.321  0.00  0.00    -0.391 OA
HETATM   23  H   UNK N   1      34.341  13.610  10.585  0.00  0.00     0.210 HD
ENDBRANCH   4  22
TORSDOF 11
ENDMDL
MODEL 7
REMARK VINA RESULT:      -4.8      3.694      5.511
REMARK  11 active torsions:
REMARK  status: ('A' for Active; 'I' for Inactive)
REMARK    1  A    between atoms: C_1  and  O_2 
REMARK    2  A    between atoms: O_2  and  C_13 
REMARK    3  A    between atoms: C_3  and  O_4 
REMARK    4  A    between atoms: C_5  and  N_12 
REMARK    5  A    between atoms: C_6  and  O_7 
REMARK    6  A    between atoms: C_8  and  C_10 
REMARK    7  A    between atoms: C_10  and  O_11 
REMARK    8  A    between atoms: C_13  and  C_14 
REMARK    9  A    between atoms: C_14  and  C_15 
REMARK   10  A    between atoms: C_15  and  C_16 
REMARK   11  A    between atoms: C_16  and  C_17 
ROOT
HETATM    1  C   UNK N   1      20.893  16.999   3.691  0.00  0.00     0.291 C 
HETATM    2  C   UNK N   1      20.083  16.484   2.469  0.00  0.00     0.198 C 
HETATM    3  C   UNK N   1      20.427  17.361   1.259  0.00  0.00     0.139 C 
HETATM    4  C   UNK N   1      20.193  18.834   1.608  0.00  0.00     0.174 C 
HETATM    5  C   UNK N   1      20.987  19.184   2.883  0.00  0.00     0.179 C 
HETATM    6  O   UNK N   1      20.577  18.354   3.969  0.00  0.00    -0.349 OA
ENDROOT
BRANCH   1   7
HETATM    7  O   UNK N   1      20.765  16.211   4.869  0.00  0.00    -0.359 OA
BRANCH   7   8
HETATM    8  C   UNK N   1      21.992  15.654   5.263  0.00  0.00     0.171 C 
BRANCH   8   9
HETATM    9  C   UNK N   1      22.194  15.895   6.755  0.00  0.00     0.026 C 
BRANCH   9  10
HETATM   10  C   UNK N   1      20.983  16.598   7.347  0.00  0.00     0.002 C 
BRANCH  10  11
HETATM   11  C   UNK N   1      20.560  15.955   8.654  0.00  0.00    -0.000 C 
BRANCH  11  12
HETATM   12  C   UNK N   1      20.609  14.446   8.538  0.00  0.00    -0.005 C 
HETATM   13  C   UNK N   1      20.946  13.844   9.885  0.00  0.00     0.005 C 
ENDBRANCH  11  12
ENDBRANCH  10  11
ENDBRANCH   9  10
ENDBRANCH   8   9
ENDBRANCH   7   8
ENDBRANCH   1   7
BRANCH   2  14
HETATM   14  O   UNK N   1      20.412  15.159   2.186  0.00  0.00    -0.388 OA
HETATM   15  H   UNK N   1      20.225  14.361   2.702  0.00  0.00     0.210 HD
ENDBRANCH   2  14
BRANCH   3  16
HETATM   16  N   UNK N   1      19.618  16.975   0.111  0.00  0.00    -0.421 N 
HETATM   17  H   UNK N   1      19.791  17.294  -0.841  0.00  0.00     0.150 HD
HETATM   18  H   UNK N   1      18.830  16.348   0.270  0.00  0.00     0.150 HD
ENDBRANCH   3  16
BRANCH   5  19
HETATM   19  C   UNK N   1      20.743  20.643   3.252  0.00  0.00     0.198 C 
BRANCH  19  20
HETATM   20  O   UNK N   1      21.711  21.461   2.669  0.00  0.00    -0.398 OA
HETATM   21  H   UNK N   1      22.208  21.229   1.868  0.00  0.00     0.209 HD
ENDBRANCH  19  20
ENDBRANCH   5  19
BRANCH   4  22
HETATM   22  O   UNK N   1      20.610  19.640   0.542  0.00  0.00    -0.391 OA
HETATM   23  H   UNK N   1      20.226  20.517   0.380  0.00  0.00     0.210 HD
ENDBRANCH   4  22
TORSDOF 11
ENDMDL
MODEL 8
REMARK VINA RESULT:      -4.8      3.610      5.214
REMARK  11 active torsions:
REMARK  status: ('A' for Active; 'I' for Inactive)
REMARK    1  A    between atoms: C_1  and  O_2 
REMARK    2  A    between atoms: O_2  and  C_13 
REMARK    3  A    between atoms: C_3  and  O_4 
REMARK    4  A    between atoms: C_5  and  N_12 
REMARK    5  A    between atoms: C_6  and  O_7 
REMARK    6  A    between atoms: C_8  and  C_10 
REMARK    7  A    between atoms: C_10  and  O_11 
REMARK    8  A    between atoms: C_13  and  C_14 
REMARK    9  A    between atoms: C_14  and  C_15 
REMARK   10  A    between atoms: C_15  and  C_16 
REMARK   11  A    between atoms: C_16  and  C_17 
ROOT
HETATM    1  C   UNK N   1      20.689  17.854   4.617  0.00  0.00     0.291 C 
HETATM    2  C   UNK N   1      20.942  18.979   3.577  0.00  0.00     0.198 C 
HETATM    3  C   UNK N   1      19.973  18.780   2.405  0.00  0.00     0.139 C 
HETATM    4  C   UNK N   1      20.116  17.357   1.857  0.00  0.00     0.174 C 
HETATM    5  C   UNK N   1      19.923  16.350   3.009  0.00  0.00     0.179 C 
HETATM    6  O   UNK N   1      20.890  16.577   4.034  0.00  0.00    -0.349 OA
ENDROOT
BRANCH   1   7
HETATM    7  O   UNK N   1      21.440  17.970   5.820  0.00  0.00    -0.359 OA
BRANCH   7   8
HETATM    8  C   UNK N   1      21.738  16.715   6.375  0.00  0.00     0.171 C 
BRANCH   8   9
HETATM    9  C   UNK N   1      20.743  16.415   7.492  0.00  0.00     0.026 C 
BRANCH   9  10
HETATM   10  C   UNK N   1      20.832  14.953   7.901  0.00  0.00     0.002 C 
BRANCH  10  11
HETATM   11  C   UNK N   1      20.674  14.793   9.402  0.00  0.00    -0.000 C 
BRANCH  11  12
HETATM   12  C   UNK N   1      20.943  13.360   9.809  0.00  0.00    -0.005 C 
HETATM   13  C   UNK N   1      22.404  13.202  10.171  0.00  0.00     0.005 C 
ENDBRANCH  11  12
ENDBRANCH  10  11
ENDBRANCH   9  10
ENDBRANCH   8   9
ENDBRANCH   7   8
ENDBRANCH   1   7
BRANCH   2  14
HETATM   14  O   UNK N   1      20.724  20.233   4.147  0.00  0.00    -0.388 OA
HETATM   15  H   UNK N   1      19.930  20.572   4.587  0.00  0.00     0.210 HD
ENDBRANCH   2  14
BRANCH   3  16
HETATM   16  N   UNK N   1      20.239  19.758   1.360  0.00  0.00    -0.421 N 
HETATM   17  H   UNK N   1      20.114  20.763   1.473  0.00  0.00     0.150 HD
HETATM   18  H   UNK N   1      20.572  19.416   0.458  0.00  0.00     0.150 HD
ENDBRANCH   3  16
BRANCH   5  19
HETATM   19  C   UNK N   1      20.085  14.930   2.478  0.00  0.00     0.198 C 
BRANCH  19  20
HETATM   20  O   UNK N   1      18.852  14.420   2.069  0.00  0.00    -0.398 OA
HETATM   21  H   UNK N   1      18.111  14.243   2.670  0.00  0.00     0.209 HD
ENDBRANCH  19  20
ENDBRANCH   5  19
BRANCH   4  22
HETATM   22  O   UNK N   1      19.156  17.142   0.860  0.00  0.00    -0.391 OA
HETATM   23  H   UNK N   1      18.569  17.850   0.551  0.00  0.00     0.210 HD
ENDBRANCH   4  22
TORSDOF 11
ENDMDL
MODEL 9
REMARK VINA RESULT:      -4.8     14.523     17.303
REMARK  11 active torsions:
REMARK  status: ('A' for Active; 'I' for Inactive)
REMARK    1  A    between atoms: C_1  and  O_2 
REMARK    2  A    between atoms: O_2  and  C_13 
REMARK    3  A    between atoms: C_3  and  O_4 
REMARK    4  A    between atoms: C_5  and  N_12 
REMARK    5  A    between atoms: C_6  and  O_7 
REMARK    6  A    between atoms: C_8  and  C_10 
REMARK    7  A    between atoms: C_10  and  O_11 
REMARK    8  A    between atoms: C_13  and  C_14 
REMARK    9  A    between atoms: C_14  and  C_15 
REMARK   10  A    between atoms: C_15  and  C_16 
REMARK   11  A    between atoms: C_16  and  C_17 
ROOT
HETATM    1  C   UNK N   1      35.112  13.569  11.869  0.00  0.00     0.291 C 
HETATM    2  C   UNK N   1      34.620  14.777  11.025  0.00  0.00     0.198 C 
HETATM    3  C   UNK N   1      34.865  14.462   9.544  0.00  0.00     0.139 C 
HETATM    4  C   UNK N   1      36.336  14.090   9.334  0.00  0.00     0.174 C 
HETATM    5  C   UNK N   1      36.708  12.938  10.291  0.00  0.00     0.179 C 
HETATM    6  O   UNK N   1      36.492  13.329  11.646  0.00  0.00    -0.349 OA
ENDROOT
BRANCH   1   7
HETATM    7  O   UNK N   1      34.847  13.665  13.264  0.00  0.00    -0.359 OA
BRANCH   7   8
HETATM    8  C   UNK N   1      36.028  13.633  14.024  0.00  0.00     0.171 C 
BRANCH   8   9
HETATM    9  C   UNK N   1      35.671  13.406  15.490  0.00  0.00     0.026 C 
BRANCH   9  10
HETATM   10  C   UNK N   1      36.202  12.063  15.963  0.00  0.00     0.002 C 
BRANCH  10  11
HETATM   11  C   UNK N   1      35.071  11.140  16.374  0.00  0.00    -0.000 C 
BRANCH  11  12
HETATM   12  C   UNK N   1      34.722  10.198  15.241  0.00  0.00    -0.005 C 
HETATM   13  C   UNK N   1      33.504  10.717  14.508  0.00  0.00     0.005 C 
ENDBRANCH  11  12
ENDBRANCH  10  11
ENDBRANCH   9  10
ENDBRANCH   8   9
ENDBRANCH   7   8
ENDBRANCH   1   7
BRANCH   2  14
HETATM   14  O   UNK N   1      33.259  14.996  11.230  0.00  0.00    -0.388 OA
HETATM   15  H   UNK N   1      32.779  15.114  12.064  0.00  0.00     0.210 HD
ENDBRANCH   2  14
BRANCH   3  16
HETATM   16  N   UNK N   1      34.506  15.607   8.720  0.00  0.00    -0.421 N 
HETATM   17  H   UNK N   1      34.728  15.688   7.728  0.00  0.00     0.150 HD
HETATM   18  H   UNK N   1      34.003  16.376   9.162  0.00  0.00     0.150 HD
ENDBRANCH   3  16
BRANCH   5  19
HETATM   19  C   UNK N   1      38.177  12.575  10.105  0.00  0.00     0.198 C 
BRANCH  19  20
HETATM   20  O   UNK N   1      38.990  13.454  10.821  0.00  0.00    -0.398 OA
HETATM   21  H   UNK N   1      38.858  13.677  11.756  0.00  0.00     0.209 HD
ENDBRANCH  19  20
ENDBRANCH   5  19
BRANCH   4  22
HETATM   22  O   UNK N   1      36.534  13.698   8.004  0.00  0.00    -0.391 OA
HETATM   23  H   UNK N   1      37.407  13.736   7.582  0.00  0.00     0.210 HD
ENDBRANCH   4  22
TORSDOF 11
ENDMDL
