REMARK  11 active torsions:
REMARK  status: ('A' for Active; 'I' for Inactive)
REMARK    1  A    between atoms: C_1  and  O_2 
REMARK    2  A    between atoms: O_2  and  C_13 
REMARK    3  A    between atoms: C_3  and  O_4 
REMARK    4  A    between atoms: C_5  and  N_12 
REMARK    5  A    between atoms: C_6  and  O_7 
REMARK    6  A    between atoms: C_8  and  C_10 
REMARK    7  A    between atoms: C_10  and  O_11 
REMARK    8  A    between atoms: C_13  and  C_14 
REMARK    9  A    between atoms: C_14  and  C_15 
REMARK   10  A    between atoms: C_15  and  C_16 
REMARK   11  A    between atoms: C_16  and  C_17 
ROOT
HETATM    1  C   UNK N   1      -0.813   0.733  -0.453  0.00  0.00     0.291 C 
HETATM    2  C   UNK N   1      -0.516  -0.721   0.005  0.00  0.00     0.198 C 
HETATM    3  C   UNK N   1      -1.761  -1.575  -0.263  0.00  0.00     0.139 C 
HETATM    4  C   UNK N   1      -2.980  -0.930   0.404  0.00  0.00     0.174 C 
HETATM    5  C   UNK N   1      -3.105   0.531  -0.076  0.00  0.00     0.179 C 
HETATM    6  O   UNK N   1      -1.925   1.264   0.250  0.00  0.00    -0.349 OA
ENDROOT
BRANCH   1   7
HETATM    7  O   UNK N   1       0.293   1.625  -0.371  0.00  0.00    -0.359 OA
BRANCH   7   8
HETATM    8  C   UNK N   1       0.936   1.549   0.875  0.00  0.00     0.171 C 
BRANCH   8   9
HETATM    9  C   UNK N   1       2.446   1.543   0.658  0.00  0.00     0.026 C 
BRANCH   9  10
HETATM   10  C   UNK N   1       2.895   0.205   0.093  0.00  0.00     0.002 C 
BRANCH  10  11
HETATM   11  C   UNK N   1       4.168   0.352  -0.719  0.00  0.00    -0.000 C 
BRANCH  11  12
HETATM   12  C   UNK N   1       5.366  -0.087   0.097  0.00  0.00    -0.005 C 
HETATM   13  C   UNK N   1       6.251   1.108   0.380  0.00  0.00     0.005 C 
ENDBRANCH  11  12
ENDBRANCH  10  11
ENDBRANCH   9  10
ENDBRANCH   8   9
ENDBRANCH   7   8
ENDBRANCH   1   7
BRANCH   2  14
HETATM   14  O   UNK N   1       0.564  -1.247  -0.703  0.00  0.00    -0.388 OA
HETATM   15  H   UNK N   1       0.623  -2.080  -1.195  0.00  0.00     0.210 HD
ENDBRANCH   2  14
BRANCH   3  16
HETATM   16  N   UNK N   1      -1.562  -2.927   0.239  0.00  0.00    -0.421 N 
HETATM   17  H   UNK N   1      -2.312  -3.521   0.591  0.00  0.00     0.150 HD
HETATM   18  H   UNK N   1      -0.614  -3.303   0.239  0.00  0.00     0.150 HD
ENDBRANCH   3  16
BRANCH   5  19
HETATM   19  C   UNK N   1      -4.303   1.189   0.599  0.00  0.00     0.198 C 
BRANCH  19  20
HETATM   20  O   UNK N   1      -4.483   2.485   0.115  0.00  0.00    -0.398 OA
HETATM   21  H   UNK N   1      -3.765   3.044  -0.221  0.00  0.00     0.209 HD
ENDBRANCH  19  20
ENDBRANCH   5  19
BRANCH   4  22
HETATM   22  O   UNK N   1      -4.133  -1.650   0.068  0.00  0.00    -0.391 OA
HETATM   23  H   UNK N   1      -4.965  -1.208  -0.164  0.00  0.00     0.210 HD
ENDBRANCH   4  22
TORSDOF 11
