MODEL 1
REMARK VINA RESULT:      -7.0      0.000      0.000
REMARK  5 active torsions:
REMARK  status: ('A' for Active; 'I' for Inactive)
REMARK    1  A    between atoms: C_6  and  N_15 
REMARK    2  A    between atoms: C_7  and  S_26 
REMARK    3  A    between atoms: C_11  and  S_26 
REMARK    4  A    between atoms: C_12  and  C_14 
REMARK    5  A    between atoms: C_13  and  N_22 
REMARK       I    between atoms: C_14  and  N_22 
ROOT
HETATM    1  C   UNK N   1      19.740  15.121   9.533  0.00  0.00     0.031 A 
HETATM    2  C   UNK N   1      21.535  15.078   7.408  0.00  0.00     0.038 A 
HETATM    3  C   UNK N   1      19.891  16.264   8.735  0.00  0.00     0.041 A 
HETATM    4  C   UNK N   1      20.496  13.970   9.278  0.00  0.00     0.021 A 
HETATM    5  C   UNK N   1      21.394  13.946   8.203  0.00  0.00     0.009 A 
HETATM    6  C   UNK N   1      20.801  16.246   7.653  0.00  0.00     0.059 A 
ENDROOT
BRANCH   6   7
HETATM    7  C   UNK N   1      21.027  17.400   6.742  0.00  0.00     0.259 C 
HETATM    8  N   UNK N   1      21.010  17.168   5.403  0.00  0.00    -0.303 N 
HETATM    9  H   UNK N   1      20.885  16.232   5.122  0.00  0.00     0.171 HD
HETATM   10  O   UNK N   1      21.187  18.528   7.182  0.00  0.00    -0.267 OA
BRANCH   8  11
HETATM   11  C   UNK N   1      21.149  18.122   4.364  0.00  0.00     0.151 A 
HETATM   12  N   UNK N   1      22.255  18.889   4.236  0.00  0.00    -0.340 N 
HETATM   13  C   UNK N   1      22.193  19.703   3.128  0.00  0.00     0.014 A 
ATOM     14  HN  UNK N   1      23.043  18.867   4.883  1.00  0.00     0.167 HD
HETATM   15  C   UNK N   1      21.023  19.598   2.351  0.00  0.00     0.077 A 
HETATM   16  C   UNK N   1      23.312  20.615   2.774  0.00  0.00     0.068 C 
HETATM   17  S   UNK N   1      20.107  18.447   3.125  0.00  0.00    -0.064 SA
ENDBRANCH   8  11
ENDBRANCH   6   7
BRANCH   3  18
HETATM   18  N   UNK N   1      19.117  17.409   9.025  0.00  0.00    -0.398 N 
HETATM   19  H   UNK N   1      18.381  17.402   9.679  0.00  0.00     0.156 HD
HETATM   20  H   UNK N   1      19.321  18.248   8.553  0.00  0.00     0.156 HD
ENDBRANCH   3  18
BRANCH   5  21
HETATM   21  S   UNK N   1      22.483  12.548   7.886  0.00  0.00    -0.053 SA
BRANCH  21  22
HETATM   22  C   UNK N   1      22.952  12.182   9.577  0.00  0.00     0.166 A 
HETATM   23  N   UNK N   1      22.191  11.477  10.429  0.00  0.00    -0.279 N 
HETATM   24  N   UNK N   1      22.830  11.456  11.592  0.00  0.00    -0.294 N 
ATOM     25  HN  UNK N   1      21.292  11.041  10.224  1.00  0.00     0.189 HD
HETATM   26  C   UNK N   1      23.975  12.157  11.443  0.00  0.00     0.201 A 
ATOM     27  HN  UNK N   1      22.513  10.994  12.444  1.00  0.00     0.187 HD
HETATM   28  N   UNK N   1      24.064  12.617  10.185  0.00  0.00    -0.326 N 
HETATM   29  C   UNK N   1      25.129  13.436   9.633  0.00  0.00     0.159 C 
ENDBRANCH  21  22
ENDBRANCH   5  21
TORSDOF 5
ENDMDL
MODEL 2
REMARK VINA RESULT:      -6.8      7.401      8.860
REMARK  5 active torsions:
REMARK  status: ('A' for Active; 'I' for Inactive)
REMARK    1  A    between atoms: C_6  and  N_15 
REMARK    2  A    between atoms: C_7  and  S_26 
REMARK    3  A    between atoms: C_11  and  S_26 
REMARK    4  A    between atoms: C_12  and  C_14 
REMARK    5  A    between atoms: C_13  and  N_22 
REMARK       I    between atoms: C_14  and  N_22 
ROOT
HETATM    1  C   UNK N   1      29.770  18.204   9.470  0.00  0.00     0.031 A 
HETATM    2  C   UNK N   1      30.110  17.427   6.821  0.00  0.00     0.038 A 
HETATM    3  C   UNK N   1      28.672  18.228   8.599  0.00  0.00     0.041 A 
HETATM    4  C   UNK N   1      31.034  17.811   9.012  0.00  0.00     0.021 A 
HETATM    5  C   UNK N   1      31.202  17.412   7.681  0.00  0.00     0.009 A 
HETATM    6  C   UNK N   1      28.839  17.832   7.252  0.00  0.00     0.059 A 
ENDROOT
BRANCH   6   7
HETATM    7  C   UNK N   1      27.739  17.812   6.252  0.00  0.00     0.259 C 
HETATM    8  N   UNK N   1      27.105  18.983   5.978  0.00  0.00    -0.303 N 
HETATM    9  H   UNK N   1      27.395  19.769   6.494  0.00  0.00     0.171 HD
HETATM   10  O   UNK N   1      27.438  16.782   5.667  0.00  0.00    -0.267 OA
BRANCH   8  11
HETATM   11  C   UNK N   1      26.074  19.199   5.029  0.00  0.00     0.151 A 
HETATM   12  N   UNK N   1      24.872  18.588   5.121  0.00  0.00    -0.340 N 
HETATM   13  C   UNK N   1      24.012  18.988   4.125  0.00  0.00     0.014 A 
ATOM     14  HN  UNK N   1      24.631  17.911   5.845  1.00  0.00     0.167 HD
HETATM   15  C   UNK N   1      24.523  19.932   3.212  0.00  0.00     0.077 A 
HETATM   16  C   UNK N   1      22.623  18.465   4.045  0.00  0.00     0.068 C 
HETATM   17  S   UNK N   1      26.075  20.221   3.731  0.00  0.00    -0.064 SA
ENDBRANCH   8  11
ENDBRANCH   6   7
BRANCH   3  18
HETATM   18  N   UNK N   1      27.414  18.637   9.093  0.00  0.00    -0.398 N 
HETATM   19  H   UNK N   1      26.689  18.953   8.506  0.00  0.00     0.156 HD
HETATM   20  H   UNK N   1      27.256  18.607  10.064  0.00  0.00     0.156 HD
ENDBRANCH   3  18
BRANCH   5  21
HETATM   21  S   UNK N   1      32.815  17.006   6.992  0.00  0.00    -0.053 SA
BRANCH  21  22
HETATM   22  C   UNK N   1      33.707  16.747   8.525  0.00  0.00     0.166 A 
HETATM   23  N   UNK N   1      34.468  17.682   9.117  0.00  0.00    -0.279 N 
HETATM   24  N   UNK N   1      35.008  17.119  10.190  0.00  0.00    -0.294 N 
ATOM     25  HN  UNK N   1      34.606  18.642   8.801  1.00  0.00     0.189 HD
HETATM   26  C   UNK N   1      34.578  15.839  10.243  0.00  0.00     0.201 A 
ATOM     27  HN  UNK N   1      35.634  17.572  10.855  1.00  0.00     0.187 HD
HETATM   28  N   UNK N   1      33.762  15.593   9.205  0.00  0.00    -0.326 N 
HETATM   29  C   UNK N   1      33.115  14.331   8.889  0.00  0.00     0.159 C 
ENDBRANCH  21  22
ENDBRANCH   5  21
TORSDOF 5
ENDMDL
MODEL 3
REMARK VINA RESULT:      -6.7      7.688     11.627
REMARK  5 active torsions:
REMARK  status: ('A' for Active; 'I' for Inactive)
REMARK    1  A    between atoms: C_6  and  N_15 
REMARK    2  A    between atoms: C_7  and  S_26 
REMARK    3  A    between atoms: C_11  and  S_26 
REMARK    4  A    between atoms: C_12  and  C_14 
REMARK    5  A    between atoms: C_13  and  N_22 
REMARK       I    between atoms: C_14  and  N_22 
ROOT
HETATM    1  C   UNK N   1      28.360  18.732   8.211  0.00  0.00     0.031 A 
HETATM    2  C   UNK N   1      30.117  17.169   6.724  0.00  0.00     0.038 A 
HETATM    3  C   UNK N   1      29.539  18.262   8.808  0.00  0.00     0.041 A 
HETATM    4  C   UNK N   1      28.056  18.406   6.883  0.00  0.00     0.021 A 
HETATM    5  C   UNK N   1      28.944  17.627   6.133  0.00  0.00     0.009 A 
HETATM    6  C   UNK N   1      30.436  17.468   8.056  0.00  0.00     0.059 A 
ENDROOT
BRANCH   6   7
HETATM    7  C   UNK N   1      31.714  16.930   8.591  0.00  0.00     0.259 C 
HETATM    8  N   UNK N   1      31.764  15.610   8.915  0.00  0.00    -0.303 N 
HETATM    9  H   UNK N   1      30.928  15.102   8.808  0.00  0.00     0.171 HD
HETATM   10  O   UNK N   1      32.701  17.642   8.702  0.00  0.00    -0.267 OA
BRANCH   8  11
HETATM   11  C   UNK N   1      32.885  14.884   9.388  0.00  0.00     0.151 A 
HETATM   12  N   UNK N   1      33.453  15.138  10.588  0.00  0.00    -0.340 N 
HETATM   13  C   UNK N   1      34.491  14.278  10.860  0.00  0.00     0.014 A 
ATOM     14  HN  UNK N   1      33.147  15.880  11.218  1.00  0.00     0.167 HD
HETATM   15  C   UNK N   1      34.772  13.317   9.869  0.00  0.00     0.077 A 
HETATM   16  C   UNK N   1      35.245  14.354  12.139  0.00  0.00     0.068 C 
HETATM   17  S   UNK N   1      33.658  13.613   8.671  0.00  0.00    -0.064 SA
ENDBRANCH   8  11
ENDBRANCH   6   7
BRANCH   3  18
HETATM   18  N   UNK N   1      29.810  18.603  10.151  0.00  0.00    -0.398 N 
HETATM   19  H   UNK N   1      29.544  18.034  10.909  0.00  0.00     0.156 HD
HETATM   20  H   UNK N   1      30.283  19.446  10.337  0.00  0.00     0.156 HD
ENDBRANCH   3  18
BRANCH   5  21
HETATM   21  S   UNK N   1      28.567  17.071   4.463  0.00  0.00    -0.053 SA
BRANCH  21  22
HETATM   22  C   UNK N   1      27.469  18.402   3.977  0.00  0.00     0.166 A 
HETATM   23  N   UNK N   1      27.880  19.652   3.708  0.00  0.00    -0.279 N 
HETATM   24  N   UNK N   1      26.794  20.367   3.440  0.00  0.00    -0.294 N 
ATOM     25  HN  UNK N   1      28.842  19.989   3.708  1.00  0.00     0.189 HD
HETATM   26  C   UNK N   1      25.725  19.549   3.557  0.00  0.00     0.201 A 
ATOM     27  HN  UNK N   1      26.771  21.355   3.192  1.00  0.00     0.187 HD
HETATM   28  N   UNK N   1      26.134  18.315   3.893  0.00  0.00    -0.326 N 
HETATM   29  C   UNK N   1      25.292  17.157   4.138  0.00  0.00     0.159 C 
ENDBRANCH  21  22
ENDBRANCH   5  21
TORSDOF 5
ENDMDL
MODEL 4
REMARK VINA RESULT:      -6.7      3.938      7.265
REMARK  5 active torsions:
REMARK  status: ('A' for Active; 'I' for Inactive)
REMARK    1  A    between atoms: C_6  and  N_15 
REMARK    2  A    between atoms: C_7  and  S_26 
REMARK    3  A    between atoms: C_11  and  S_26 
REMARK    4  A    between atoms: C_12  and  C_14 
REMARK    5  A    between atoms: C_13  and  N_22 
REMARK       I    between atoms: C_14  and  N_22 
ROOT
HETATM    1  C   UNK N   1      24.489  20.681   2.756  0.00  0.00     0.031 A 
HETATM    2  C   UNK N   1      24.951  18.496   4.415  0.00  0.00     0.038 A 
HETATM    3  C   UNK N   1      23.400  19.945   3.244  0.00  0.00     0.041 A 
HETATM    4  C   UNK N   1      25.800  20.314   3.082  0.00  0.00     0.021 A 
HETATM    5  C   UNK N   1      26.032  19.220   3.924  0.00  0.00     0.009 A 
HETATM    6  C   UNK N   1      23.630  18.835   4.090  0.00  0.00     0.059 A 
ENDROOT
BRANCH   6   7
HETATM    7  C   UNK N   1      22.546  17.997   4.668  0.00  0.00     0.259 C 
HETATM    8  N   UNK N   1      22.682  17.579   5.955  0.00  0.00    -0.303 N 
HETATM    9  H   UNK N   1      23.517  17.831   6.411  0.00  0.00     0.171 HD
HETATM   10  O   UNK N   1      21.548  17.722   4.021  0.00  0.00    -0.267 OA
BRANCH   8  11
HETATM   11  C   UNK N   1      21.754  16.823   6.714  0.00  0.00     0.151 A 
HETATM   12  N   UNK N   1      20.648  17.377   7.258  0.00  0.00    -0.340 N 
HETATM   13  C   UNK N   1      19.868  16.446   7.904  0.00  0.00     0.014 A 
ATOM     14  HN  UNK N   1      20.418  18.369   7.196  1.00  0.00     0.167 HD
HETATM   15  C   UNK N   1      20.349  15.122   7.888  0.00  0.00     0.077 A 
HETATM   16  C   UNK N   1      18.587  16.826   8.554  0.00  0.00     0.068 C 
HETATM   17  S   UNK N   1      21.770  15.201   7.029  0.00  0.00    -0.064 SA
ENDBRANCH   8  11
ENDBRANCH   6   7
BRANCH   3  18
HETATM   18  N   UNK N   1      22.092  20.339   2.889  0.00  0.00    -0.398 N 
HETATM   19  H   UNK N   1      21.868  21.260   2.624  0.00  0.00     0.156 HD
HETATM   20  H   UNK N   1      21.375  19.666   2.908  0.00  0.00     0.156 HD
ENDBRANCH   3  18
BRANCH   5  21
HETATM   21  S   UNK N   1      27.688  18.618   4.293  0.00  0.00    -0.053 SA
BRANCH  21  22
HETATM   22  C   UNK N   1      27.682  18.882   6.066  0.00  0.00     0.166 A 
HETATM   23  N   UNK N   1      26.957  19.830   6.681  0.00  0.00    -0.279 N 
HETATM   24  N   UNK N   1      27.246  19.761   7.974  0.00  0.00    -0.294 N 
ATOM     25  HN  UNK N   1      26.307  20.480   6.238  1.00  0.00     0.189 HD
HETATM   26  C   UNK N   1      28.155  18.775   8.139  0.00  0.00     0.201 A 
ATOM     27  HN  UNK N   1      26.853  20.347   8.709  1.00  0.00     0.187 HD
HETATM   28  N   UNK N   1      28.437  18.216   6.952  0.00  0.00    -0.326 N 
HETATM   29  C   UNK N   1      29.383  17.143   6.700  0.00  0.00     0.159 C 
ENDBRANCH  21  22
ENDBRANCH   5  21
TORSDOF 5
ENDMDL
MODEL 5
REMARK VINA RESULT:      -6.6      9.001     12.191
REMARK  5 active torsions:
REMARK  status: ('A' for Active; 'I' for Inactive)
REMARK    1  A    between atoms: C_6  and  N_15 
REMARK    2  A    between atoms: C_7  and  S_26 
REMARK    3  A    between atoms: C_11  and  S_26 
REMARK    4  A    between atoms: C_12  and  C_14 
REMARK    5  A    between atoms: C_13  and  N_22 
REMARK       I    between atoms: C_14  and  N_22 
ROOT
HETATM    1  C   UNK N   1      28.529  18.180   7.975  0.00  0.00     0.031 A 
HETATM    2  C   UNK N   1      30.489  16.570   6.832  0.00  0.00     0.038 A 
HETATM    3  C   UNK N   1      29.765  18.035   8.621  0.00  0.00     0.041 A 
HETATM    4  C   UNK N   1      28.271  17.509   6.774  0.00  0.00     0.021 A 
HETATM    5  C   UNK N   1      29.260  16.706   6.194  0.00  0.00     0.009 A 
HETATM    6  C   UNK N   1      30.765  17.220   8.043  0.00  0.00     0.059 A 
ENDROOT
BRANCH   6   7
HETATM    7  C   UNK N   1      32.110  17.009   8.641  0.00  0.00     0.259 C 
HETATM    8  N   UNK N   1      32.407  15.772   9.121  0.00  0.00    -0.303 N 
HETATM    9  H   UNK N   1      31.688  15.101   9.075  0.00  0.00     0.171 HD
HETATM   10  O   UNK N   1      32.937  17.908   8.666  0.00  0.00    -0.267 OA
BRANCH   8  11
HETATM   11  C   UNK N   1      33.636  15.340   9.680  0.00  0.00     0.151 A 
HETATM   12  N   UNK N   1      33.749  14.980  10.978  0.00  0.00    -0.340 N 
HETATM   13  C   UNK N   1      35.018  14.546  11.284  0.00  0.00     0.014 A 
ATOM     14  HN  UNK N   1      32.984  15.023  11.651  1.00  0.00     0.167 HD
HETATM   15  C   UNK N   1      35.946  14.558  10.224  0.00  0.00     0.077 A 
HETATM   16  C   UNK N   1      35.367  14.073  12.650  0.00  0.00     0.068 C 
HETATM   17  S   UNK N   1      35.087  15.127   8.920  0.00  0.00    -0.064 SA
ENDBRANCH   8  11
ENDBRANCH   6   7
BRANCH   3  18
HETATM   18  N   UNK N   1      29.989  18.721   9.835  0.00  0.00    -0.398 N 
HETATM   19  H   UNK N   1      30.521  18.341  10.570  0.00  0.00     0.156 HD
HETATM   20  H   UNK N   1      29.595  19.616   9.951  0.00  0.00     0.156 HD
ENDBRANCH   3  18
BRANCH   5  21
HETATM   21  S   UNK N   1      28.962  15.722   4.716  0.00  0.00    -0.053 SA
BRANCH  21  22
HETATM   22  C   UNK N   1      30.489  16.075   3.845  0.00  0.00     0.166 A 
HETATM   23  N   UNK N   1      30.681  17.163   3.081  0.00  0.00    -0.279 N 
HETATM   24  N   UNK N   1      31.896  17.059   2.559  0.00  0.00    -0.294 N 
ATOM     25  HN  UNK N   1      30.020  17.924   2.931  1.00  0.00     0.189 HD
HETATM   26  C   UNK N   1      32.435  15.901   3.001  0.00  0.00     0.201 A 
ATOM     27  HN  UNK N   1      32.342  17.731   1.936  1.00  0.00     0.187 HD
HETATM   28  N   UNK N   1      31.564  15.275   3.808  0.00  0.00    -0.326 N 
HETATM   29  C   UNK N   1      31.753  13.992   4.463  0.00  0.00     0.159 C 
ENDBRANCH  21  22
ENDBRANCH   5  21
TORSDOF 5
ENDMDL
MODEL 6
REMARK VINA RESULT:      -6.5     15.636     17.994
REMARK  5 active torsions:
REMARK  status: ('A' for Active; 'I' for Inactive)
REMARK    1  A    between atoms: C_6  and  N_15 
REMARK    2  A    between atoms: C_7  and  S_26 
REMARK    3  A    between atoms: C_11  and  S_26 
REMARK    4  A    between atoms: C_12  and  C_14 
REMARK    5  A    between atoms: C_13  and  N_22 
REMARK       I    between atoms: C_14  and  N_22 
ROOT
HETATM    1  C   UNK N   1      24.875  26.437  -5.662  0.00  0.00     0.031 A 
HETATM    2  C   UNK N   1      26.782  26.777  -3.665  0.00  0.00     0.038 A 
HETATM    3  C   UNK N   1      25.612  25.330  -5.217  0.00  0.00     0.041 A 
HETATM    4  C   UNK N   1      25.105  27.708  -5.122  0.00  0.00     0.021 A 
HETATM    5  C   UNK N   1      26.059  27.877  -4.111  0.00  0.00     0.009 A 
HETATM    6  C   UNK N   1      26.581  25.497  -4.201  0.00  0.00     0.059 A 
ENDROOT
BRANCH   6   7
HETATM    7  C   UNK N   1      27.406  24.388  -3.653  0.00  0.00     0.259 C 
HETATM    8  N   UNK N   1      28.570  24.087  -4.288  0.00  0.00    -0.303 N 
HETATM    9  H   UNK N   1      28.772  24.604  -5.101  0.00  0.00     0.171 HD
HETATM   10  O   UNK N   1      27.069  23.791  -2.642  0.00  0.00    -0.267 OA
BRANCH   8  11
HETATM   11  C   UNK N   1      29.527  23.112  -3.909  0.00  0.00     0.151 A 
HETATM   12  N   UNK N   1      29.887  22.100  -4.730  0.00  0.00    -0.340 N 
HETATM   13  C   UNK N   1      30.866  21.309  -4.176  0.00  0.00     0.014 A 
ATOM     14  HN  UNK N   1      29.482  21.943  -5.653  1.00  0.00     0.167 HD
HETATM   15  C   UNK N   1      31.303  21.680  -2.889  0.00  0.00     0.077 A 
HETATM   16  C   UNK N   1      31.436  20.151  -4.913  0.00  0.00     0.068 C 
HETATM   17  S   UNK N   1      30.406  23.028  -2.513  0.00  0.00    -0.064 SA
ENDBRANCH   8  11
ENDBRANCH   6   7
BRANCH   3  18
HETATM   18  N   UNK N   1      25.359  24.064  -5.789  0.00  0.00    -0.398 N 
HETATM   19  H   UNK N   1      24.843  23.949  -6.620  0.00  0.00     0.156 HD
HETATM   20  H   UNK N   1      25.711  23.263  -5.338  0.00  0.00     0.156 HD
ENDBRANCH   3  18
BRANCH   5  21
HETATM   21  S   UNK N   1      26.491  29.496  -3.453  0.00  0.00    -0.053 SA
BRANCH  21  22
HETATM   22  C   UNK N   1      28.273  29.386  -3.615  0.00  0.00     0.166 A 
HETATM   23  N   UNK N   1      29.109  29.192  -2.583  0.00  0.00    -0.279 N 
HETATM   24  N   UNK N   1      30.342  29.221  -3.072  0.00  0.00    -0.294 N 
ATOM     25  HN  UNK N   1      28.848  29.050  -1.608  1.00  0.00     0.189 HD
HETATM   26  C   UNK N   1      30.250  29.441  -4.402  0.00  0.00     0.201 A 
ATOM     27  HN  UNK N   1      31.203  29.099  -2.541  1.00  0.00     0.187 HD
HETATM   28  N   UNK N   1      28.960  29.547  -4.756  0.00  0.00    -0.326 N 
HETATM   29  C   UNK N   1      28.442  29.810  -6.087  0.00  0.00     0.159 C 
ENDBRANCH  21  22
ENDBRANCH   5  21
TORSDOF 5
ENDMDL
MODEL 7
REMARK VINA RESULT:      -6.4     15.752     17.364
REMARK  5 active torsions:
REMARK  status: ('A' for Active; 'I' for Inactive)
REMARK    1  A    between atoms: C_6  and  N_15 
REMARK    2  A    between atoms: C_7  and  S_26 
REMARK    3  A    between atoms: C_11  and  S_26 
REMARK    4  A    between atoms: C_12  and  C_14 
REMARK    5  A    between atoms: C_13  and  N_22 
REMARK       I    between atoms: C_14  and  N_22 
ROOT
HETATM    1  C   UNK N   1      35.298  12.589  19.867  0.00  0.00     0.031 A 
HETATM    2  C   UNK N   1      35.093  10.878  17.684  0.00  0.00     0.038 A 
HETATM    3  C   UNK N   1      35.305  13.123  18.571  0.00  0.00     0.041 A 
HETATM    4  C   UNK N   1      35.206  11.207  20.067  0.00  0.00     0.021 A 
HETATM    5  C   UNK N   1      35.095  10.346  18.969  0.00  0.00     0.009 A 
HETATM    6  C   UNK N   1      35.199  12.258  17.458  0.00  0.00     0.059 A 
ENDROOT
BRANCH   6   7
HETATM    7  C   UNK N   1      35.188  12.722  16.045  0.00  0.00     0.259 C 
HETATM    8  N   UNK N   1      36.302  12.512  15.296  0.00  0.00    -0.303 N 
HETATM    9  H   UNK N   1      37.067  12.096  15.756  0.00  0.00     0.171 HD
HETATM   10  O   UNK N   1      34.194  13.243  15.561  0.00  0.00    -0.267 OA
BRANCH   8  11
HETATM   11  C   UNK N   1      36.487  12.825  13.926  0.00  0.00     0.151 A 
HETATM   12  N   UNK N   1      36.062  13.991  13.390  0.00  0.00    -0.340 N 
HETATM   13  C   UNK N   1      36.395  14.099  12.060  0.00  0.00     0.014 A 
ATOM     14  HN  UNK N   1      35.554  14.706  13.911  1.00  0.00     0.167 HD
HETATM   15  C   UNK N   1      37.096  13.009  11.509  0.00  0.00     0.077 A 
HETATM   16  C   UNK N   1      36.051  15.312  11.272  0.00  0.00     0.068 C 
HETATM   17  S   UNK N   1      37.265  11.938  12.769  0.00  0.00    -0.064 SA
ENDBRANCH   8  11
ENDBRANCH   6   7
BRANCH   3  18
HETATM   18  N   UNK N   1      35.406  14.522  18.406  0.00  0.00    -0.398 N 
HETATM   19  H   UNK N   1      36.151  15.049  18.776  0.00  0.00     0.156 HD
HETATM   20  H   UNK N   1      34.702  14.990  17.902  0.00  0.00     0.156 HD
ENDBRANCH   3  18
BRANCH   5  21
HETATM   21  S   UNK N   1      35.091   8.555  19.141  0.00  0.00    -0.053 SA
BRANCH  21  22
HETATM   22  C   UNK N   1      33.603   8.381  20.125  0.00  0.00     0.166 A 
HETATM   23  N   UNK N   1      32.360   8.532  19.638  0.00  0.00    -0.279 N 
HETATM   24  N   UNK N   1      31.525   8.386  20.658  0.00  0.00    -0.294 N 
ATOM     25  HN  UNK N   1      32.107   8.723  18.669  1.00  0.00     0.189 HD
HETATM   26  C   UNK N   1      32.264   8.155  21.765  0.00  0.00     0.201 A 
ATOM     27  HN  UNK N   1      30.507   8.440  20.614  1.00  0.00     0.187 HD
HETATM   28  N   UNK N   1      33.568   8.150  21.445  0.00  0.00    -0.326 N 
HETATM   29  C   UNK N   1      34.685   7.963  22.355  0.00  0.00     0.159 C 
ENDBRANCH  21  22
ENDBRANCH   5  21
TORSDOF 5
ENDMDL
MODEL 8
REMARK VINA RESULT:      -6.2     11.578     14.424
REMARK  5 active torsions:
REMARK  status: ('A' for Active; 'I' for Inactive)
REMARK    1  A    between atoms: C_6  and  N_15 
REMARK    2  A    between atoms: C_7  and  S_26 
REMARK    3  A    between atoms: C_11  and  S_26 
REMARK    4  A    between atoms: C_12  and  C_14 
REMARK    5  A    between atoms: C_13  and  N_22 
REMARK       I    between atoms: C_14  and  N_22 
ROOT
HETATM    1  C   UNK N   1      37.551  12.348  11.970  0.00  0.00     0.031 A 
HETATM    2  C   UNK N   1      34.922  13.172  12.355  0.00  0.00     0.038 A 
HETATM    3  C   UNK N   1      37.084  13.491  11.307  0.00  0.00     0.041 A 
HETATM    4  C   UNK N   1      36.702  11.613  12.806  0.00  0.00     0.021 A 
HETATM    5  C   UNK N   1      35.382  12.033  13.006  0.00  0.00     0.009 A 
HETATM    6  C   UNK N   1      35.749  13.915  11.501  0.00  0.00     0.059 A 
ENDROOT
BRANCH   6   7
HETATM    7  C   UNK N   1      35.159  15.117  10.854  0.00  0.00     0.259 C 
HETATM    8  N   UNK N   1      34.532  14.955   9.659  0.00  0.00    -0.303 N 
HETATM    9  H   UNK N   1      34.544  14.047   9.278  0.00  0.00     0.171 HD
HETATM   10  O   UNK N   1      35.204  16.211  11.396  0.00  0.00    -0.267 OA
BRANCH   8  11
HETATM   11  C   UNK N   1      33.861  15.946   8.899  0.00  0.00     0.151 A 
HETATM   12  N   UNK N   1      32.695  16.496   9.305  0.00  0.00    -0.340 N 
HETATM   13  C   UNK N   1      32.256  17.471   8.439  0.00  0.00     0.014 A 
ATOM     14  HN  UNK N   1      32.199  16.221  10.153  1.00  0.00     0.167 HD
HETATM   15  C   UNK N   1      33.073  17.713   7.318  0.00  0.00     0.077 A 
HETATM   16  C   UNK N   1      31.005  18.232   8.700  0.00  0.00     0.068 C 
HETATM   17  S   UNK N   1      34.343  16.655   7.488  0.00  0.00    -0.064 SA
ENDBRANCH   8  11
ENDBRANCH   6   7
BRANCH   3  18
HETATM   18  N   UNK N   1      37.965  14.204  10.465  0.00  0.00    -0.398 N 
HETATM   19  H   UNK N   1      38.303  13.838   9.617  0.00  0.00     0.156 HD
HETATM   20  H   UNK N   1      38.255  15.104  10.739  0.00  0.00     0.156 HD
ENDBRANCH   3  18
BRANCH   5  21
HETATM   21  S   UNK N   1      34.200  11.077  13.971  0.00  0.00    -0.053 SA
BRANCH  21  22
HETATM   22  C   UNK N   1      34.609  11.706  15.599  0.00  0.00     0.166 A 
HETATM   23  N   UNK N   1      34.564  13.006  15.933  0.00  0.00    -0.279 N 
HETATM   24  N   UNK N   1      34.981  13.098  17.189  0.00  0.00    -0.294 N 
ATOM     25  HN  UNK N   1      34.266  13.777  15.336  1.00  0.00     0.189 HD
HETATM   26  C   UNK N   1      35.287  11.852  17.612  0.00  0.00     0.201 A 
ATOM     27  HN  UNK N   1      35.057  13.955  17.736  1.00  0.00     0.187 HD
HETATM   28  N   UNK N   1      35.059  10.970  16.625  0.00  0.00    -0.326 N 
HETATM   29  C   UNK N   1      35.287   9.536  16.671  0.00  0.00     0.159 C 
ENDBRANCH  21  22
ENDBRANCH   5  21
TORSDOF 5
ENDMDL
MODEL 9
REMARK VINA RESULT:      -6.1      4.911      6.931
REMARK  5 active torsions:
REMARK  status: ('A' for Active; 'I' for Inactive)
REMARK    1  A    between atoms: C_6  and  N_15 
REMARK    2  A    between atoms: C_7  and  S_26 
REMARK    3  A    between atoms: C_11  and  S_26 
REMARK    4  A    between atoms: C_12  and  C_14 
REMARK    5  A    between atoms: C_13  and  N_22 
REMARK       I    between atoms: C_14  and  N_22 
ROOT
HETATM    1  C   UNK N   1      26.990  19.977   3.778  0.00  0.00     0.031 A 
HETATM    2  C   UNK N   1      25.936  17.619   4.811  0.00  0.00     0.038 A 
HETATM    3  C   UNK N   1      25.630  19.689   3.589  0.00  0.00     0.041 A 
HETATM    4  C   UNK N   1      27.819  19.081   4.464  0.00  0.00     0.021 A 
HETATM    5  C   UNK N   1      27.286  17.899   4.991  0.00  0.00     0.009 A 
HETATM    6  C   UNK N   1      25.090  18.493   4.114  0.00  0.00     0.059 A 
ENDROOT
BRANCH   6   7
HETATM    7  C   UNK N   1      23.662  18.099   3.979  0.00  0.00     0.259 C 
HETATM    8  N   UNK N   1      23.378  16.781   3.805  0.00  0.00    -0.303 N 
HETATM    9  H   UNK N   1      24.149  16.172   3.742  0.00  0.00     0.171 HD
HETATM   10  O   UNK N   1      22.769  18.929   4.058  0.00  0.00    -0.267 OA
BRANCH   8  11
HETATM   11  C   UNK N   1      22.096  16.185   3.707  0.00  0.00     0.151 A 
HETATM   12  N   UNK N   1      21.140  16.377   4.643  0.00  0.00    -0.340 N 
HETATM   13  C   UNK N   1      19.962  15.747   4.314  0.00  0.00     0.014 A 
ATOM     14  HN  UNK N   1      21.275  16.925   5.493  1.00  0.00     0.167 HD
HETATM   15  C   UNK N   1      19.963  15.033   3.100  0.00  0.00     0.077 A 
HETATM   16  C   UNK N   1      18.762  15.844   5.187  0.00  0.00     0.068 C 
HETATM   17  S   UNK N   1      21.494  15.246   2.489  0.00  0.00    -0.064 SA
ENDBRANCH   8  11
ENDBRANCH   6   7
BRANCH   3  18
HETATM   18  N   UNK N   1      24.825  20.612   2.886  0.00  0.00    -0.398 N 
HETATM   19  H   UNK N   1      24.032  21.036   3.284  0.00  0.00     0.156 HD
HETATM   20  H   UNK N   1      25.067  20.839   1.960  0.00  0.00     0.156 HD
ENDBRANCH   3  18
BRANCH   5  21
HETATM   21  S   UNK N   1      28.311  16.647   5.781  0.00  0.00    -0.053 SA
BRANCH  21  22
HETATM   22  C   UNK N   1      28.469  17.408   7.397  0.00  0.00     0.166 A 
HETATM   23  N   UNK N   1      27.431  17.867   8.114  0.00  0.00    -0.279 N 
HETATM   24  N   UNK N   1      27.931  18.406   9.218  0.00  0.00    -0.294 N 
ATOM     25  HN  UNK N   1      26.445  17.812   7.859  1.00  0.00     0.189 HD
HETATM   26  C   UNK N   1      29.276  18.280   9.163  0.00  0.00     0.201 A 
ATOM     27  HN  UNK N   1      27.398  18.838   9.972  1.00  0.00     0.187 HD
HETATM   28  N   UNK N   1      29.626  17.656   8.027  0.00  0.00    -0.326 N 
HETATM   29  C   UNK N   1      30.975  17.354   7.582  0.00  0.00     0.159 C 
ENDBRANCH  21  22
ENDBRANCH   5  21
TORSDOF 5
ENDMDL
