MODEL 1
REMARK VINA RESULT:      -7.7      0.000      0.000
REMARK  6 active torsions:
REMARK  status: ('A' for Active; 'I' for Inactive)
REMARK    1  A    between atoms: C_13  and  S_33 
REMARK    2  A    between atoms: C_14  and  S_33 
REMARK    3  A    between atoms: C_15  and  S_34 
REMARK    4  A    between atoms: C_16  and  C_19 
REMARK    5  A    between atoms: C_17  and  N_28 
REMARK    6  A    between atoms: C_18  and  S_34 
REMARK       I    between atoms: C_19  and  N_28 
ROOT
HETATM    1  C   UNK N   1      23.642  20.175   3.074  0.00  0.00     0.024 A 
HETATM    2  C   UNK N   1      25.026  20.200   3.268  0.00  0.00     0.039 A 
HETATM    3  C   UNK N   1      22.831  19.326   3.835  0.00  0.00     0.038 A 
HETATM    4  C   UNK N   1      25.602  19.371   4.230  0.00  0.00     0.078 A 
HETATM    5  C   UNK N   1      23.456  18.493   4.809  0.00  0.00     0.119 A 
HETATM    6  N   UNK N   1      24.808  18.552   4.964  0.00  0.00    -0.345 N 
ATOM      7  HN  UNK N   1      25.243  17.951   5.663  1.00  0.00     0.167 HD
ENDROOT
BRANCH   5   8
HETATM    8  C   UNK N   1      22.701  17.546   5.683  0.00  0.00     0.275 C 
HETATM    9  N   UNK N   1      22.894  16.206   5.543  0.00  0.00    -0.302 N 
HETATM   10  H   UNK N   1      23.535  15.904   4.859  0.00  0.00     0.171 HD
HETATM   11  O   UNK N   1      21.916  17.963   6.518  0.00  0.00    -0.266 OA
BRANCH   9  12
HETATM   12  C   UNK N   1      22.233  15.209   6.318  0.00  0.00     0.151 A 
HETATM   13  N   UNK N   1      21.998  15.337   7.643  0.00  0.00    -0.340 N 
HETATM   14  C   UNK N   1      21.344  14.236   8.157  0.00  0.00     0.014 A 
ATOM     15  HN  UNK N   1      22.271  16.149   8.196  1.00  0.00     0.167 HD
HETATM   16  C   UNK N   1      20.977  14.144   9.594  0.00  0.00     0.068 C 
HETATM   17  C   UNK N   1      21.047  13.208   7.243  0.00  0.00     0.077 A 
HETATM   18  S   UNK N   1      21.638  13.752   5.796  0.00  0.00    -0.064 SA
ENDBRANCH   9  12
ENDBRANCH   5   8
BRANCH   3  19
HETATM   19  S   UNK N   1      21.021  19.272   3.603  0.00  0.00    -0.088 SA
BRANCH  19  20
HETATM   20  C   UNK N   1      20.566  17.908   2.518  0.00  0.00     0.005 A 
HETATM   21  C   UNK N   1      20.340  18.035   1.142  0.00  0.00     0.022 A 
HETATM   22  C   UNK N   1      19.990  16.911   0.384  0.00  0.00     0.043 A 
HETATM   23  C   UNK N   1      19.864  15.659   0.999  0.00  0.00     0.116 A 
HETATM   24  C   UNK N   1      20.088  15.531   2.368  0.00  0.00     0.043 A 
HETATM   25  F   UNK N   1      19.525  14.570   0.269  0.00  0.00    -0.206 F 
HETATM   26  C   UNK N   1      20.437  16.651   3.121  0.00  0.00     0.022 A 
ENDBRANCH  19  20
ENDBRANCH   3  19
BRANCH   4  27
HETATM   27  S   UNK N   1      27.397  19.416   4.470  0.00  0.00    -0.035 SA
BRANCH  27  28
HETATM   28  C   UNK N   1      27.593  19.073   6.244  0.00  0.00     0.168 A 
HETATM   29  N   UNK N   1      27.085  19.804   7.251  0.00  0.00    -0.279 N 
HETATM   30  N   UNK N   1      27.454  19.222   8.384  0.00  0.00    -0.294 N 
ATOM     31  HN  UNK N   1      26.521  20.649   7.160  1.00  0.00     0.189 HD
HETATM   32  C   UNK N   1      28.187  18.135   8.067  0.00  0.00     0.201 A 
ATOM     33  HN  UNK N   1      27.223  19.539   9.326  1.00  0.00     0.187 HD
HETATM   34  N   UNK N   1      28.283  18.029   6.731  0.00  0.00    -0.326 N 
HETATM   35  C   UNK N   1      28.989  16.996   5.995  0.00  0.00     0.159 C 
ENDBRANCH  27  28
ENDBRANCH   4  27
TORSDOF 6
ENDMDL
MODEL 2
REMARK VINA RESULT:      -7.4      3.089      6.095
REMARK  6 active torsions:
REMARK  status: ('A' for Active; 'I' for Inactive)
REMARK    1  A    between atoms: C_13  and  S_33 
REMARK    2  A    between atoms: C_14  and  S_33 
REMARK    3  A    between atoms: C_15  and  S_34 
REMARK    4  A    between atoms: C_16  and  C_19 
REMARK    5  A    between atoms: C_17  and  N_28 
REMARK    6  A    between atoms: C_18  and  S_34 
REMARK       I    between atoms: C_19  and  N_28 
ROOT
HETATM    1  C   UNK N   1      25.043  14.226   6.586  0.00  0.00     0.024 A 
HETATM    2  C   UNK N   1      26.332  14.757   6.489  0.00  0.00     0.039 A 
HETATM    3  C   UNK N   1      23.932  14.975   6.182  0.00  0.00     0.038 A 
HETATM    4  C   UNK N   1      26.512  16.045   5.985  0.00  0.00     0.078 A 
HETATM    5  C   UNK N   1      24.154  16.288   5.672  0.00  0.00     0.119 A 
HETATM    6  N   UNK N   1      25.429  16.764   5.596  0.00  0.00    -0.345 N 
ATOM      7  HN  UNK N   1      25.575  17.703   5.230  1.00  0.00     0.167 HD
ENDROOT
BRANCH   5   8
HETATM    8  C   UNK N   1      23.054  17.185   5.210  0.00  0.00     0.275 C 
HETATM    9  N   UNK N   1      22.549  17.035   3.955  0.00  0.00    -0.302 N 
HETATM   10  H   UNK N   1      22.935  16.328   3.387  0.00  0.00     0.171 HD
HETATM   11  O   UNK N   1      22.606  18.047   5.946  0.00  0.00    -0.266 OA
BRANCH   9  12
HETATM   12  C   UNK N   1      21.501  17.830   3.404  0.00  0.00     0.151 A 
HETATM   13  N   UNK N   1      21.710  19.039   2.836  0.00  0.00    -0.340 N 
HETATM   14  C   UNK N   1      20.536  19.602   2.381  0.00  0.00     0.014 A 
ATOM     15  HN  UNK N   1      22.626  19.481   2.753  1.00  0.00     0.167 HD
HETATM   16  C   UNK N   1      20.511  20.931   1.718  0.00  0.00     0.068 C 
HETATM   17  C   UNK N   1      19.366  18.845   2.582  0.00  0.00     0.077 A 
HETATM   18  S   UNK N   1      19.885  17.470   3.342  0.00  0.00    -0.064 SA
ENDBRANCH   9  12
ENDBRANCH   5   8
BRANCH   3  19
HETATM   19  S   UNK N   1      22.237  14.307   6.297  0.00  0.00    -0.088 SA
BRANCH  19  20
HETATM   20  C   UNK N   1      21.953  13.586   7.924  0.00  0.00     0.005 A 
HETATM   21  C   UNK N   1      22.630  12.465   8.419  0.00  0.00     0.022 A 
HETATM   22  C   UNK N   1      22.336  11.980   9.700  0.00  0.00     0.043 A 
HETATM   23  C   UNK N   1      21.366  12.614  10.487  0.00  0.00     0.116 A 
HETATM   24  C   UNK N   1      20.692  13.730   9.995  0.00  0.00     0.043 A 
HETATM   25  F   UNK N   1      21.080  12.147  11.726  0.00  0.00    -0.206 F 
HETATM   26  C   UNK N   1      20.985  14.211   8.721  0.00  0.00     0.022 A 
ENDBRANCH  19  20
ENDBRANCH   3  19
BRANCH   4  27
HETATM   27  S   UNK N   1      28.189  16.718   5.866  0.00  0.00    -0.035 SA
BRANCH  27  28
HETATM   28  C   UNK N   1      28.467  17.449   7.508  0.00  0.00     0.168 A 
HETATM   29  N   UNK N   1      27.543  18.065   8.265  0.00  0.00    -0.279 N 
HETATM   30  N   UNK N   1      28.146  18.452   9.381  0.00  0.00    -0.294 N 
ATOM     31  HN  UNK N   1      26.562  18.208   8.026  1.00  0.00     0.189 HD
HETATM   32  C   UNK N   1      29.438  18.071   9.303  0.00  0.00     0.201 A 
ATOM     33  HN  UNK N   1      27.710  18.949  10.159  1.00  0.00     0.187 HD
HETATM   34  N   UNK N   1      29.653  17.442   8.136  0.00  0.00    -0.326 N 
HETATM   35  C   UNK N   1      30.912  16.883   7.676  0.00  0.00     0.159 C 
ENDBRANCH  27  28
ENDBRANCH   4  27
TORSDOF 6
ENDMDL
MODEL 3
REMARK VINA RESULT:      -7.4      5.886      8.197
REMARK  6 active torsions:
REMARK  status: ('A' for Active; 'I' for Inactive)
REMARK    1  A    between atoms: C_13  and  S_33 
REMARK    2  A    between atoms: C_14  and  S_33 
REMARK    3  A    between atoms: C_15  and  S_34 
REMARK    4  A    between atoms: C_16  and  C_19 
REMARK    5  A    between atoms: C_17  and  N_28 
REMARK    6  A    between atoms: C_18  and  S_34 
REMARK       I    between atoms: C_19  and  N_28 
ROOT
HETATM    1  C   UNK N   1      30.285  17.933   8.390  0.00  0.00     0.024 A 
HETATM    2  C   UNK N   1      31.676  17.954   8.517  0.00  0.00     0.039 A 
HETATM    3  C   UNK N   1      29.679  17.364   7.265  0.00  0.00     0.038 A 
HETATM    4  C   UNK N   1      32.468  17.401   7.510  0.00  0.00     0.078 A 
HETATM    5  C   UNK N   1      30.521  16.809   6.256  0.00  0.00     0.119 A 
HETATM    6  N   UNK N   1      31.873  16.851   6.422  0.00  0.00    -0.345 N 
ATOM      7  HN  UNK N   1      32.465  16.452   5.695  1.00  0.00     0.167 HD
ENDROOT
BRANCH   5   8
HETATM    8  C   UNK N   1      29.999  16.174   5.010  0.00  0.00     0.275 C 
HETATM    9  N   UNK N   1      29.455  14.928   5.069  0.00  0.00    -0.302 N 
HETATM   10  H   UNK N   1      29.425  14.482   5.947  0.00  0.00     0.171 HD
HETATM   11  O   UNK N   1      30.055  16.762   3.943  0.00  0.00    -0.266 OA
BRANCH   9  12
HETATM   12  C   UNK N   1      28.925  14.222   3.950  0.00  0.00     0.151 A 
HETATM   13  N   UNK N   1      29.692  13.759   2.936  0.00  0.00    -0.340 N 
HETATM   14  C   UNK N   1      28.939  13.113   1.977  0.00  0.00     0.014 A 
ATOM     15  HN  UNK N   1      30.704  13.874   2.887  1.00  0.00     0.167 HD
HETATM   16  C   UNK N   1      29.560  12.518   0.766  0.00  0.00     0.068 C 
HETATM   17  C   UNK N   1      27.553  13.051   2.213  0.00  0.00     0.077 A 
HETATM   18  S   UNK N   1      27.340  13.834   3.656  0.00  0.00    -0.064 SA
ENDBRANCH   9  12
ENDBRANCH   5   8
BRANCH   3  19
HETATM   19  S   UNK N   1      27.865  17.322   7.073  0.00  0.00    -0.088 SA
BRANCH  19  20
HETATM   20  C   UNK N   1      27.339  18.484   5.801  0.00  0.00     0.005 A 
HETATM   21  C   UNK N   1      27.530  19.870   5.869  0.00  0.00     0.022 A 
HETATM   22  C   UNK N   1      27.084  20.690   4.825  0.00  0.00     0.043 A 
HETATM   23  C   UNK N   1      26.447  20.128   3.712  0.00  0.00     0.116 A 
HETATM   24  C   UNK N   1      26.256  18.749   3.642  0.00  0.00     0.043 A 
HETATM   25  F   UNK N   1      26.015  20.918   2.701  0.00  0.00    -0.206 F 
HETATM   26  C   UNK N   1      26.701  17.934   4.682  0.00  0.00     0.022 A 
ENDBRANCH  19  20
ENDBRANCH   3  19
BRANCH   4  27
HETATM   27  S   UNK N   1      34.271  17.436   7.689  0.00  0.00    -0.035 SA
BRANCH  27  28
HETATM   28  C   UNK N   1      34.551  16.626   9.292  0.00  0.00     0.168 A 
HETATM   29  N   UNK N   1      34.982  17.225  10.415  0.00  0.00    -0.279 N 
HETATM   30  N   UNK N   1      35.054  16.292  11.355  0.00  0.00    -0.294 N 
ATOM     31  HN  UNK N   1      35.210  18.213  10.525  1.00  0.00     0.189 HD
HETATM   32  C   UNK N   1      34.666  15.123  10.803  0.00  0.00     0.201 A 
ATOM     33  HN  UNK N   1      35.349  16.433  12.322  1.00  0.00     0.187 HD
HETATM   34  N   UNK N   1      34.349  15.317   9.512  0.00  0.00    -0.326 N 
HETATM   35  C   UNK N   1      33.887  14.308   8.576  0.00  0.00     0.159 C 
ENDBRANCH  27  28
ENDBRANCH   4  27
TORSDOF 6
ENDMDL
MODEL 4
REMARK VINA RESULT:      -7.3      3.052      6.127
REMARK  6 active torsions:
REMARK  status: ('A' for Active; 'I' for Inactive)
REMARK    1  A    between atoms: C_13  and  S_33 
REMARK    2  A    between atoms: C_14  and  S_33 
REMARK    3  A    between atoms: C_15  and  S_34 
REMARK    4  A    between atoms: C_16  and  C_19 
REMARK    5  A    between atoms: C_17  and  N_28 
REMARK    6  A    between atoms: C_18  and  S_34 
REMARK       I    between atoms: C_19  and  N_28 
ROOT
HETATM    1  C   UNK N   1      25.255  14.604   7.227  0.00  0.00     0.024 A 
HETATM    2  C   UNK N   1      26.421  15.371   7.291  0.00  0.00     0.039 A 
HETATM    3  C   UNK N   1      24.231  14.936   6.332  0.00  0.00     0.038 A 
HETATM    4  C   UNK N   1      26.565  16.478   6.454  0.00  0.00     0.078 A 
HETATM    5  C   UNK N   1      24.414  16.074   5.492  0.00  0.00     0.119 A 
HETATM    6  N   UNK N   1      25.567  16.792   5.590  0.00  0.00    -0.345 N 
ATOM      7  HN  UNK N   1      25.687  17.604   4.984  1.00  0.00     0.167 HD
ENDROOT
BRANCH   5   8
HETATM    8  C   UNK N   1      23.398  16.531   4.498  0.00  0.00     0.275 C 
HETATM    9  N   UNK N   1      22.594  17.587   4.797  0.00  0.00    -0.302 N 
HETATM   10  H   UNK N   1      22.714  18.020   5.674  0.00  0.00     0.171 HD
HETATM   11  O   UNK N   1      23.284  15.966   3.424  0.00  0.00    -0.266 OA
BRANCH   9  12
HETATM   12  C   UNK N   1      21.591  18.112   3.931  0.00  0.00     0.151 A 
HETATM   13  N   UNK N   1      21.767  19.225   3.183  0.00  0.00    -0.340 N 
HETATM   14  C   UNK N   1      20.649  19.521   2.432  0.00  0.00     0.014 A 
ATOM     15  HN  UNK N   1      22.624  19.779   3.176  1.00  0.00     0.167 HD
HETATM   16  C   UNK N   1      20.602  20.701   1.530  0.00  0.00     0.068 C 
HETATM   17  C   UNK N   1      19.558  18.642   2.570  0.00  0.00     0.077 A 
HETATM   18  S   UNK N   1      20.071  17.508   3.660  0.00  0.00    -0.064 SA
ENDBRANCH   9  12
ENDBRANCH   5   8
BRANCH   3  19
HETATM   19  S   UNK N   1      22.697  13.952   6.227  0.00  0.00    -0.088 SA
BRANCH  19  20
HETATM   20  C   UNK N   1      22.109  13.524   7.875  0.00  0.00     0.005 A 
HETATM   21  C   UNK N   1      21.133  14.242   8.576  0.00  0.00     0.022 A 
HETATM   22  C   UNK N   1      20.743  13.827   9.856  0.00  0.00     0.043 A 
HETATM   23  C   UNK N   1      21.328  12.695  10.437  0.00  0.00     0.116 A 
HETATM   24  C   UNK N   1      22.301  11.979   9.741  0.00  0.00     0.043 A 
HETATM   25  F   UNK N   1      20.954  12.291  11.674  0.00  0.00    -0.206 F 
HETATM   26  C   UNK N   1      22.687  12.394   8.467  0.00  0.00     0.022 A 
ENDBRANCH  19  20
ENDBRANCH   3  19
BRANCH   4  27
HETATM   27  S   UNK N   1      28.082  17.463   6.549  0.00  0.00    -0.035 SA
BRANCH  27  28
HETATM   28  C   UNK N   1      27.470  19.172   6.637  0.00  0.00     0.168 A 
HETATM   29  N   UNK N   1      27.082  19.816   7.751  0.00  0.00    -0.279 N 
HETATM   30  N   UNK N   1      26.707  21.036   7.390  0.00  0.00    -0.294 N 
ATOM     31  HN  UNK N   1      27.077  19.437   8.698  1.00  0.00     0.189 HD
HETATM   32  C   UNK N   1      26.868  21.134   6.054  0.00  0.00     0.201 A 
ATOM     33  HN  UNK N   1      26.361  21.767   8.011  1.00  0.00     0.187 HD
HETATM   34  N   UNK N   1      27.344  19.976   5.569  0.00  0.00    -0.326 N 
HETATM   35  C   UNK N   1      27.650  19.681   4.181  0.00  0.00     0.159 C 
ENDBRANCH  27  28
ENDBRANCH   4  27
TORSDOF 6
ENDMDL
MODEL 5
REMARK VINA RESULT:      -7.2      3.547      6.487
REMARK  6 active torsions:
REMARK  status: ('A' for Active; 'I' for Inactive)
REMARK    1  A    between atoms: C_13  and  S_33 
REMARK    2  A    between atoms: C_14  and  S_33 
REMARK    3  A    between atoms: C_15  and  S_34 
REMARK    4  A    between atoms: C_16  and  C_19 
REMARK    5  A    between atoms: C_17  and  N_28 
REMARK    6  A    between atoms: C_18  and  S_34 
REMARK       I    between atoms: C_19  and  N_28 
ROOT
HETATM    1  C   UNK N   1      25.470  14.578   7.452  0.00  0.00     0.024 A 
HETATM    2  C   UNK N   1      26.423  15.565   7.188  0.00  0.00     0.039 A 
HETATM    3  C   UNK N   1      24.265  14.541   6.742  0.00  0.00     0.038 A 
HETATM    4  C   UNK N   1      26.170  16.522   6.205  0.00  0.00     0.078 A 
HETATM    5  C   UNK N   1      24.041  15.536   5.745  0.00  0.00     0.119 A 
HETATM    6  N   UNK N   1      24.999  16.479   5.521  0.00  0.00    -0.345 N 
ATOM      7  HN  UNK N   1      24.828  17.185   4.806  1.00  0.00     0.167 HD
ENDROOT
BRANCH   5   8
HETATM    8  C   UNK N   1      22.799  15.605   4.920  0.00  0.00     0.275 C 
HETATM    9  N   UNK N   1      22.715  14.878   3.773  0.00  0.00    -0.302 N 
HETATM   10  H   UNK N   1      23.490  14.324   3.523  0.00  0.00     0.171 HD
HETATM   11  O   UNK N   1      21.862  16.305   5.266  0.00  0.00    -0.266 OA
BRANCH   9  12
HETATM   12  C   UNK N   1      21.583  14.863   2.906  0.00  0.00     0.151 A 
HETATM   13  N   UNK N   1      21.295  15.868   2.048  0.00  0.00    -0.340 N 
HETATM   14  C   UNK N   1      20.149  15.611   1.323  0.00  0.00     0.014 A 
ATOM     15  HN  UNK N   1      21.857  16.713   1.948  1.00  0.00     0.167 HD
HETATM   16  C   UNK N   1      19.630  16.571   0.314  0.00  0.00     0.068 C 
HETATM   17  C   UNK N   1      19.503  14.390   1.595  0.00  0.00     0.077 A 
HETATM   18  S   UNK N   1      20.433  13.678   2.764  0.00  0.00    -0.064 SA
ENDBRANCH   9  12
ENDBRANCH   5   8
BRANCH   3  19
HETATM   19  S   UNK N   1      23.003  13.264   7.067  0.00  0.00    -0.088 SA
BRANCH  19  20
HETATM   20  C   UNK N   1      23.023  12.785   8.803  0.00  0.00     0.005 A 
HETATM   21  C   UNK N   1      24.179  12.432   9.511  0.00  0.00     0.022 A 
HETATM   22  C   UNK N   1      24.089  12.074  10.863  0.00  0.00     0.043 A 
HETATM   23  C   UNK N   1      22.847  12.069  11.508  0.00  0.00     0.116 A 
HETATM   24  C   UNK N   1      21.695  12.420  10.805  0.00  0.00     0.043 A 
HETATM   25  F   UNK N   1      22.757  11.723  12.814  0.00  0.00    -0.206 F 
HETATM   26  C   UNK N   1      21.787  12.776   9.460  0.00  0.00     0.022 A 
ENDBRANCH  19  20
ENDBRANCH   3  19
BRANCH   4  27
HETATM   27  S   UNK N   1      27.415  17.795   5.874  0.00  0.00    -0.035 SA
BRANCH  27  28
HETATM   28  C   UNK N   1      28.236  18.011   7.481  0.00  0.00     0.168 A 
HETATM   29  N   UNK N   1      27.721  18.635   8.554  0.00  0.00    -0.279 N 
HETATM   30  N   UNK N   1      28.631  18.575   9.518  0.00  0.00    -0.294 N 
ATOM     31  HN  UNK N   1      26.803  19.074   8.616  1.00  0.00     0.189 HD
HETATM   32  C   UNK N   1      29.701  17.913   9.031  0.00  0.00     0.201 A 
ATOM     33  HN  UNK N   1      28.538  18.961  10.458  1.00  0.00     0.187 HD
HETATM   34  N   UNK N   1      29.468  17.554   7.758  0.00  0.00    -0.326 N 
HETATM   35  C   UNK N   1      30.373  16.826   6.886  0.00  0.00     0.159 C 
ENDBRANCH  27  28
ENDBRANCH   4  27
TORSDOF 6
ENDMDL
MODEL 6
REMARK VINA RESULT:      -7.1     10.154     14.394
REMARK  6 active torsions:
REMARK  status: ('A' for Active; 'I' for Inactive)
REMARK    1  A    between atoms: C_13  and  S_33 
REMARK    2  A    between atoms: C_14  and  S_33 
REMARK    3  A    between atoms: C_15  and  S_34 
REMARK    4  A    between atoms: C_16  and  C_19 
REMARK    5  A    between atoms: C_17  and  N_28 
REMARK    6  A    between atoms: C_18  and  S_34 
REMARK       I    between atoms: C_19  and  N_28 
ROOT
HETATM    1  C   UNK N   1      35.881  15.434  11.499  0.00  0.00     0.024 A 
HETATM    2  C   UNK N   1      35.497  16.533  10.727  0.00  0.00     0.039 A 
HETATM    3  C   UNK N   1      35.589  14.131  11.081  0.00  0.00     0.038 A 
HETATM    4  C   UNK N   1      34.814  16.328   9.528  0.00  0.00     0.078 A 
HETATM    5  C   UNK N   1      34.889  13.960   9.850  0.00  0.00     0.119 A 
HETATM    6  N   UNK N   1      34.535  15.061   9.130  0.00  0.00    -0.345 N 
ATOM      7  HN  UNK N   1      34.035  14.927   8.251  1.00  0.00     0.167 HD
ENDROOT
BRANCH   5   8
HETATM    8  C   UNK N   1      34.519  12.624   9.296  0.00  0.00     0.275 C 
HETATM    9  N   UNK N   1      33.418  11.982   9.774  0.00  0.00    -0.302 N 
HETATM   10  H   UNK N   1      32.897  12.430  10.480  0.00  0.00     0.171 HD
HETATM   11  O   UNK N   1      35.193  12.107   8.422  0.00  0.00    -0.266 OA
BRANCH   9  12
HETATM   12  C   UNK N   1      32.967  10.707   9.324  0.00  0.00     0.151 A 
HETATM   13  N   UNK N   1      32.627  10.453   8.040  0.00  0.00    -0.340 N 
HETATM   14  C   UNK N   1      32.225   9.145   7.864  0.00  0.00     0.014 A 
ATOM     15  HN  UNK N   1      32.665  11.145   7.291  1.00  0.00     0.167 HD
HETATM   16  C   UNK N   1      31.802   8.628   6.537  0.00  0.00     0.068 C 
HETATM   17  C   UNK N   1      32.238   8.332   9.013  0.00  0.00     0.077 A 
HETATM   18  S   UNK N   1      32.770   9.329  10.223  0.00  0.00    -0.064 SA
ENDBRANCH   9  12
ENDBRANCH   5   8
BRANCH   3  19
HETATM   19  S   UNK N   1      36.079  12.677  12.070  0.00  0.00    -0.088 SA
BRANCH  19  20
HETATM   20  C   UNK N   1      35.874  13.013  13.828  0.00  0.00     0.005 A 
HETATM   21  C   UNK N   1      36.732  13.821  14.583  0.00  0.00     0.022 A 
HETATM   22  C   UNK N   1      36.486  14.021  15.947  0.00  0.00     0.043 A 
HETATM   23  C   UNK N   1      35.382  13.413  16.559  0.00  0.00     0.116 A 
HETATM   24  C   UNK N   1      34.526  12.608  15.809  0.00  0.00     0.043 A 
HETATM   25  F   UNK N   1      35.141  13.604  17.878  0.00  0.00    -0.206 F 
HETATM   26  C   UNK N   1      34.773  12.411  14.451  0.00  0.00     0.022 A 
ENDBRANCH  19  20
ENDBRANCH   3  19
BRANCH   4  27
HETATM   27  S   UNK N   1      34.323  17.763   8.537  0.00  0.00    -0.035 SA
BRANCH  27  28
HETATM   28  C   UNK N   1      32.584  17.419   8.132  0.00  0.00     0.168 A 
HETATM   29  N   UNK N   1      31.578  17.289   9.014  0.00  0.00    -0.279 N 
HETATM   30  N   UNK N   1      30.475  17.044   8.319  0.00  0.00    -0.294 N 
ATOM     31  HN  UNK N   1      31.649  17.365  10.029  1.00  0.00     0.189 HD
HETATM   32  C   UNK N   1      30.811  17.024   7.012  0.00  0.00     0.201 A 
ATOM     33  HN  UNK N   1      29.542  16.897   8.704  1.00  0.00     0.187 HD
HETATM   34  N   UNK N   1      32.127  17.258   6.880  0.00  0.00    -0.326 N 
HETATM   35  C   UNK N   1      32.873  17.317   5.636  0.00  0.00     0.159 C 
ENDBRANCH  27  28
ENDBRANCH   4  27
TORSDOF 6
ENDMDL
MODEL 7
REMARK VINA RESULT:      -7.0      9.119     12.427
REMARK  6 active torsions:
REMARK  status: ('A' for Active; 'I' for Inactive)
REMARK    1  A    between atoms: C_13  and  S_33 
REMARK    2  A    between atoms: C_14  and  S_33 
REMARK    3  A    between atoms: C_15  and  S_34 
REMARK    4  A    between atoms: C_16  and  C_19 
REMARK    5  A    between atoms: C_17  and  N_28 
REMARK    6  A    between atoms: C_18  and  S_34 
REMARK       I    between atoms: C_19  and  N_28 
ROOT
HETATM    1  C   UNK N   1      35.006  16.802  10.140  0.00  0.00     0.024 A 
HETATM    2  C   UNK N   1      35.681  15.764  10.787  0.00  0.00     0.039 A 
HETATM    3  C   UNK N   1      34.676  16.703   8.784  0.00  0.00     0.038 A 
HETATM    4  C   UNK N   1      36.030  14.618  10.073  0.00  0.00     0.078 A 
HETATM    5  C   UNK N   1      35.049  15.516   8.086  0.00  0.00     0.119 A 
HETATM    6  N   UNK N   1      35.706  14.529   8.758  0.00  0.00    -0.345 N 
ATOM      7  HN  UNK N   1      35.967  13.686   8.249  1.00  0.00     0.167 HD
ENDROOT
BRANCH   5   8
HETATM    8  C   UNK N   1      34.755  15.289   6.640  0.00  0.00     0.275 C 
HETATM    9  N   UNK N   1      33.732  14.464   6.285  0.00  0.00    -0.302 N 
HETATM   10  H   UNK N   1      33.213  14.040   7.007  0.00  0.00     0.171 HD
HETATM   11  O   UNK N   1      35.422  15.835   5.778  0.00  0.00    -0.266 OA
BRANCH   9  12
HETATM   12  C   UNK N   1      33.358  14.172   4.941  0.00  0.00     0.151 A 
HETATM   13  N   UNK N   1      34.256  13.931   3.959  0.00  0.00    -0.340 N 
HETATM   14  C   UNK N   1      33.640  13.675   2.751  0.00  0.00     0.014 A 
ATOM     15  HN  UNK N   1      35.267  13.938   4.095  1.00  0.00     0.167 HD
HETATM   16  C   UNK N   1      34.420  13.382   1.522  0.00  0.00     0.068 C 
HETATM   17  C   UNK N   1      32.232  13.708   2.753  0.00  0.00     0.077 A 
HETATM   18  S   UNK N   1      31.826  14.068   4.317  0.00  0.00    -0.064 SA
ENDBRANCH   9  12
ENDBRANCH   5   8
BRANCH   3  19
HETATM   19  S   UNK N   1      33.795  18.043   7.914  0.00  0.00    -0.088 SA
BRANCH  19  20
HETATM   20  C   UNK N   1      32.032  17.682   7.822  0.00  0.00     0.005 A 
HETATM   21  C   UNK N   1      31.421  16.996   6.766  0.00  0.00     0.022 A 
HETATM   22  C   UNK N   1      30.039  16.765   6.789  0.00  0.00     0.043 A 
HETATM   23  C   UNK N   1      29.267  17.218   7.866  0.00  0.00     0.116 A 
HETATM   24  C   UNK N   1      29.875  17.901   8.918  0.00  0.00     0.043 A 
HETATM   25  F   UNK N   1      27.932  16.996   7.891  0.00  0.00    -0.206 F 
HETATM   26  C   UNK N   1      31.249  18.130   8.894  0.00  0.00     0.022 A 
ENDBRANCH  19  20
ENDBRANCH   3  19
BRANCH   4  27
HETATM   27  S   UNK N   1      36.905  13.280  10.925  0.00  0.00    -0.035 SA
BRANCH  27  28
HETATM   28  C   UNK N   1      36.384  13.473  12.657  0.00  0.00     0.168 A 
HETATM   29  N   UNK N   1      36.867  14.372  13.531  0.00  0.00    -0.279 N 
HETATM   30  N   UNK N   1      36.229  14.185  14.679  0.00  0.00    -0.294 N 
ATOM     31  HN  UNK N   1      37.588  15.069  13.347  1.00  0.00     0.189 HD
HETATM   32  C   UNK N   1      35.357  13.170  14.503  0.00  0.00     0.201 A 
ATOM     33  HN  UNK N   1      36.372  14.713  15.540  1.00  0.00     0.187 HD
HETATM   34  N   UNK N   1      35.443  12.715  13.242  0.00  0.00    -0.326 N 
HETATM   35  C   UNK N   1      34.671  11.631  12.660  0.00  0.00     0.159 C 
ENDBRANCH  27  28
ENDBRANCH   4  27
TORSDOF 6
ENDMDL
MODEL 8
REMARK VINA RESULT:      -7.0      3.783      7.473
REMARK  6 active torsions:
REMARK  status: ('A' for Active; 'I' for Inactive)
REMARK    1  A    between atoms: C_13  and  S_33 
REMARK    2  A    between atoms: C_14  and  S_33 
REMARK    3  A    between atoms: C_15  and  S_34 
REMARK    4  A    between atoms: C_16  and  C_19 
REMARK    5  A    between atoms: C_17  and  N_28 
REMARK    6  A    between atoms: C_18  and  S_34 
REMARK       I    between atoms: C_19  and  N_28 
ROOT
HETATM    1  C   UNK N   1      23.433  15.500   3.822  0.00  0.00     0.024 A 
HETATM    2  C   UNK N   1      22.529  14.835   4.654  0.00  0.00     0.039 A 
HETATM    3  C   UNK N   1      24.733  15.778   4.260  0.00  0.00     0.038 A 
HETATM    4  C   UNK N   1      22.926  14.446   5.933  0.00  0.00     0.078 A 
HETATM    5  C   UNK N   1      25.103  15.365   5.574  0.00  0.00     0.119 A 
HETATM    6  N   UNK N   1      24.188  14.720   6.350  0.00  0.00    -0.345 N 
ATOM      7  HN  UNK N   1      24.464  14.429   7.287  1.00  0.00     0.167 HD
ENDROOT
BRANCH   5   8
HETATM    8  C   UNK N   1      26.457  15.602   6.157  0.00  0.00     0.275 C 
HETATM    9  N   UNK N   1      26.651  16.657   6.994  0.00  0.00    -0.302 N 
HETATM   10  H   UNK N   1      25.878  17.236   7.189  0.00  0.00     0.171 HD
HETATM   11  O   UNK N   1      27.387  14.860   5.889  0.00  0.00    -0.266 OA
BRANCH   9  12
HETATM   12  C   UNK N   1      27.895  16.983   7.610  0.00  0.00     0.151 A 
HETATM   13  N   UNK N   1      29.085  16.878   6.975  0.00  0.00    -0.340 N 
HETATM   14  C   UNK N   1      30.135  17.253   7.788  0.00  0.00     0.014 A 
ATOM     15  HN  UNK N   1      29.192  16.559   6.012  1.00  0.00     0.167 HD
HETATM   16  C   UNK N   1      31.542  17.222   7.311  0.00  0.00     0.068 C 
HETATM   17  C   UNK N   1      29.795  17.665   9.090  0.00  0.00     0.077 A 
HETATM   18  S   UNK N   1      28.147  17.533   9.153  0.00  0.00    -0.064 SA
ENDBRANCH   9  12
ENDBRANCH   5   8
BRANCH   3  19
HETATM   19  S   UNK N   1      25.936  16.645   3.195  0.00  0.00    -0.088 SA
BRANCH  19  20
HETATM   20  C   UNK N   1      26.428  18.208   3.944  0.00  0.00     0.005 A 
HETATM   21  C   UNK N   1      27.755  18.624   4.102  0.00  0.00     0.022 A 
HETATM   22  C   UNK N   1      28.035  19.861   4.698  0.00  0.00     0.043 A 
HETATM   23  C   UNK N   1      26.989  20.682   5.136  0.00  0.00     0.116 A 
HETATM   24  C   UNK N   1      25.667  20.270   4.980  0.00  0.00     0.043 A 
HETATM   25  F   UNK N   1      27.255  21.878   5.713  0.00  0.00    -0.206 F 
HETATM   26  C   UNK N   1      25.391  19.039   4.387  0.00  0.00     0.022 A 
ENDBRANCH  19  20
ENDBRANCH   3  19
BRANCH   4  27
HETATM   27  S   UNK N   1      21.741  13.585   6.999  0.00  0.00    -0.035 SA
BRANCH  27  28
HETATM   28  C   UNK N   1      22.753  13.062   8.416  0.00  0.00     0.168 A 
HETATM   29  N   UNK N   1      22.815  13.674   9.611  0.00  0.00    -0.279 N 
HETATM   30  N   UNK N   1      23.663  12.983  10.363  0.00  0.00    -0.294 N 
ATOM     31  HN  UNK N   1      22.306  14.512   9.889  1.00  0.00     0.189 HD
HETATM   32  C   UNK N   1      24.117  11.950   9.623  0.00  0.00     0.201 A 
ATOM     33  HN  UNK N   1      23.924  13.195  11.326  1.00  0.00     0.187 HD
HETATM   34  N   UNK N   1      23.557  11.986   8.403  0.00  0.00    -0.326 N 
HETATM   35  C   UNK N   1      23.787  11.050   7.318  0.00  0.00     0.159 C 
ENDBRANCH  27  28
ENDBRANCH   4  27
TORSDOF 6
ENDMDL
MODEL 9
REMARK VINA RESULT:      -7.0      7.036     12.072
REMARK  6 active torsions:
REMARK  status: ('A' for Active; 'I' for Inactive)
REMARK    1  A    between atoms: C_13  and  S_33 
REMARK    2  A    between atoms: C_14  and  S_33 
REMARK    3  A    between atoms: C_15  and  S_34 
REMARK    4  A    between atoms: C_16  and  C_19 
REMARK    5  A    between atoms: C_17  and  N_28 
REMARK    6  A    between atoms: C_18  and  S_34 
REMARK       I    between atoms: C_19  and  N_28 
ROOT
HETATM    1  C   UNK N   1      31.348  18.111   8.691  0.00  0.00     0.024 A 
HETATM    2  C   UNK N   1      29.999  18.023   8.341  0.00  0.00     0.039 A 
HETATM    3  C   UNK N   1      32.342  17.633   7.830  0.00  0.00     0.038 A 
HETATM    4  C   UNK N   1      29.639  17.453   7.120  0.00  0.00     0.078 A 
HETATM    5  C   UNK N   1      31.936  17.056   6.590  0.00  0.00     0.119 A 
HETATM    6  N   UNK N   1      30.609  16.991   6.290  0.00  0.00    -0.345 N 
ATOM      7  HN  UNK N   1      30.331  16.577   5.402  1.00  0.00     0.167 HD
ENDROOT
BRANCH   5   8
HETATM    8  C   UNK N   1      32.898  16.510   5.586  0.00  0.00     0.275 C 
HETATM    9  N   UNK N   1      33.251  15.198   5.641  0.00  0.00    -0.302 N 
HETATM   10  H   UNK N   1      32.853  14.645   6.352  0.00  0.00     0.171 HD
HETATM   11  O   UNK N   1      33.367  17.231   4.721  0.00  0.00    -0.266 OA
BRANCH   9  12
HETATM   12  C   UNK N   1      34.157  14.566   4.739  0.00  0.00     0.151 A 
HETATM   13  N   UNK N   1      33.939  14.483   3.407  0.00  0.00    -0.340 N 
HETATM   14  C   UNK N   1      34.964  13.825   2.759  0.00  0.00     0.014 A 
ATOM     15  HN  UNK N   1      33.116  14.862   2.939  1.00  0.00     0.167 HD
HETATM   16  C   UNK N   1      34.949  13.610   1.289  0.00  0.00     0.068 C 
HETATM   17  C   UNK N   1      36.021  13.371   3.571  0.00  0.00     0.077 A 
HETATM   18  S   UNK N   1      35.599  13.833   5.103  0.00  0.00    -0.064 SA
ENDBRANCH   9  12
ENDBRANCH   5   8
BRANCH   3  19
HETATM   19  S   UNK N   1      34.112  17.735   8.261  0.00  0.00    -0.088 SA
BRANCH  19  20
HETATM   20  C   UNK N   1      34.514  16.549   9.557  0.00  0.00     0.005 A 
HETATM   21  C   UNK N   1      35.424  16.790  10.593  0.00  0.00     0.022 A 
HETATM   22  C   UNK N   1      35.667  15.801  11.555  0.00  0.00     0.043 A 
HETATM   23  C   UNK N   1      35.003  14.571  11.483  0.00  0.00     0.116 A 
HETATM   24  C   UNK N   1      34.096  14.329  10.452  0.00  0.00     0.043 A 
HETATM   25  F   UNK N   1      35.236  13.612  12.410  0.00  0.00    -0.206 F 
HETATM   26  C   UNK N   1      33.855  15.315   9.496  0.00  0.00     0.022 A 
ENDBRANCH  19  20
ENDBRANCH   3  19
BRANCH   4  27
HETATM   27  S   UNK N   1      27.885  17.346   6.680  0.00  0.00    -0.035 SA
BRANCH  27  28
HETATM   28  C   UNK N   1      27.412  19.080   6.412  0.00  0.00     0.168 A 
HETATM   29  N   UNK N   1      27.148  19.984   7.371  0.00  0.00    -0.279 N 
HETATM   30  N   UNK N   1      26.844  21.124   6.764  0.00  0.00    -0.294 N 
ATOM     31  HN  UNK N   1      27.177  19.824   8.378  1.00  0.00     0.189 HD
HETATM   32  C   UNK N   1      26.922  20.913   5.434  0.00  0.00     0.201 A 
ATOM     33  HN  UNK N   1      26.595  22.002   7.221  1.00  0.00     0.187 HD
HETATM   34  N   UNK N   1      27.276  19.638   5.199  0.00  0.00    -0.326 N 
HETATM   35  C   UNK N   1      27.466  19.021   3.899  0.00  0.00     0.159 C 
ENDBRANCH  27  28
ENDBRANCH   4  27
TORSDOF 6
ENDMDL
