REMARK  6 active torsions:
REMARK  status: ('A' for Active; 'I' for Inactive)
REMARK    1  A    between atoms: C_13  and  S_33 
REMARK    2  A    between atoms: C_14  and  S_33 
REMARK    3  A    between atoms: C_15  and  S_34 
REMARK    4  A    between atoms: C_16  and  C_19 
REMARK    5  A    between atoms: C_17  and  N_28 
REMARK    6  A    between atoms: C_18  and  S_34 
REMARK       I    between atoms: C_19  and  N_28 
ROOT
HETATM    1  C   UNK N   1       2.661  -0.973   0.000  0.00  0.00     0.024 A 
HETATM    2  C   UNK N   1       2.101  -2.253   0.000  0.00  0.00     0.039 A 
HETATM    3  C   UNK N   1       1.844   0.163   0.000  0.00  0.00     0.038 A 
HETATM    4  C   UNK N   1       0.714  -2.399  -0.000  0.00  0.00     0.078 A 
HETATM    5  C   UNK N   1       0.430  -0.025  -0.000  0.00  0.00     0.119 A 
HETATM    6  N   UNK N   1      -0.071  -1.292  -0.000  0.00  0.00    -0.345 N 
ATOM      7  HN  UNK N   1      -1.083  -1.414  -0.000  1.00  0.00     0.167 HD
ENDROOT
BRANCH   5   8
HETATM    8  C   UNK N   1      -0.547   1.104  -0.000  0.00  0.00     0.275 C 
HETATM    9  N   UNK N   1      -1.881   0.836  -0.000  0.00  0.00    -0.302 N 
HETATM   10  H   UNK N   1      -2.159  -0.109  -0.000  0.00  0.00     0.171 HD
HETATM   11  O   UNK N   1      -0.159   2.260  -0.000  0.00  0.00    -0.266 OA
BRANCH   9  12
HETATM   12  C   UNK N   1      -2.905   1.828  -0.000  0.00  0.00     0.151 A 
HETATM   13  N   UNK N   1      -4.224   1.530  -0.000  0.00  0.00    -0.340 N 
HETATM   14  C   UNK N   1      -5.007   2.666  -0.000  0.00  0.00     0.014 A 
ATOM     15  HN  UNK N   1      -4.595   0.580  -0.000  1.00  0.00     0.167 HD
HETATM   16  C   UNK N   1      -6.491   2.593   0.000  0.00  0.00     0.068 C 
HETATM   17  C   UNK N   1      -4.319   3.894   0.000  0.00  0.00     0.077 A 
HETATM   18  S   UNK N   1      -2.718   3.475  -0.000  0.00  0.00    -0.064 SA
ENDBRANCH   9  12
ENDBRANCH   5   8
BRANCH   3  19
HETATM   19  S   UNK N   1       2.548   1.847   0.000  0.00  0.00    -0.088 SA
BRANCH  19  20
HETATM   20  C   UNK N   1       4.348   1.777   0.000  0.00  0.00     0.005 A 
HETATM   21  C   UNK N   1       5.092   0.591   0.000  0.00  0.00     0.022 A 
HETATM   22  C   UNK N   1       6.492   0.643   0.000  0.00  0.00     0.043 A 
HETATM   23  C   UNK N   1       7.150   1.879  -0.000  0.00  0.00     0.116 A 
HETATM   24  C   UNK N   1       6.411   3.061  -0.000  0.00  0.00     0.043 A 
HETATM   25  F   UNK N   1       8.503   1.933  -0.000  0.00  0.00    -0.206 F 
HETATM   26  C   UNK N   1       5.018   3.007  -0.000  0.00  0.00     0.022 A 
ENDBRANCH  19  20
ENDBRANCH   3  19
BRANCH   4  27
HETATM   27  S   UNK N   1       0.003  -4.065  -0.000  0.00  0.00    -0.035 SA
BRANCH  27  28
HETATM   28  C   UNK N   1      -1.789  -3.758  -0.000  0.00  0.00     0.168 A 
HETATM   29  N   UNK N   1      -2.384  -2.553  -0.000  0.00  0.00    -0.279 N 
HETATM   30  N   UNK N   1      -3.694  -2.762   0.000  0.00  0.00    -0.294 N 
ATOM     31  HN  UNK N   1      -1.916  -1.647  -0.000  1.00  0.00     0.189 HD
HETATM   32  C   UNK N   1      -3.896  -4.096   0.000  0.00  0.00     0.201 A 
ATOM     33  HN  UNK N   1      -4.418  -2.043   0.000  1.00  0.00     0.187 HD
HETATM   34  N   UNK N   1      -2.713  -4.732   0.000  0.00  0.00    -0.326 N 
HETATM   35  C   UNK N   1      -2.505  -6.169  -0.000  0.00  0.00     0.159 C 
ENDBRANCH  27  28
ENDBRANCH   4  27
TORSDOF 6
