REMARK  7 active torsions:
REMARK  status: ('A' for Active; 'I' for Inactive)
REMARK    1  A    between atoms: C_2  and  C_7 
REMARK    2  A    between atoms: C_3  and  C_29 
REMARK    3  A    between atoms: N_32  and  C_6 
REMARK    4  A    between atoms: C_7  and  C_9 
REMARK       I    between atoms: N_32  and  C_8 
REMARK       I    between atoms: N_33  and  C_8 
REMARK    5  A    between atoms: C_9  and  N_23 
REMARK    6  A    between atoms: C_10  and  N_23 
REMARK    7  A    between atoms: N_33  and  C_19 
ROOT
HETATM    1  C   UNK N   1      -1.049   1.773  -0.282  0.00  0.00     0.105 A 
HETATM    2  C   UNK N   1       0.136   1.332  -0.877  0.00  0.00     0.003 A 
HETATM    3  N   UNK N   1      -2.011   0.797  -0.172  0.00  0.00    -0.345 N 
ATOM      4  HN  UNK N   1      -2.927   0.949   0.251  1.00  0.00     0.167 HD
HETATM    5  C   UNK N   1      -1.606  -0.399  -0.690  0.00  0.00     0.152 A 
HETATM    6  S   UNK N   1      -0.084  -0.227  -1.272  0.00  0.00    -0.057 SA
ENDROOT
BRANCH   5   7
HETATM    7  N   UNK N   1      -1.838  -1.607  -0.014  0.00  0.00    -0.288 N 
HETATM    8  C   UNK N   1      -1.755  -1.633   1.340  0.00  0.00     0.326 C 
HETATM    9  O   UNK N   1      -2.154  -0.684   2.008  0.00  0.00    -0.247 OA
HETATM   10  N   UNK N   1      -0.991  -2.566   1.947  0.00  0.00    -0.309 N 
HETATM   11  H   UNK N   1      -0.905  -2.539   2.927  0.00  0.00     0.170 HD
HETATM   12  H   UNK N   1      -2.060  -2.424  -0.515  0.00  0.00     0.172 HD
BRANCH  10  13
HETATM   13  C   UNK N   1      -0.307  -3.581   1.233  0.00  0.00     0.037 A 
HETATM   14  C   UNK N   1      -1.020  -4.658   0.722  0.00  0.00     0.045 A 
HETATM   15  C   UNK N   1      -0.351  -5.737   0.140  0.00  0.00     0.050 A 
HETATM   16  C   UNK N   1       1.049  -5.720   0.048  0.00  0.00     0.016 A 
HETATM   17  C   UNK N   1       1.770  -4.624   0.534  0.00  0.00     0.003 A 
HETATM   18  C   UNK N   1       1.093  -3.564   1.148  0.00  0.00     0.029 A 
BRANCH  15  19
HETATM   19  C   UNK N   1      -1.125  -6.938  -0.302  0.00  0.00     0.417 C 
HETATM   20  F   UNK N   1      -0.845  -7.228  -1.624  0.00  0.00    -0.166 F 
HETATM   21  F   UNK N   1      -2.488  -6.723  -0.168  0.00  0.00    -0.166 F 
HETATM   22  F   UNK N   1      -0.768  -8.013   0.490  0.00  0.00    -0.166 F 
ENDBRANCH  15  19
ENDBRANCH  10  13
ENDBRANCH   5   7
BRANCH   2  23
HETATM   23  C   UNK N   1       1.471   1.934  -0.721  0.00  0.00     0.067 C 
BRANCH  23  24
HETATM   24  C   UNK N   1       1.860   1.870   0.770  0.00  0.00     0.126 C 
BRANCH  24  25
HETATM   25  N   UNK N   1       2.780   2.940   1.048  0.00  0.00    -0.375 N 
HETATM   26  H   UNK N   1       3.609   2.772   1.552  0.00  0.00     0.161 HD
BRANCH  25  27
HETATM   27  C   UNK N   1       2.469   4.236   0.583  0.00  0.00     0.121 A 
HETATM   28  C   UNK N   1       1.194   4.784   0.727  0.00  0.00     0.075 A 
HETATM   29  S   UNK N   1      -0.153   4.290   1.549  0.00  0.00    -0.096 SA
HETATM   30  C   UNK N   1       0.869   5.956   0.084  0.00  0.00     0.054 A 
HETATM   31  C   UNK N   1      -1.201   5.521   1.122  0.00  0.00     0.053 A 
HETATM   32  C   UNK N   1      -0.470   6.386   0.284  0.00  0.00     0.038 A 
HETATM   33  N   UNK N   1       1.785   6.594  -0.686  0.00  0.00    -0.351 N 
HETATM   34  C   UNK N   1       3.043   6.073  -0.806  0.00  0.00     0.182 A 
ATOM     35  HN  UNK N   1       1.537   7.456  -1.172  1.00  0.00     0.166 HD
HETATM   36  N   UNK N   1       3.374   4.903  -0.181  0.00  0.00    -0.338 N 
ATOM     37  HN  UNK N   1       4.315   4.525  -0.290  1.00  0.00     0.168 HD
ENDBRANCH  25  27
ENDBRANCH  24  25
ENDBRANCH  23  24
ENDBRANCH   2  23
TORSDOF 7
