MODEL 1
REMARK VINA RESULT:      -8.0      0.000      0.000
REMARK  7 active torsions:
REMARK  status: ('A' for Active; 'I' for Inactive)
REMARK    1  A    between atoms: C_2  and  C_7 
REMARK    2  A    between atoms: C_3  and  C_29 
REMARK    3  A    between atoms: N_32  and  C_6 
REMARK    4  A    between atoms: C_7  and  C_9 
REMARK       I    between atoms: N_32  and  C_8 
REMARK       I    between atoms: N_33  and  C_8 
REMARK    5  A    between atoms: C_9  and  N_23 
REMARK    6  A    between atoms: C_10  and  N_23 
REMARK    7  A    between atoms: N_33  and  C_19 
ROOT
HETATM    1  C   UNK N   1      36.787  14.568  10.206  0.00  0.00     0.105 A 
HETATM    2  C   UNK N   1      36.118  15.326  11.171  0.00  0.00     0.003 A 
HETATM    3  N   UNK N   1      37.183  13.329  10.650  0.00  0.00    -0.345 N 
ATOM      4  HN  UNK N   1      37.670  12.647  10.068  1.00  0.00     0.167 HD
HETATM    5  C   UNK N   1      36.854  13.110  11.956  0.00  0.00     0.152 A 
HETATM    6  S   UNK N   1      36.090  14.441  12.532  0.00  0.00    -0.057 SA
ENDROOT
BRANCH   5   7
HETATM    7  N   UNK N   1      36.299  11.892  12.378  0.00  0.00    -0.288 N 
HETATM    8  C   UNK N   1      35.029  11.583  12.013  0.00  0.00     0.326 C 
HETATM    9  O   UNK N   1      34.610  11.882  10.899  0.00  0.00    -0.247 OA
HETATM   10  N   UNK N   1      34.137  11.197  12.950  0.00  0.00    -0.309 N 
HETATM   11  H   UNK N   1      33.209  11.023  12.673  0.00  0.00     0.170 HD
HETATM   12  H   UNK N   1      36.824  11.269  12.930  0.00  0.00     0.172 HD
BRANCH  10  13
HETATM   13  C   UNK N   1      34.480  11.033  14.315  0.00  0.00     0.037 A 
HETATM   14  C   UNK N   1      34.534  12.145  15.145  0.00  0.00     0.045 A 
HETATM   15  C   UNK N   1      35.006  12.028  16.455  0.00  0.00     0.050 A 
HETATM   16  C   UNK N   1      35.403  10.773  16.941  0.00  0.00     0.016 A 
HETATM   17  C   UNK N   1      35.322   9.645  16.119  0.00  0.00     0.003 A 
HETATM   18  C   UNK N   1      34.883   9.779  14.797  0.00  0.00     0.029 A 
BRANCH  15  19
HETATM   19  C   UNK N   1      35.164  13.253  17.298  0.00  0.00     0.417 C 
HETATM   20  F   UNK N   1      35.513  12.903  18.589  0.00  0.00    -0.166 F 
HETATM   21  F   UNK N   1      33.986  13.983  17.333  0.00  0.00    -0.166 F 
HETATM   22  F   UNK N   1      36.158  14.043  16.752  0.00  0.00    -0.166 F 
ENDBRANCH  15  19
ENDBRANCH  10  13
ENDBRANCH   5   7
BRANCH   2  23
HETATM   23  C   UNK N   1      35.178  16.431  10.920  0.00  0.00     0.067 C 
BRANCH  23  24
HETATM   24  C   UNK N   1      34.268  16.036   9.739  0.00  0.00     0.126 C 
BRANCH  24  25
HETATM   25  N   UNK N   1      33.682  17.230   9.195  0.00  0.00    -0.375 N 
HETATM   26  H   UNK N   1      34.103  18.109   9.340  0.00  0.00     0.161 HD
BRANCH  25  27
HETATM   27  C   UNK N   1      32.490  17.117   8.446  0.00  0.00     0.121 A 
HETATM   28  C   UNK N   1      32.487  17.176   7.052  0.00  0.00     0.075 A 
HETATM   29  S   UNK N   1      33.699  17.185   5.928  0.00  0.00    -0.096 SA
HETATM   30  C   UNK N   1      31.298  17.271   6.367  0.00  0.00     0.054 A 
HETATM   31  C   UNK N   1      32.781  17.319   4.537  0.00  0.00     0.053 A 
HETATM   32  C   UNK N   1      31.436  17.360   4.956  0.00  0.00     0.038 A 
HETATM   33  N   UNK N   1      30.119  17.298   7.038  0.00  0.00    -0.351 N 
HETATM   34  C   UNK N   1      30.119  17.213   8.402  0.00  0.00     0.182 A 
ATOM     35  HN  UNK N   1      29.240  17.381   6.527  1.00  0.00     0.166 HD
HETATM   36  N   UNK N   1      31.295  17.130   9.094  0.00  0.00    -0.338 N 
ATOM     37  HN  UNK N   1      31.275  17.076  10.112  1.00  0.00     0.168 HD
ENDBRANCH  25  27
ENDBRANCH  24  25
ENDBRANCH  23  24
ENDBRANCH   2  23
TORSDOF 7
ENDMDL
MODEL 2
REMARK VINA RESULT:      -7.9      3.773      8.972
REMARK  7 active torsions:
REMARK  status: ('A' for Active; 'I' for Inactive)
REMARK    1  A    between atoms: C_2  and  C_7 
REMARK    2  A    between atoms: C_3  and  C_29 
REMARK    3  A    between atoms: N_32  and  C_6 
REMARK    4  A    between atoms: C_7  and  C_9 
REMARK       I    between atoms: N_32  and  C_8 
REMARK       I    between atoms: N_33  and  C_8 
REMARK    5  A    between atoms: C_9  and  N_23 
REMARK    6  A    between atoms: C_10  and  N_23 
REMARK    7  A    between atoms: N_33  and  C_19 
ROOT
HETATM    1  C   UNK N   1      35.895  13.853   8.887  0.00  0.00     0.105 A 
HETATM    2  C   UNK N   1      35.469  14.759   9.863  0.00  0.00     0.003 A 
HETATM    3  N   UNK N   1      34.978  13.648   7.883  0.00  0.00    -0.345 N 
ATOM      4  HN  UNK N   1      35.137  13.029   7.088  1.00  0.00     0.167 HD
HETATM    5  C   UNK N   1      33.831  14.365   8.066  0.00  0.00     0.152 A 
HETATM    6  S   UNK N   1      33.969  15.225   9.454  0.00  0.00    -0.057 SA
ENDROOT
BRANCH   5   7
HETATM    7  N   UNK N   1      33.224  15.059   7.009  0.00  0.00    -0.288 N 
HETATM    8  C   UNK N   1      33.773  16.224   6.581  0.00  0.00     0.326 C 
HETATM    9  O   UNK N   1      34.992  16.360   6.540  0.00  0.00    -0.247 OA
HETATM   10  N   UNK N   1      33.002  17.325   6.461  0.00  0.00    -0.309 N 
HETATM   11  H   UNK N   1      33.428  18.171   6.195  0.00  0.00     0.170 HD
HETATM   12  H   UNK N   1      32.411  14.706   6.581  0.00  0.00     0.172 HD
BRANCH  10  13
HETATM   13  C   UNK N   1      31.606  17.314   6.702  0.00  0.00     0.037 A 
HETATM   14  C   UNK N   1      31.124  17.678   7.953  0.00  0.00     0.045 A 
HETATM   15  C   UNK N   1      29.768  17.539   8.257  0.00  0.00     0.050 A 
HETATM   16  C   UNK N   1      28.883  17.054   7.283  0.00  0.00     0.016 A 
HETATM   17  C   UNK N   1      29.358  16.714   6.011  0.00  0.00     0.003 A 
HETATM   18  C   UNK N   1      30.724  16.823   5.728  0.00  0.00     0.029 A 
BRANCH  15  19
HETATM   19  C   UNK N   1      29.286  17.828   9.643  0.00  0.00     0.417 C 
HETATM   20  F   UNK N   1      29.946  18.926  10.161  0.00  0.00    -0.166 F 
HETATM   21  F   UNK N   1      29.500  16.740  10.476  0.00  0.00    -0.166 F 
HETATM   22  F   UNK N   1      27.929  18.087   9.596  0.00  0.00    -0.166 F 
ENDBRANCH  15  19
ENDBRANCH  10  13
ENDBRANCH   5   7
BRANCH   2  23
HETATM   23  C   UNK N   1      36.330  15.543  10.764  0.00  0.00     0.067 C 
BRANCH  23  24
HETATM   24  C   UNK N   1      35.876  15.284  12.215  0.00  0.00     0.126 C 
BRANCH  24  25
HETATM   25  N   UNK N   1      36.698  14.243  12.771  0.00  0.00    -0.375 N 
HETATM   26  H   UNK N   1      37.605  14.079  12.424  0.00  0.00     0.161 HD
BRANCH  25  27
HETATM   27  C   UNK N   1      36.177  13.463  13.826  0.00  0.00     0.121 A 
HETATM   28  C   UNK N   1      35.363  12.355  13.589  0.00  0.00     0.075 A 
HETATM   29  S   UNK N   1      34.944  11.545  12.210  0.00  0.00    -0.096 SA
HETATM   30  C   UNK N   1      34.707  11.744  14.633  0.00  0.00     0.054 A 
HETATM   31  C   UNK N   1      33.914  10.402  12.866  0.00  0.00     0.053 A 
HETATM   32  C   UNK N   1      33.883  10.651  14.252  0.00  0.00     0.038 A 
HETATM   33  N   UNK N   1      34.853  12.205  15.900  0.00  0.00    -0.351 N 
HETATM   34  C   UNK N   1      35.672  13.273  16.137  0.00  0.00     0.182 A 
ATOM     35  HN  UNK N   1      34.355  11.758  16.670  1.00  0.00     0.166 HD
HETATM   36  N   UNK N   1      36.320  13.895  15.106  0.00  0.00    -0.338 N 
ATOM     37  HN  UNK N   1      36.920  14.697  15.302  1.00  0.00     0.168 HD
ENDBRANCH  25  27
ENDBRANCH  24  25
ENDBRANCH  23  24
ENDBRANCH   2  23
TORSDOF 7
ENDMDL
MODEL 3
REMARK VINA RESULT:      -7.9      2.115      3.603
REMARK  7 active torsions:
REMARK  status: ('A' for Active; 'I' for Inactive)
REMARK    1  A    between atoms: C_2  and  C_7 
REMARK    2  A    between atoms: C_3  and  C_29 
REMARK    3  A    between atoms: N_32  and  C_6 
REMARK    4  A    between atoms: C_7  and  C_9 
REMARK       I    between atoms: N_32  and  C_8 
REMARK       I    between atoms: N_33  and  C_8 
REMARK    5  A    between atoms: C_9  and  N_23 
REMARK    6  A    between atoms: C_10  and  N_23 
REMARK    7  A    between atoms: N_33  and  C_19 
ROOT
HETATM    1  C   UNK N   1      34.313  16.939   8.537  0.00  0.00     0.105 A 
HETATM    2  C   UNK N   1      33.626  15.741   8.323  0.00  0.00     0.003 A 
HETATM    3  N   UNK N   1      34.711  17.126   9.839  0.00  0.00    -0.345 N 
ATOM      4  HN  UNK N   1      35.235  17.940  10.161  1.00  0.00     0.167 HD
HETATM    5  C   UNK N   1      34.329  16.101  10.656  0.00  0.00     0.152 A 
HETATM    6  S   UNK N   1      33.511  14.998   9.762  0.00  0.00    -0.057 SA
ENDROOT
BRANCH   5   7
HETATM    7  N   UNK N   1      35.209  15.549  11.600  0.00  0.00    -0.288 N 
HETATM    8  C   UNK N   1      36.310  14.884  11.167  0.00  0.00     0.326 C 
HETATM    9  O   UNK N   1      36.928  15.275  10.182  0.00  0.00    -0.247 OA
HETATM   10  N   UNK N   1      36.574  13.647  11.638  0.00  0.00    -0.309 N 
HETATM   11  H   UNK N   1      37.350  13.161  11.277  0.00  0.00     0.170 HD
HETATM   12  H   UNK N   1      35.031  15.644  12.563  0.00  0.00     0.172 HD
BRANCH  10  13
HETATM   13  C   UNK N   1      35.780  13.017  12.629  0.00  0.00     0.037 A 
HETATM   14  C   UNK N   1      35.876  13.434  13.950  0.00  0.00     0.045 A 
HETATM   15  C   UNK N   1      35.212  12.737  14.962  0.00  0.00     0.050 A 
HETATM   16  C   UNK N   1      34.422  11.624  14.637  0.00  0.00     0.016 A 
HETATM   17  C   UNK N   1      34.297  11.218  13.304  0.00  0.00     0.003 A 
HETATM   18  C   UNK N   1      34.996  11.901  12.301  0.00  0.00     0.029 A 
BRANCH  15  19
HETATM   19  C   UNK N   1      35.417  13.129  16.390  0.00  0.00     0.417 C 
HETATM   20  F   UNK N   1      34.218  13.517  16.957  0.00  0.00    -0.166 F 
HETATM   21  F   UNK N   1      36.320  14.177  16.489  0.00  0.00    -0.166 F 
HETATM   22  F   UNK N   1      35.923  12.044  17.081  0.00  0.00    -0.166 F 
ENDBRANCH  15  19
ENDBRANCH  10  13
ENDBRANCH   5   7
BRANCH   2  23
HETATM   23  C   UNK N   1      33.491  15.026   7.043  0.00  0.00     0.067 C 
BRANCH  23  24
HETATM   24  C   UNK N   1      31.989  14.879   6.726  0.00  0.00     0.126 C 
BRANCH  24  25
HETATM   25  N   UNK N   1      31.496  16.147   6.258  0.00  0.00    -0.375 N 
HETATM   26  H   UNK N   1      32.081  16.760   5.756  0.00  0.00     0.161 HD
BRANCH  25  27
HETATM   27  C   UNK N   1      30.156  16.494   6.534  0.00  0.00     0.121 A 
HETATM   28  C   UNK N   1      29.805  17.240   7.660  0.00  0.00     0.075 A 
HETATM   29  S   UNK N   1      30.698  18.048   8.793  0.00  0.00    -0.096 SA
HETATM   30  C   UNK N   1      28.482  17.383   8.009  0.00  0.00     0.054 A 
HETATM   31  C   UNK N   1      29.461  18.601   9.773  0.00  0.00     0.053 A 
HETATM   32  C   UNK N   1      28.264  18.136   9.194  0.00  0.00     0.038 A 
HETATM   33  N   UNK N   1      27.508  16.810   7.260  0.00  0.00    -0.351 N 
HETATM   34  C   UNK N   1      27.848  16.101   6.142  0.00  0.00     0.182 A 
ATOM     35  HN  UNK N   1      26.529  16.907   7.530  1.00  0.00     0.166 HD
HETATM   36  N   UNK N   1      29.160  15.943   5.791  0.00  0.00    -0.338 N 
ATOM     37  HN  UNK N   1      29.395  15.403   4.959  1.00  0.00     0.168 HD
ENDBRANCH  25  27
ENDBRANCH  24  25
ENDBRANCH  23  24
ENDBRANCH   2  23
TORSDOF 7
ENDMDL
MODEL 4
REMARK VINA RESULT:      -7.8      2.615      3.916
REMARK  7 active torsions:
REMARK  status: ('A' for Active; 'I' for Inactive)
REMARK    1  A    between atoms: C_2  and  C_7 
REMARK    2  A    between atoms: C_3  and  C_29 
REMARK    3  A    between atoms: N_32  and  C_6 
REMARK    4  A    between atoms: C_7  and  C_9 
REMARK       I    between atoms: N_32  and  C_8 
REMARK       I    between atoms: N_33  and  C_8 
REMARK    5  A    between atoms: C_9  and  N_23 
REMARK    6  A    between atoms: C_10  and  N_23 
REMARK    7  A    between atoms: N_33  and  C_19 
ROOT
HETATM    1  C   UNK N   1      35.058  11.666  10.336  0.00  0.00     0.105 A 
HETATM    2  C   UNK N   1      36.368  11.320  10.675  0.00  0.00     0.003 A 
HETATM    3  N   UNK N   1      34.157  11.501  11.361  0.00  0.00    -0.345 N 
ATOM      4  HN  UNK N   1      33.164  11.721  11.284  1.00  0.00     0.167 HD
HETATM    5  C   UNK N   1      34.738  11.011  12.495  0.00  0.00     0.152 A 
HETATM    6  S   UNK N   1      36.336  10.790  12.209  0.00  0.00    -0.057 SA
ENDROOT
BRANCH   5   7
HETATM    7  N   UNK N   1      34.441  11.543  13.760  0.00  0.00    -0.288 N 
HETATM    8  C   UNK N   1      34.892  12.782  14.078  0.00  0.00     0.326 C 
HETATM    9  O   UNK N   1      34.918  13.672  13.234  0.00  0.00    -0.247 OA
HETATM   10  N   UNK N   1      35.567  12.974  15.231  0.00  0.00    -0.309 N 
HETATM   11  H   UNK N   1      35.928  13.870  15.422  0.00  0.00     0.170 HD
HETATM   12  H   UNK N   1      33.911  11.025  14.406  0.00  0.00     0.172 HD
BRANCH  10  13
HETATM   13  C   UNK N   1      35.779  11.941  16.178  0.00  0.00     0.037 A 
HETATM   14  C   UNK N   1      35.331  12.106  17.482  0.00  0.00     0.045 A 
HETATM   15  C   UNK N   1      35.652  11.166  18.464  0.00  0.00     0.050 A 
HETATM   16  C   UNK N   1      36.409  10.035  18.123  0.00  0.00     0.016 A 
HETATM   17  C   UNK N   1      36.837   9.849  16.804  0.00  0.00     0.003 A 
HETATM   18  C   UNK N   1      36.541  10.815  15.835  0.00  0.00     0.029 A 
BRANCH  15  19
HETATM   19  C   UNK N   1      35.259  11.415  19.886  0.00  0.00     0.417 C 
HETATM   20  F   UNK N   1      36.342  11.221  20.722  0.00  0.00    -0.166 F 
HETATM   21  F   UNK N   1      34.236  10.563  20.271  0.00  0.00    -0.166 F 
HETATM   22  F   UNK N   1      34.816  12.719  20.002  0.00  0.00    -0.166 F 
ENDBRANCH  15  19
ENDBRANCH  10  13
ENDBRANCH   5   7
BRANCH   2  23
HETATM   23  C   UNK N   1      37.598  11.803  10.025  0.00  0.00     0.067 C 
BRANCH  23  24
HETATM   24  C   UNK N   1      38.150  12.985  10.847  0.00  0.00     0.126 C 
BRANCH  24  25
HETATM   25  N   UNK N   1      37.995  14.189  10.076  0.00  0.00    -0.375 N 
HETATM   26  H   UNK N   1      38.728  14.520   9.509  0.00  0.00     0.161 HD
BRANCH  25  27
HETATM   27  C   UNK N   1      36.770  14.886  10.150  0.00  0.00     0.121 A 
HETATM   28  C   UNK N   1      35.899  14.963   9.062  0.00  0.00     0.075 A 
HETATM   29  S   UNK N   1      35.877  14.214   7.588  0.00  0.00    -0.096 SA
HETATM   30  C   UNK N   1      34.820  15.816   9.099  0.00  0.00     0.054 A 
HETATM   31  C   UNK N   1      34.519  14.938   6.934  0.00  0.00     0.053 A 
HETATM   32  C   UNK N   1      34.036  15.825   7.915  0.00  0.00     0.038 A 
HETATM   33  N   UNK N   1      34.587  16.581  10.195  0.00  0.00    -0.351 N 
HETATM   34  C   UNK N   1      35.423  16.486  11.272  0.00  0.00     0.182 A 
ATOM     35  HN  UNK N   1      33.794  17.222  10.214  1.00  0.00     0.166 HD
HETATM   36  N   UNK N   1      36.505  15.651  11.242  0.00  0.00    -0.338 N 
ATOM     37  HN  UNK N   1      37.122  15.601  12.052  1.00  0.00     0.168 HD
ENDBRANCH  25  27
ENDBRANCH  24  25
ENDBRANCH  23  24
ENDBRANCH   2  23
TORSDOF 7
ENDMDL
MODEL 5
REMARK VINA RESULT:      -7.8      4.905     10.170
REMARK  7 active torsions:
REMARK  status: ('A' for Active; 'I' for Inactive)
REMARK    1  A    between atoms: C_2  and  C_7 
REMARK    2  A    between atoms: C_3  and  C_29 
REMARK    3  A    between atoms: N_32  and  C_6 
REMARK    4  A    between atoms: C_7  and  C_9 
REMARK       I    between atoms: N_32  and  C_8 
REMARK       I    between atoms: N_33  and  C_8 
REMARK    5  A    between atoms: C_9  and  N_23 
REMARK    6  A    between atoms: C_10  and  N_23 
REMARK    7  A    between atoms: N_33  and  C_19 
ROOT
HETATM    1  C   UNK N   1      36.850  13.898  10.981  0.00  0.00     0.105 A 
HETATM    2  C   UNK N   1      35.622  13.774  11.636  0.00  0.00     0.003 A 
HETATM    3  N   UNK N   1      36.751  14.395   9.704  0.00  0.00    -0.345 N 
ATOM      4  HN  UNK N   1      37.553  14.560   9.095  1.00  0.00     0.167 HD
HETATM    5  C   UNK N   1      35.460  14.645   9.337  0.00  0.00     0.152 A 
HETATM    6  S   UNK N   1      34.477  14.246  10.586  0.00  0.00    -0.057 SA
ENDROOT
BRANCH   5   7
HETATM    7  N   UNK N   1      35.103  15.827   8.670  0.00  0.00    -0.288 N 
HETATM    8  C   UNK N   1      34.908  16.960   9.390  0.00  0.00     0.326 C 
HETATM    9  O   UNK N   1      35.615  17.212  10.361  0.00  0.00    -0.247 OA
HETATM   10  N   UNK N   1      33.774  17.674   9.223  0.00  0.00    -0.309 N 
HETATM   11  H   UNK N   1      33.629  18.466   9.789  0.00  0.00     0.170 HD
HETATM   12  H   UNK N   1      34.998  15.835   7.692  0.00  0.00     0.172 HD
BRANCH  10  13
HETATM   13  C   UNK N   1      32.785  17.330   8.268  0.00  0.00     0.037 A 
HETATM   14  C   UNK N   1      33.108  17.330   6.917  0.00  0.00     0.045 A 
HETATM   15  C   UNK N   1      32.117  17.134   5.953  0.00  0.00     0.050 A 
HETATM   16  C   UNK N   1      30.791  16.910   6.353  0.00  0.00     0.016 A 
HETATM   17  C   UNK N   1      30.466  16.879   7.713  0.00  0.00     0.003 A 
HETATM   18  C   UNK N   1      31.459  17.113   8.671  0.00  0.00     0.029 A 
BRANCH  15  19
HETATM   19  C   UNK N   1      32.461  17.250   4.502  0.00  0.00     0.417 C 
HETATM   20  F   UNK N   1      33.038  16.077   4.051  0.00  0.00    -0.166 F 
HETATM   21  F   UNK N   1      33.345  18.297   4.287  0.00  0.00    -0.166 F 
HETATM   22  F   UNK N   1      31.303  17.497   3.789  0.00  0.00    -0.166 F 
ENDBRANCH  15  19
ENDBRANCH  10  13
ENDBRANCH   5   7
BRANCH   2  23
HETATM   23  C   UNK N   1      35.404  13.743  13.092  0.00  0.00     0.067 C 
BRANCH  23  24
HETATM   24  C   UNK N   1      36.459  14.649  13.759  0.00  0.00     0.126 C 
BRANCH  24  25
HETATM   25  N   UNK N   1      36.910  14.012  14.967  0.00  0.00    -0.375 N 
HETATM   26  H   UNK N   1      37.110  14.544  15.771  0.00  0.00     0.161 HD
BRANCH  25  27
HETATM   27  C   UNK N   1      37.061  12.609  14.974  0.00  0.00     0.121 A 
HETATM   28  C   UNK N   1      36.398  11.802  15.899  0.00  0.00     0.075 A 
HETATM   29  S   UNK N   1      35.217  12.111  17.014  0.00  0.00    -0.096 SA
HETATM   30  C   UNK N   1      36.724  10.470  16.013  0.00  0.00     0.054 A 
HETATM   31  C   UNK N   1      35.075  10.589  17.693  0.00  0.00     0.053 A 
HETATM   32  C   UNK N   1      36.002   9.770  17.017  0.00  0.00     0.038 A 
HETATM   33  N   UNK N   1      37.683   9.928  15.223  0.00  0.00    -0.351 N 
HETATM   34  C   UNK N   1      38.314  10.710  14.297  0.00  0.00     0.182 A 
ATOM     35  HN  UNK N   1      37.932   8.943  15.319  1.00  0.00     0.166 HD
HETATM   36  N   UNK N   1      38.007  12.038  14.183  0.00  0.00    -0.338 N 
ATOM     37  HN  UNK N   1      38.495  12.608  13.492  1.00  0.00     0.168 HD
ENDBRANCH  25  27
ENDBRANCH  24  25
ENDBRANCH  23  24
ENDBRANCH   2  23
TORSDOF 7
ENDMDL
MODEL 6
REMARK VINA RESULT:      -7.7      2.609      4.012
REMARK  7 active torsions:
REMARK  status: ('A' for Active; 'I' for Inactive)
REMARK    1  A    between atoms: C_2  and  C_7 
REMARK    2  A    between atoms: C_3  and  C_29 
REMARK    3  A    between atoms: N_32  and  C_6 
REMARK    4  A    between atoms: C_7  and  C_9 
REMARK       I    between atoms: N_32  and  C_8 
REMARK       I    between atoms: N_33  and  C_8 
REMARK    5  A    between atoms: C_9  and  N_23 
REMARK    6  A    between atoms: C_10  and  N_23 
REMARK    7  A    between atoms: N_33  and  C_19 
ROOT
HETATM    1  C   UNK N   1      34.385  16.948   8.852  0.00  0.00     0.105 A 
HETATM    2  C   UNK N   1      33.953  15.645   8.589  0.00  0.00     0.003 A 
HETATM    3  N   UNK N   1      34.791  17.146  10.150  0.00  0.00    -0.345 N 
ATOM      4  HN  UNK N   1      35.148  18.034  10.503  1.00  0.00     0.167 HD
HETATM    5  C   UNK N   1      34.665  16.023  10.916  0.00  0.00     0.152 A 
HETATM    6  S   UNK N   1      34.056  14.821   9.984  0.00  0.00    -0.057 SA
ENDROOT
BRANCH   5   7
HETATM    7  N   UNK N   1      35.679  15.620  11.798  0.00  0.00    -0.288 N 
HETATM    8  C   UNK N   1      36.743  14.933  11.311  0.00  0.00     0.326 C 
HETATM    9  O   UNK N   1      37.215  15.210  10.213  0.00  0.00    -0.247 OA
HETATM   10  N   UNK N   1      37.116  13.773  11.894  0.00  0.00    -0.309 N 
HETATM   11  H   UNK N   1      37.860  13.265  11.497  0.00  0.00     0.170 HD
HETATM   12  H   UNK N   1      35.621  15.833  12.757  0.00  0.00     0.172 HD
BRANCH  10  13
HETATM   13  C   UNK N   1      36.481  13.256  13.050  0.00  0.00     0.037 A 
HETATM   14  C   UNK N   1      35.676  12.129  12.944  0.00  0.00     0.045 A 
HETATM   15  C   UNK N   1      34.930  11.687  14.038  0.00  0.00     0.050 A 
HETATM   16  C   UNK N   1      35.016  12.371  15.261  0.00  0.00     0.016 A 
HETATM   17  C   UNK N   1      35.848  13.489  15.382  0.00  0.00     0.003 A 
HETATM   18  C   UNK N   1      36.564  13.946  14.269  0.00  0.00     0.029 A 
BRANCH  15  19
HETATM   19  C   UNK N   1      33.983  10.541  13.875  0.00  0.00     0.417 C 
HETATM   20  F   UNK N   1      33.465  10.527  12.594  0.00  0.00    -0.166 F 
HETATM   21  F   UNK N   1      32.937  10.633  14.781  0.00  0.00    -0.166 F 
HETATM   22  F   UNK N   1      34.666   9.363  14.108  0.00  0.00    -0.166 F 
ENDBRANCH  15  19
ENDBRANCH  10  13
ENDBRANCH   5   7
BRANCH   2  23
HETATM   23  C   UNK N   1      33.915  14.983   7.274  0.00  0.00     0.067 C 
BRANCH  23  24
HETATM   24  C   UNK N   1      33.006  15.810   6.342  0.00  0.00     0.126 C 
BRANCH  24  25
HETATM   25  N   UNK N   1      31.637  15.589   6.725  0.00  0.00    -0.375 N 
HETATM   26  H   UNK N   1      31.372  14.760   7.186  0.00  0.00     0.161 HD
BRANCH  25  27
HETATM   27  C   UNK N   1      30.682  16.584   6.425  0.00  0.00     0.121 A 
HETATM   28  C   UNK N   1      29.999  17.274   7.426  0.00  0.00     0.075 A 
HETATM   29  S   UNK N   1      30.172  17.330   9.069  0.00  0.00    -0.096 SA
HETATM   30  C   UNK N   1      28.934  18.084   7.103  0.00  0.00     0.054 A 
HETATM   31  C   UNK N   1      28.911  18.363   9.443  0.00  0.00     0.053 A 
HETATM   32  C   UNK N   1      28.303  18.699   8.218  0.00  0.00     0.038 A 
HETATM   33  N   UNK N   1      28.545  18.226   5.812  0.00  0.00    -0.351 N 
HETATM   34  C   UNK N   1      29.231  17.572   4.827  0.00  0.00     0.182 A 
ATOM     35  HN  UNK N   1      27.747  18.816   5.577  1.00  0.00     0.166 HD
HETATM   36  N   UNK N   1      30.284  16.756   5.137  0.00  0.00    -0.338 N 
ATOM     37  HN  UNK N   1      30.778  16.269   4.389  1.00  0.00     0.168 HD
ENDBRANCH  25  27
ENDBRANCH  24  25
ENDBRANCH  23  24
ENDBRANCH   2  23
TORSDOF 7
ENDMDL
MODEL 7
REMARK VINA RESULT:      -7.7      1.937      2.665
REMARK  7 active torsions:
REMARK  status: ('A' for Active; 'I' for Inactive)
REMARK    1  A    between atoms: C_2  and  C_7 
REMARK    2  A    between atoms: C_3  and  C_29 
REMARK    3  A    between atoms: N_32  and  C_6 
REMARK    4  A    between atoms: C_7  and  C_9 
REMARK       I    between atoms: N_32  and  C_8 
REMARK       I    between atoms: N_33  and  C_8 
REMARK    5  A    between atoms: C_9  and  N_23 
REMARK    6  A    between atoms: C_10  and  N_23 
REMARK    7  A    between atoms: N_33  and  C_19 
ROOT
HETATM    1  C   UNK N   1      36.589  14.328  10.544  0.00  0.00     0.105 A 
HETATM    2  C   UNK N   1      36.130  15.295  11.443  0.00  0.00     0.003 A 
HETATM    3  N   UNK N   1      36.983  13.156  11.145  0.00  0.00    -0.345 N 
ATOM      4  HN  UNK N   1      37.330  12.345  10.633  1.00  0.00     0.167 HD
HETATM    5  C   UNK N   1      36.860  13.196  12.504  0.00  0.00     0.152 A 
HETATM    6  S   UNK N   1      36.275  14.666  12.932  0.00  0.00    -0.057 SA
ENDROOT
BRANCH   5   7
HETATM    7  N   UNK N   1      36.314  12.121  13.222  0.00  0.00    -0.288 N 
HETATM    8  C   UNK N   1      35.016  11.781  13.020  0.00  0.00     0.326 C 
HETATM    9  O   UNK N   1      34.523  11.842  11.898  0.00  0.00    -0.247 OA
HETATM   10  N   UNK N   1      34.187  11.643  14.076  0.00  0.00    -0.309 N 
HETATM   11  H   UNK N   1      33.238  11.444  13.907  0.00  0.00     0.170 HD
HETATM   12  H   UNK N   1      36.866  11.618  13.863  0.00  0.00     0.172 HD
BRANCH  10  13
HETATM   13  C   UNK N   1      34.624  11.774  15.418  0.00  0.00     0.037 A 
HETATM   14  C   UNK N   1      34.893  10.634  16.164  0.00  0.00     0.045 A 
HETATM   15  C   UNK N   1      35.187  10.733  17.526  0.00  0.00     0.050 A 
HETATM   16  C   UNK N   1      35.238  11.995  18.137  0.00  0.00     0.016 A 
HETATM   17  C   UNK N   1      34.998  13.149  17.382  0.00  0.00     0.003 A 
HETATM   18  C   UNK N   1      34.668  13.036  16.027  0.00  0.00     0.029 A 
BRANCH  15  19
HETATM   19  C   UNK N   1      35.362   9.490  18.340  0.00  0.00     0.417 C 
HETATM   20  F   UNK N   1      34.686   9.605  19.540  0.00  0.00    -0.166 F 
HETATM   21  F   UNK N   1      36.703   9.255  18.600  0.00  0.00    -0.166 F 
HETATM   22  F   UNK N   1      34.856   8.419  17.628  0.00  0.00    -0.166 F 
ENDBRANCH  15  19
ENDBRANCH  10  13
ENDBRANCH   5   7
BRANCH   2  23
HETATM   23  C   UNK N   1      35.224  16.416  11.136  0.00  0.00     0.067 C 
BRANCH  23  24
HETATM   24  C   UNK N   1      34.850  16.341   9.641  0.00  0.00     0.126 C 
BRANCH  24  25
HETATM   25  N   UNK N   1      33.731  17.213   9.407  0.00  0.00    -0.375 N 
HETATM   26  H   UNK N   1      33.306  17.697  10.152  0.00  0.00     0.161 HD
BRANCH  25  27
HETATM   27  C   UNK N   1      33.255  17.360   8.086  0.00  0.00     0.121 A 
HETATM   28  C   UNK N   1      31.893  17.313   7.785  0.00  0.00     0.075 A 
HETATM   29  S   UNK N   1      30.536  17.284   8.728  0.00  0.00    -0.096 SA
HETATM   30  C   UNK N   1      31.477  17.251   6.475  0.00  0.00     0.054 A 
HETATM   31  C   UNK N   1      29.372  17.182   7.532  0.00  0.00     0.053 A 
HETATM   32  C   UNK N   1      30.069  17.170   6.307  0.00  0.00     0.038 A 
HETATM   33  N   UNK N   1      32.383  17.246   5.466  0.00  0.00    -0.351 N 
HETATM   34  C   UNK N   1      33.716  17.321   5.758  0.00  0.00     0.182 A 
ATOM     35  HN  UNK N   1      32.072  17.188   4.496  1.00  0.00     0.166 HD
HETATM   36  N   UNK N   1      34.142  17.371   7.057  0.00  0.00    -0.338 N 
ATOM     37  HN  UNK N   1      35.141  17.416   7.255  1.00  0.00     0.168 HD
ENDBRANCH  25  27
ENDBRANCH  24  25
ENDBRANCH  23  24
ENDBRANCH   2  23
TORSDOF 7
ENDMDL
MODEL 8
REMARK VINA RESULT:      -7.6      3.924      9.800
REMARK  7 active torsions:
REMARK  status: ('A' for Active; 'I' for Inactive)
REMARK    1  A    between atoms: C_2  and  C_7 
REMARK    2  A    between atoms: C_3  and  C_29 
REMARK    3  A    between atoms: N_32  and  C_6 
REMARK    4  A    between atoms: C_7  and  C_9 
REMARK       I    between atoms: N_32  and  C_8 
REMARK       I    between atoms: N_33  and  C_8 
REMARK    5  A    between atoms: C_9  and  N_23 
REMARK    6  A    between atoms: C_10  and  N_23 
REMARK    7  A    between atoms: N_33  and  C_19 
ROOT
HETATM    1  C   UNK N   1      34.594  14.077  11.608  0.00  0.00     0.105 A 
HETATM    2  C   UNK N   1      35.971  14.295  11.513  0.00  0.00     0.003 A 
HETATM    3  N   UNK N   1      33.836  15.023  10.961  0.00  0.00    -0.345 N 
ATOM      4  HN  UNK N   1      32.816  15.003  10.921  1.00  0.00     0.167 HD
HETATM    5  C   UNK N   1      34.597  15.993  10.375  0.00  0.00     0.152 A 
HETATM    6  S   UNK N   1      36.175  15.668  10.671  0.00  0.00    -0.057 SA
ENDROOT
BRANCH   5   7
HETATM    7  N   UNK N   1      34.330  16.450   9.075  0.00  0.00    -0.288 N 
HETATM    8  C   UNK N   1      34.553  17.753   8.773  0.00  0.00     0.326 C 
HETATM    9  O   UNK N   1      35.517  18.347   9.247  0.00  0.00    -0.247 OA
HETATM   10  N   UNK N   1      33.581  18.481   8.182  0.00  0.00    -0.309 N 
HETATM   11  H   UNK N   1      33.745  19.437   8.015  0.00  0.00     0.170 HD
HETATM   12  H   UNK N   1      33.987  15.832   8.390  0.00  0.00     0.172 HD
BRANCH  10  13
HETATM   13  C   UNK N   1      32.336  17.926   7.793  0.00  0.00     0.037 A 
HETATM   14  C   UNK N   1      31.234  18.067   8.627  0.00  0.00     0.045 A 
HETATM   15  C   UNK N   1      30.037  17.410   8.334  0.00  0.00     0.050 A 
HETATM   16  C   UNK N   1      29.940  16.625   7.175  0.00  0.00     0.016 A 
HETATM   17  C   UNK N   1      31.038  16.505   6.316  0.00  0.00     0.003 A 
HETATM   18  C   UNK N   1      32.244  17.137   6.638  0.00  0.00     0.029 A 
BRANCH  15  19
HETATM   19  C   UNK N   1      28.897  17.480   9.299  0.00  0.00     0.417 C 
HETATM   20  F   UNK N   1      28.561  18.797   9.549  0.00  0.00    -0.166 F 
HETATM   21  F   UNK N   1      29.228  16.865  10.497  0.00  0.00    -0.166 F 
HETATM   22  F   UNK N   1      27.810  16.824   8.752  0.00  0.00    -0.166 F 
ENDBRANCH  15  19
ENDBRANCH  10  13
ENDBRANCH   5   7
BRANCH   2  23
HETATM   23  C   UNK N   1      37.030  13.283  11.657  0.00  0.00     0.067 C 
BRANCH  23  24
HETATM   24  C   UNK N   1      36.604  12.288  12.755  0.00  0.00     0.126 C 
BRANCH  24  25
HETATM   25  N   UNK N   1      37.370  12.561  13.941  0.00  0.00    -0.375 N 
HETATM   26  H   UNK N   1      38.313  12.838  13.878  0.00  0.00     0.161 HD
BRANCH  25  27
HETATM   27  C   UNK N   1      36.742  12.424  15.198  0.00  0.00     0.121 A 
HETATM   28  C   UNK N   1      36.633  11.188  15.836  0.00  0.00     0.075 A 
HETATM   29  S   UNK N   1      37.279   9.700  15.516  0.00  0.00    -0.096 SA
HETATM   30  C   UNK N   1      35.840  11.054  16.952  0.00  0.00     0.054 A 
HETATM   31  C   UNK N   1      36.579   8.825  16.758  0.00  0.00     0.053 A 
HETATM   32  C   UNK N   1      35.787   9.737  17.483  0.00  0.00     0.038 A 
HETATM   33  N   UNK N   1      35.165  12.121  17.447  0.00  0.00    -0.351 N 
HETATM   34  C   UNK N   1      35.292  13.339  16.839  0.00  0.00     0.182 A 
ATOM     35  HN  UNK N   1      34.567  12.015  18.267  1.00  0.00     0.166 HD
HETATM   36  N   UNK N   1      36.068  13.481  15.723  0.00  0.00    -0.338 N 
ATOM     37  HN  UNK N   1      36.143  14.396  15.278  1.00  0.00     0.168 HD
ENDBRANCH  25  27
ENDBRANCH  24  25
ENDBRANCH  23  24
ENDBRANCH   2  23
TORSDOF 7
ENDMDL
MODEL 9
REMARK VINA RESULT:      -7.6      2.075      2.715
REMARK  7 active torsions:
REMARK  status: ('A' for Active; 'I' for Inactive)
REMARK    1  A    between atoms: C_2  and  C_7 
REMARK    2  A    between atoms: C_3  and  C_29 
REMARK    3  A    between atoms: N_32  and  C_6 
REMARK    4  A    between atoms: C_7  and  C_9 
REMARK       I    between atoms: N_32  and  C_8 
REMARK       I    between atoms: N_33  and  C_8 
REMARK    5  A    between atoms: C_9  and  N_23 
REMARK    6  A    between atoms: C_10  and  N_23 
REMARK    7  A    between atoms: N_33  and  C_19 
ROOT
HETATM    1  C   UNK N   1      34.679  12.963   8.215  0.00  0.00     0.105 A 
HETATM    2  C   UNK N   1      34.171  14.262   8.305  0.00  0.00     0.003 A 
HETATM    3  N   UNK N   1      35.786  12.746   9.001  0.00  0.00    -0.345 N 
ATOM      4  HN  UNK N   1      36.271  11.850   9.062  1.00  0.00     0.167 HD
HETATM    5  C   UNK N   1      36.167  13.860   9.691  0.00  0.00     0.152 A 
HETATM    6  S   UNK N   1      35.140  15.081   9.316  0.00  0.00    -0.057 SA
ENDROOT
BRANCH   5   7
HETATM    7  N   UNK N   1      36.526  13.796  11.046  0.00  0.00    -0.288 N 
HETATM    8  C   UNK N   1      37.600  13.051  11.410  0.00  0.00     0.326 C 
HETATM    9  O   UNK N   1      38.599  13.006  10.698  0.00  0.00    -0.247 OA
HETATM   10  N   UNK N   1      37.481  12.144  12.403  0.00  0.00    -0.309 N 
HETATM   11  H   UNK N   1      38.257  11.579  12.620  0.00  0.00     0.170 HD
HETATM   12  H   UNK N   1      36.008  14.287  11.723  0.00  0.00     0.172 HD
BRANCH  10  13
HETATM   13  C   UNK N   1      36.286  11.969  13.143  0.00  0.00     0.037 A 
HETATM   14  C   UNK N   1      36.136  12.615  14.364  0.00  0.00     0.045 A 
HETATM   15  C   UNK N   1      35.030  12.347  15.175  0.00  0.00     0.050 A 
HETATM   16  C   UNK N   1      34.053  11.439  14.741  0.00  0.00     0.016 A 
HETATM   17  C   UNK N   1      34.184  10.809  13.499  0.00  0.00     0.003 A 
HETATM   18  C   UNK N   1      35.313  11.056  12.710  0.00  0.00     0.029 A 
BRANCH  15  19
HETATM   19  C   UNK N   1      34.942  12.965  16.534  0.00  0.00     0.417 C 
HETATM   20  F   UNK N   1      36.006  13.822  16.741  0.00  0.00    -0.166 F 
HETATM   21  F   UNK N   1      34.952  11.990  17.520  0.00  0.00    -0.166 F 
HETATM   22  F   UNK N   1      33.757  13.671  16.625  0.00  0.00    -0.166 F 
ENDBRANCH  15  19
ENDBRANCH  10  13
ENDBRANCH   5   7
BRANCH   2  23
HETATM   23  C   UNK N   1      32.793  14.685   8.003  0.00  0.00     0.067 C 
BRANCH  23  24
HETATM   24  C   UNK N   1      32.202  15.346   9.265  0.00  0.00     0.126 C 
BRANCH  24  25
HETATM   25  N   UNK N   1      31.872  16.711   8.954  0.00  0.00    -0.375 N 
HETATM   26  H   UNK N   1      32.574  17.401   8.915  0.00  0.00     0.161 HD
BRANCH  25  27
HETATM   27  C   UNK N   1      30.522  17.041   8.707  0.00  0.00     0.121 A 
HETATM   28  C   UNK N   1      30.044  17.265   7.416  0.00  0.00     0.075 A 
HETATM   29  S   UNK N   1      30.714  17.057   5.919  0.00  0.00    -0.096 SA
HETATM   30  C   UNK N   1      28.783  17.784   7.227  0.00  0.00     0.054 A 
HETATM   31  C   UNK N   1      29.454  17.620   4.974  0.00  0.00     0.053 A 
HETATM   32  C   UNK N   1      28.432  17.999   5.867  0.00  0.00     0.038 A 
HETATM   33  N   UNK N   1      27.992  18.072   8.290  0.00  0.00    -0.351 N 
HETATM   34  C   UNK N   1      28.449  17.826   9.555  0.00  0.00     0.182 A 
ATOM     35  HN  UNK N   1      27.063  18.469   8.147  1.00  0.00     0.166 HD
HETATM   36  N   UNK N   1      29.704  17.322   9.755  0.00  0.00    -0.338 N 
ATOM     37  HN  UNK N   1      30.031  17.154  10.707  1.00  0.00     0.168 HD
ENDBRANCH  25  27
ENDBRANCH  24  25
ENDBRANCH  23  24
ENDBRANCH   2  23
TORSDOF 7
ENDMDL
