MODEL 1
REMARK VINA RESULT:      -8.3      0.000      0.000
REMARK  6 active torsions:
REMARK  status: ('A' for Active; 'I' for Inactive)
REMARK    1  A    between atoms: C_5  and  N_19 
REMARK    2  A    between atoms: C_7  and  N_22 
REMARK    3  A    between atoms: C_8  and  C_9 
REMARK    4  A    between atoms: C_10  and  C_8 
REMARK    5  A    between atoms: N_26  and  C_10 
REMARK    6  A    between atoms: N_26  and  C_14 
REMARK       I    between atoms: C_20  and  N_19 
REMARK       I    between atoms: C_20  and  N_22 
ROOT
HETATM    1  C   UNK N   1      34.718  17.354   9.596  0.00  0.00     0.105 A 
HETATM    2  C   UNK N   1      35.368  15.627  10.941  0.00  0.00     0.152 A 
HETATM    3  C   UNK N   1      34.532  16.293   8.699  0.00  0.00     0.003 A 
HETATM    4  N   UNK N   1      35.205  16.973  10.833  0.00  0.00    -0.345 N 
ATOM      5  HN  UNK N   1      35.419  17.630  11.583  1.00  0.00     0.167 HD
HETATM    6  S   UNK N   1      34.948  14.924   9.505  0.00  0.00    -0.057 SA
ENDROOT
BRANCH   3   7
HETATM    7  C   UNK N   1      34.334  16.418   7.222  0.00  0.00     0.067 C 
BRANCH   7   8
HETATM    8  C   UNK N   1      33.016  17.131   6.903  0.00  0.00     0.126 C 
BRANCH   8   9
HETATM    9  N   UNK N   1      31.856  16.572   7.571  0.00  0.00    -0.375 N 
HETATM   10  H   UNK N   1      31.844  15.597   7.706  0.00  0.00     0.161 HD
BRANCH   9  11
HETATM   11  C   UNK N   1      30.735  17.306   8.046  0.00  0.00     0.121 A 
HETATM   12  N   UNK N   1      30.629  17.699   9.350  0.00  0.00    -0.338 N 
HETATM   13  C   UNK N   1      29.570  18.445   9.785  0.00  0.00     0.182 A 
ATOM     14  HN  UNK N   1      31.356  17.429  10.013  1.00  0.00     0.168 HD
HETATM   15  N   UNK N   1      28.586  18.823   8.916  0.00  0.00    -0.351 N 
HETATM   16  C   UNK N   1      28.665  18.436   7.619  0.00  0.00     0.054 A 
ATOM     17  HN  UNK N   1      27.802  19.389   9.239  1.00  0.00     0.166 HD
HETATM   18  C   UNK N   1      27.723  18.762   6.611  0.00  0.00     0.038 A 
HETATM   19  C   UNK N   1      29.727  17.675   7.178  0.00  0.00     0.075 A 
HETATM   20  C   UNK N   1      28.069  18.231   5.352  0.00  0.00     0.053 A 
HETATM   21  S   UNK N   1      29.507  17.403   5.568  0.00  0.00    -0.096 SA
ENDBRANCH   9  11
ENDBRANCH   8   9
ENDBRANCH   7   8
ENDBRANCH   3   7
BRANCH   2  22
HETATM   22  N   UNK N   1      36.409  15.068  11.724  0.00  0.00    -0.288 N 
HETATM   23  C   UNK N   1      36.047  14.173  12.684  0.00  0.00     0.326 C 
HETATM   24  N   UNK N   1      36.932  13.748  13.622  0.00  0.00    -0.309 N 
HETATM   25  O   UNK N   1      34.892  13.758  12.715  0.00  0.00    -0.247 OA
HETATM   26  H   UNK N   1      37.891  13.939  13.503  0.00  0.00     0.170 HD
HETATM   27  H   UNK N   1      37.350  15.316  11.579  0.00  0.00     0.172 HD
BRANCH  24  28
HETATM   28  C   UNK N   1      36.497  13.029  14.778  0.00  0.00     0.037 A 
HETATM   29  C   UNK N   1      36.507  11.618  14.794  0.00  0.00     0.029 A 
HETATM   30  C   UNK N   1      36.083  10.908  15.913  0.00  0.00     0.004 A 
HETATM   31  C   UNK N   1      35.639  11.600  17.037  0.00  0.00     0.024 A 
HETATM   32  C   UNK N   1      35.609  12.998  17.031  0.00  0.00     0.036 A 
HETATM   33 Cl   UNK N   1      35.059  13.850  18.454  0.00  0.00    -0.084 Cl
HETATM   34  C   UNK N   1      36.030  13.714  15.901  0.00  0.00     0.053 A 
ENDBRANCH  24  28
ENDBRANCH   2  22
TORSDOF 6
ENDMDL
MODEL 2
REMARK VINA RESULT:      -8.0      1.238      1.852
REMARK  6 active torsions:
REMARK  status: ('A' for Active; 'I' for Inactive)
REMARK    1  A    between atoms: C_5  and  N_19 
REMARK    2  A    between atoms: C_7  and  N_22 
REMARK    3  A    between atoms: C_8  and  C_9 
REMARK    4  A    between atoms: C_10  and  C_8 
REMARK    5  A    between atoms: N_26  and  C_10 
REMARK    6  A    between atoms: N_26  and  C_14 
REMARK       I    between atoms: C_20  and  N_19 
REMARK       I    between atoms: C_20  and  N_22 
ROOT
HETATM    1  C   UNK N   1      34.556  17.385   9.218  0.00  0.00     0.105 A 
HETATM    2  C   UNK N   1      35.289  15.754  10.637  0.00  0.00     0.152 A 
HETATM    3  C   UNK N   1      34.529  16.296   8.335  0.00  0.00     0.003 A 
HETATM    4  N   UNK N   1      35.002  17.075  10.489  0.00  0.00    -0.345 N 
ATOM      5  HN  UNK N   1      35.106  17.762  11.235  1.00  0.00     0.167 HD
HETATM    6  S   UNK N   1      35.027  14.988   9.196  0.00  0.00    -0.057 SA
ENDROOT
BRANCH   3   7
HETATM    7  C   UNK N   1      34.410  16.375   6.847  0.00  0.00     0.067 C 
BRANCH   7   8
HETATM    8  C   UNK N   1      33.265  17.307   6.437  0.00  0.00     0.126 C 
BRANCH   8   9
HETATM    9  N   UNK N   1      32.010  16.631   6.168  0.00  0.00    -0.375 N 
HETATM   10  H   UNK N   1      32.055  15.671   5.954  0.00  0.00     0.161 HD
BRANCH   9  11
HETATM   11  C   UNK N   1      30.721  17.229   6.186  0.00  0.00     0.121 A 
HETATM   12  N   UNK N   1      30.069  17.577   5.037  0.00  0.00    -0.338 N 
HETATM   13  C   UNK N   1      28.810  18.108   5.065  0.00  0.00     0.182 A 
ATOM     14  HN  UNK N   1      30.533  17.437   4.139  1.00  0.00     0.168 HD
HETATM   15  N   UNK N   1      28.167  18.300   6.255  0.00  0.00    -0.351 N 
HETATM   16  C   UNK N   1      28.798  17.972   7.408  0.00  0.00     0.054 A 
ATOM     17  HN  UNK N   1      27.223  18.686   6.274  1.00  0.00     0.166 HD
HETATM   18  C   UNK N   1      28.247  18.111   8.708  0.00  0.00     0.038 A 
HETATM   19  C   UNK N   1      30.072  17.446   7.386  0.00  0.00     0.075 A 
HETATM   20  C   UNK N   1      29.129  17.679   9.720  0.00  0.00     0.053 A 
HETATM   21  S   UNK N   1      30.517  17.157   8.946  0.00  0.00    -0.096 SA
ENDBRANCH   9  11
ENDBRANCH   8   9
ENDBRANCH   7   8
ENDBRANCH   3   7
BRANCH   2  22
HETATM   22  N   UNK N   1      36.330  15.314  11.492  0.00  0.00    -0.288 N 
HETATM   23  C   UNK N   1      36.000  14.402  12.449  0.00  0.00     0.326 C 
HETATM   24  N   UNK N   1      36.864  14.083  13.446  0.00  0.00    -0.309 N 
HETATM   25  O   UNK N   1      34.891  13.875  12.421  0.00  0.00    -0.247 OA
HETATM   26  H   UNK N   1      37.805  14.366  13.380  0.00  0.00     0.170 HD
HETATM   27  H   UNK N   1      37.250  15.652  11.398  0.00  0.00     0.172 HD
BRANCH  24  28
HETATM   28  C   UNK N   1      36.431  13.343  14.590  0.00  0.00     0.037 A 
HETATM   29  C   UNK N   1      36.394  11.932  14.563  0.00  0.00     0.029 A 
HETATM   30  C   UNK N   1      35.972  11.202  15.670  0.00  0.00     0.004 A 
HETATM   31  C   UNK N   1      35.579  11.873  16.825  0.00  0.00     0.024 A 
HETATM   32  C   UNK N   1      35.597  13.271  16.863  0.00  0.00     0.036 A 
HETATM   33 Cl   UNK N   1      35.110  14.095  18.324  0.00  0.00    -0.084 Cl
HETATM   34  C   UNK N   1      36.015  14.007  15.746  0.00  0.00     0.053 A 
ENDBRANCH  24  28
ENDBRANCH   2  22
TORSDOF 6
ENDMDL
MODEL 3
REMARK VINA RESULT:      -7.9      1.784      2.055
REMARK  6 active torsions:
REMARK  status: ('A' for Active; 'I' for Inactive)
REMARK    1  A    between atoms: C_5  and  N_19 
REMARK    2  A    between atoms: C_7  and  N_22 
REMARK    3  A    between atoms: C_8  and  C_9 
REMARK    4  A    between atoms: C_10  and  C_8 
REMARK    5  A    between atoms: N_26  and  C_10 
REMARK    6  A    between atoms: N_26  and  C_14 
REMARK       I    between atoms: C_20  and  N_19 
REMARK       I    between atoms: C_20  and  N_22 
ROOT
HETATM    1  C   UNK N   1      32.227  15.517   9.588  0.00  0.00     0.105 A 
HETATM    2  C   UNK N   1      34.338  15.210  10.402  0.00  0.00     0.152 A 
HETATM    3  C   UNK N   1      32.938  16.277   8.649  0.00  0.00     0.003 A 
HETATM    4  N   UNK N   1      33.015  14.947  10.571  0.00  0.00    -0.345 N 
ATOM      5  HN  UNK N   1      32.644  14.391  11.341  1.00  0.00     0.167 HD
HETATM    6  S   UNK N   1      34.523  16.170   9.069  0.00  0.00    -0.057 SA
ENDROOT
BRANCH   3   7
HETATM    7  C   UNK N   1      32.349  17.256   7.685  0.00  0.00     0.067 C 
BRANCH   7   8
HETATM    8  C   UNK N   1      31.672  16.534   6.514  0.00  0.00     0.126 C 
BRANCH   8   9
HETATM    9  N   UNK N   1      30.248  16.323   6.685  0.00  0.00    -0.375 N 
HETATM   10  H   UNK N   1      29.877  15.475   6.350  0.00  0.00     0.161 HD
BRANCH   9  11
HETATM   11  C   UNK N   1      29.339  17.232   7.291  0.00  0.00     0.121 A 
HETATM   12  N   UNK N   1      29.094  17.222   8.635  0.00  0.00    -0.338 N 
HETATM   13  C   UNK N   1      28.254  18.132   9.213  0.00  0.00     0.182 A 
ATOM     14  HN  UNK N   1      29.548  16.519   9.219  1.00  0.00     0.168 HD
HETATM   15  N   UNK N   1      27.639  19.086   8.453  0.00  0.00    -0.351 N 
HETATM   16  C   UNK N   1      27.858  19.109   7.116  0.00  0.00     0.054 A 
ATOM     17  HN  UNK N   1      27.021  19.772   8.887  1.00  0.00     0.166 HD
HETATM   18  C   UNK N   1      27.293  20.044   6.212  0.00  0.00     0.038 A 
HETATM   19  C   UNK N   1      28.697  18.187   6.527  0.00  0.00     0.075 A 
HETATM   20  C   UNK N   1      27.708  19.833   4.881  0.00  0.00     0.053 A 
HETATM   21  S   UNK N   1      28.740  18.516   4.913  0.00  0.00    -0.096 SA
ENDBRANCH   9  11
ENDBRANCH   8   9
ENDBRANCH   7   8
ENDBRANCH   3   7
BRANCH   2  22
HETATM   22  N   UNK N   1      35.210  15.363  11.509  0.00  0.00    -0.288 N 
HETATM   23  C   UNK N   1      35.426  14.262  12.282  0.00  0.00     0.326 C 
HETATM   24  N   UNK N   1      36.064  14.354  13.477  0.00  0.00    -0.309 N 
HETATM   25  O   UNK N   1      35.017  13.169  11.899  0.00  0.00    -0.247 OA
HETATM   26  H   UNK N   1      36.540  15.184  13.708  0.00  0.00     0.170 HD
HETATM   27  H   UNK N   1      35.639  16.225  11.710  0.00  0.00     0.172 HD
BRANCH  24  28
HETATM   28  C   UNK N   1      36.054  13.266  14.405  0.00  0.00     0.037 A 
HETATM   29  C   UNK N   1      35.097  13.213  15.441  0.00  0.00     0.029 A 
HETATM   30  C   UNK N   1      35.080  12.160  16.350  0.00  0.00     0.004 A 
HETATM   31  C   UNK N   1      36.024  11.142  16.240  0.00  0.00     0.024 A 
HETATM   32  C   UNK N   1      36.987  11.188  15.227  0.00  0.00     0.036 A 
HETATM   33 Cl   UNK N   1      38.156   9.896  15.097  0.00  0.00    -0.084 Cl
HETATM   34  C   UNK N   1      37.009  12.252  14.314  0.00  0.00     0.053 A 
ENDBRANCH  24  28
ENDBRANCH   2  22
TORSDOF 6
ENDMDL
MODEL 4
REMARK VINA RESULT:      -7.7      1.631      2.369
REMARK  6 active torsions:
REMARK  status: ('A' for Active; 'I' for Inactive)
REMARK    1  A    between atoms: C_5  and  N_19 
REMARK    2  A    between atoms: C_7  and  N_22 
REMARK    3  A    between atoms: C_8  and  C_9 
REMARK    4  A    between atoms: C_10  and  C_8 
REMARK    5  A    between atoms: N_26  and  C_10 
REMARK    6  A    between atoms: N_26  and  C_14 
REMARK       I    between atoms: C_20  and  N_19 
REMARK       I    between atoms: C_20  and  N_22 
ROOT
HETATM    1  C   UNK N   1      34.648  17.290   9.531  0.00  0.00     0.105 A 
HETATM    2  C   UNK N   1      35.372  15.620  10.909  0.00  0.00     0.152 A 
HETATM    3  C   UNK N   1      34.629  16.226   8.618  0.00  0.00     0.003 A 
HETATM    4  N   UNK N   1      35.085  16.944  10.796  0.00  0.00    -0.345 N 
ATOM      5  HN  UNK N   1      35.183  17.611  11.562  1.00  0.00     0.167 HD
HETATM    6  S   UNK N   1      35.123  14.895   9.445  0.00  0.00    -0.057 SA
ENDROOT
BRANCH   3   7
HETATM    7  C   UNK N   1      34.521  16.347   7.132  0.00  0.00     0.067 C 
BRANCH   7   8
HETATM    8  C   UNK N   1      33.455  17.377   6.740  0.00  0.00     0.126 C 
BRANCH   8   9
HETATM    9  N   UNK N   1      32.132  16.821   6.538  0.00  0.00    -0.375 N 
HETATM   10  H   UNK N   1      31.720  16.355   7.300  0.00  0.00     0.161 HD
BRANCH   9  11
HETATM   11  C   UNK N   1      31.377  16.886   5.335  0.00  0.00     0.121 A 
HETATM   12  N   UNK N   1      31.919  16.567   4.123  0.00  0.00    -0.338 N 
HETATM   13  C   UNK N   1      31.170  16.588   2.979  0.00  0.00     0.182 A 
ATOM     14  HN  UNK N   1      32.904  16.309   4.070  1.00  0.00     0.168 HD
HETATM   15  N   UNK N   1      29.847  16.926   3.025  0.00  0.00    -0.351 N 
HETATM   16  C   UNK N   1      29.290  17.256   4.216  0.00  0.00     0.054 A 
ATOM     17  HN  UNK N   1      29.286  16.930   2.174  1.00  0.00     0.166 HD
HETATM   18  C   UNK N   1      27.933  17.618   4.410  0.00  0.00     0.038 A 
HETATM   19  C   UNK N   1      30.044  17.246   5.370  0.00  0.00     0.075 A 
HETATM   20  C   UNK N   1      27.632  17.900   5.758  0.00  0.00     0.053 A 
HETATM   21  S   UNK N   1      29.054  17.681   6.613  0.00  0.00    -0.096 SA
ENDBRANCH   9  11
ENDBRANCH   8   9
ENDBRANCH   7   8
ENDBRANCH   3   7
BRANCH   2  22
HETATM   22  N   UNK N   1      36.407  15.157  11.759  0.00  0.00    -0.288 N 
HETATM   23  C   UNK N   1      36.068  14.232  12.699  0.00  0.00     0.326 C 
HETATM   24  N   UNK N   1      36.926  13.889  13.693  0.00  0.00    -0.309 N 
HETATM   25  O   UNK N   1      34.954  13.714  12.659  0.00  0.00    -0.247 OA
HETATM   26  H   UNK N   1      37.869  14.165  13.634  0.00  0.00     0.170 HD
HETATM   27  H   UNK N   1      37.330  15.489  11.673  0.00  0.00     0.172 HD
BRANCH  24  28
HETATM   28  C   UNK N   1      36.484  13.133  14.823  0.00  0.00     0.037 A 
HETATM   29  C   UNK N   1      36.496  11.722  14.794  0.00  0.00     0.029 A 
HETATM   30  C   UNK N   1      36.066  10.977  15.888  0.00  0.00     0.004 A 
HETATM   31  C   UNK N   1      35.615  11.632  17.031  0.00  0.00     0.024 A 
HETATM   32  C   UNK N   1      35.584  13.029  17.070  0.00  0.00     0.036 A 
HETATM   33 Cl   UNK N   1      35.024  13.835  18.515  0.00  0.00    -0.084 Cl
HETATM   34  C   UNK N   1      36.010  13.781  15.965  0.00  0.00     0.053 A 
ENDBRANCH  24  28
ENDBRANCH   2  22
TORSDOF 6
ENDMDL
MODEL 5
REMARK VINA RESULT:      -7.6      1.747      2.473
REMARK  6 active torsions:
REMARK  status: ('A' for Active; 'I' for Inactive)
REMARK    1  A    between atoms: C_5  and  N_19 
REMARK    2  A    between atoms: C_7  and  N_22 
REMARK    3  A    between atoms: C_8  and  C_9 
REMARK    4  A    between atoms: C_10  and  C_8 
REMARK    5  A    between atoms: N_26  and  C_10 
REMARK    6  A    between atoms: N_26  and  C_14 
REMARK       I    between atoms: C_20  and  N_19 
REMARK       I    between atoms: C_20  and  N_22 
ROOT
HETATM    1  C   UNK N   1      32.646  17.753   8.203  0.00  0.00     0.105 A 
HETATM    2  C   UNK N   1      34.050  16.263   9.213  0.00  0.00     0.152 A 
HETATM    3  C   UNK N   1      32.604  16.729   7.248  0.00  0.00     0.003 A 
HETATM    4  N   UNK N   1      33.472  17.492   9.280  0.00  0.00    -0.345 N 
ATOM      5  HN  UNK N   1      33.631  18.149  10.044  1.00  0.00     0.167 HD
HETATM    6  S   UNK N   1      33.571  15.527   7.813  0.00  0.00    -0.057 SA
ENDROOT
BRANCH   3   7
HETATM    7  C   UNK N   1      32.074  16.849   5.855  0.00  0.00     0.067 C 
BRANCH   7   8
HETATM    8  C   UNK N   1      30.732  16.121   5.713  0.00  0.00     0.126 C 
BRANCH   8   9
HETATM    9  N   UNK N   1      29.597  16.997   5.496  0.00  0.00    -0.375 N 
HETATM   10  H   UNK N   1      29.286  17.106   4.569  0.00  0.00     0.161 HD
BRANCH   9  11
HETATM   11  C   UNK N   1      28.894  17.713   6.503  0.00  0.00     0.121 A 
HETATM   12  N   UNK N   1      28.910  17.322   7.812  0.00  0.00    -0.338 N 
HETATM   13  C   UNK N   1      28.269  18.046   8.779  0.00  0.00     0.182 A 
ATOM     14  HN  UNK N   1      29.410  16.472   8.073  1.00  0.00     0.168 HD
HETATM   15  N   UNK N   1      27.597  19.190   8.455  0.00  0.00    -0.351 N 
HETATM   16  C   UNK N   1      27.559  19.591   7.161  0.00  0.00     0.054 A 
ATOM     17  HN  UNK N   1      27.129  19.735   9.178  1.00  0.00     0.166 HD
HETATM   18  C   UNK N   1      26.907  20.758   6.687  0.00  0.00     0.038 A 
HETATM   19  C   UNK N   1      28.195  18.859   6.181  0.00  0.00     0.075 A 
HETATM   20  C   UNK N   1      27.043  20.928   5.294  0.00  0.00     0.053 A 
HETATM   21  S   UNK N   1      27.956  19.636   4.748  0.00  0.00    -0.096 SA
ENDBRANCH   9  11
ENDBRANCH   8   9
ENDBRANCH   7   8
ENDBRANCH   3   7
BRANCH   2  22
HETATM   22  N   UNK N   1      35.350  16.028   9.726  0.00  0.00    -0.288 N 
HETATM   23  C   UNK N   1      35.506  14.951  10.544  0.00  0.00     0.326 C 
HETATM   24  N   UNK N   1      36.648  14.764  11.254  0.00  0.00    -0.309 N 
HETATM   25  O   UNK N   1      34.587  14.144  10.659  0.00  0.00    -0.247 OA
HETATM   26  H   UNK N   1      37.444  15.302  11.040  0.00  0.00     0.170 HD
HETATM   27  H   UNK N   1      36.106  16.616   9.500  0.00  0.00     0.172 HD
BRANCH  24  28
HETATM   28  C   UNK N   1      36.715  13.799  12.307  0.00  0.00     0.037 A 
HETATM   29  C   UNK N   1      37.200  12.496  12.059  0.00  0.00     0.029 A 
HETATM   30  C   UNK N   1      37.267  11.549  13.076  0.00  0.00     0.004 A 
HETATM   31  C   UNK N   1      36.847  11.888  14.360  0.00  0.00     0.024 A 
HETATM   32  C   UNK N   1      36.351  13.170  14.617  0.00  0.00     0.036 A 
HETATM   33 Cl   UNK N   1      35.838  13.582  16.236  0.00  0.00    -0.084 Cl
HETATM   34  C   UNK N   1      36.276  14.123  13.592  0.00  0.00     0.053 A 
ENDBRANCH  24  28
ENDBRANCH   2  22
TORSDOF 6
ENDMDL
MODEL 6
REMARK VINA RESULT:      -7.5      1.360      1.657
REMARK  6 active torsions:
REMARK  status: ('A' for Active; 'I' for Inactive)
REMARK    1  A    between atoms: C_5  and  N_19 
REMARK    2  A    between atoms: C_7  and  N_22 
REMARK    3  A    between atoms: C_8  and  C_9 
REMARK    4  A    between atoms: C_10  and  C_8 
REMARK    5  A    between atoms: N_26  and  C_10 
REMARK    6  A    between atoms: N_26  and  C_14 
REMARK       I    between atoms: C_20  and  N_19 
REMARK       I    between atoms: C_20  and  N_22 
ROOT
HETATM    1  C   UNK N   1      34.953  13.235   9.216  0.00  0.00     0.105 A 
HETATM    2  C   UNK N   1      36.789  13.747  10.472  0.00  0.00     0.152 A 
HETATM    3  C   UNK N   1      34.605  14.539   9.594  0.00  0.00     0.003 A 
HETATM    4  N   UNK N   1      36.159  12.798   9.730  0.00  0.00    -0.345 N 
ATOM      5  HN  UNK N   1      36.536  11.863   9.571  1.00  0.00     0.167 HD
HETATM    6  S   UNK N   1      35.840  15.099  10.521  0.00  0.00    -0.057 SA
ENDROOT
BRANCH   3   7
HETATM    7  C   UNK N   1      33.249  15.156   9.471  0.00  0.00     0.067 C 
BRANCH   7   8
HETATM    8  C   UNK N   1      33.330  16.533   8.801  0.00  0.00     0.126 C 
BRANCH   8   9
HETATM    9  N   UNK N   1      32.252  16.810   7.871  0.00  0.00    -0.375 N 
HETATM   10  H   UNK N   1      32.404  16.579   6.927  0.00  0.00     0.161 HD
BRANCH   9  11
HETATM   11  C   UNK N   1      30.996  17.386   8.202  0.00  0.00     0.121 A 
HETATM   12  N   UNK N   1      30.762  17.960   9.420  0.00  0.00    -0.338 N 
HETATM   13  C   UNK N   1      29.565  18.554   9.710  0.00  0.00     0.182 A 
ATOM     14  HN  UNK N   1      31.496  17.944  10.128  1.00  0.00     0.168 HD
HETATM   15  N   UNK N   1      28.568  18.592   8.777  0.00  0.00    -0.351 N 
HETATM   16  C   UNK N   1      28.774  18.020   7.565  0.00  0.00     0.054 A 
ATOM     17  HN  UNK N   1      27.680  19.045   8.989  1.00  0.00     0.166 HD
HETATM   18  C   UNK N   1      27.833  17.993   6.505  0.00  0.00     0.038 A 
HETATM   19  C   UNK N   1      29.976  17.411   7.272  0.00  0.00     0.075 A 
HETATM   20  C   UNK N   1      28.326  17.339   5.357  0.00  0.00     0.053 A 
HETATM   21  S   UNK N   1      29.880  16.844   5.728  0.00  0.00    -0.096 SA
ENDBRANCH   9  11
ENDBRANCH   8   9
ENDBRANCH   7   8
ENDBRANCH   3   7
BRANCH   2  22
HETATM   22  N   UNK N   1      37.586  13.402  11.592  0.00  0.00    -0.288 N 
HETATM   23  C   UNK N   1      36.954  12.802  12.639  0.00  0.00     0.326 C 
HETATM   24  N   UNK N   1      37.576  12.630  13.834  0.00  0.00    -0.309 N 
HETATM   25  O   UNK N   1      35.791  12.429  12.506  0.00  0.00    -0.247 OA
HETATM   26  H   UNK N   1      38.549  12.767  13.896  0.00  0.00     0.170 HD
HETATM   27  H   UNK N   1      38.552  13.587  11.612  0.00  0.00     0.172 HD
BRANCH  24  28
HETATM   28  C   UNK N   1      36.842  12.255  15.002  0.00  0.00     0.037 A 
HETATM   29  C   UNK N   1      36.622  10.894  15.306  0.00  0.00     0.029 A 
HETATM   30  C   UNK N   1      35.907  10.518  16.439  0.00  0.00     0.004 A 
HETATM   31  C   UNK N   1      35.399  11.498  17.288  0.00  0.00     0.024 A 
HETATM   32  C   UNK N   1      35.597  12.850  16.992  0.00  0.00     0.036 A 
HETATM   33 Cl   UNK N   1      34.961  14.066  18.073  0.00  0.00    -0.084 Cl
HETATM   34  C   UNK N   1      36.311  13.231  15.847  0.00  0.00     0.053 A 
ENDBRANCH  24  28
ENDBRANCH   2  22
TORSDOF 6
ENDMDL
MODEL 7
REMARK VINA RESULT:      -7.3      4.252     10.237
REMARK  6 active torsions:
REMARK  status: ('A' for Active; 'I' for Inactive)
REMARK    1  A    between atoms: C_5  and  N_19 
REMARK    2  A    between atoms: C_7  and  N_22 
REMARK    3  A    between atoms: C_8  and  C_9 
REMARK    4  A    between atoms: C_10  and  C_8 
REMARK    5  A    between atoms: N_26  and  C_10 
REMARK    6  A    between atoms: N_26  and  C_14 
REMARK       I    between atoms: C_20  and  N_19 
REMARK       I    between atoms: C_20  and  N_22 
ROOT
HETATM    1  C   UNK N   1      33.697  15.164  10.511  0.00  0.00     0.105 A 
HETATM    2  C   UNK N   1      33.081  16.436   8.718  0.00  0.00     0.152 A 
HETATM    3  C   UNK N   1      34.846  15.961  10.401  0.00  0.00     0.003 A 
HETATM    4  N   UNK N   1      32.733  15.422   9.555  0.00  0.00    -0.345 N 
ATOM      5  HN  UNK N   1      31.855  14.908   9.484  1.00  0.00     0.167 HD
HETATM    6  S   UNK N   1      34.585  16.978   9.137  0.00  0.00    -0.057 SA
ENDROOT
BRANCH   3   7
HETATM    7  C   UNK N   1      36.160  15.704  11.065  0.00  0.00     0.067 C 
BRANCH   7   8
HETATM    8  C   UNK N   1      36.655  14.283  10.772  0.00  0.00     0.126 C 
BRANCH   8   9
HETATM    9  N   UNK N   1      37.247  13.609  11.911  0.00  0.00    -0.375 N 
HETATM   10  H   UNK N   1      38.197  13.361  11.840  0.00  0.00     0.161 HD
BRANCH   9  11
HETATM   11  C   UNK N   1      36.579  13.273  13.120  0.00  0.00     0.121 A 
HETATM   12  N   UNK N   1      36.815  13.944  14.286  0.00  0.00    -0.338 N 
HETATM   13  C   UNK N   1      36.131  13.644  15.431  0.00  0.00     0.182 A 
ATOM     14  HN  UNK N   1      37.516  14.685  14.302  1.00  0.00     0.168 HD
HETATM   15  N   UNK N   1      35.183  12.660  15.433  0.00  0.00    -0.351 N 
HETATM   16  C   UNK N   1      34.940  11.974  14.290  0.00  0.00     0.054 A 
ATOM     17  HN  UNK N   1      34.666  12.445  16.285  1.00  0.00     0.166 HD
HETATM   18  C   UNK N   1      33.983  10.938  14.148  0.00  0.00     0.038 A 
HETATM   19  C   UNK N   1      35.634  12.267  13.135  0.00  0.00     0.075 A 
HETATM   20  C   UNK N   1      33.940  10.412  12.840  0.00  0.00     0.053 A 
HETATM   21  S   UNK N   1      35.079  11.260  11.955  0.00  0.00    -0.096 SA
ENDBRANCH   9  11
ENDBRANCH   8   9
ENDBRANCH   7   8
ENDBRANCH   3   7
BRANCH   2  22
HETATM   22  N   UNK N   1      32.681  16.443   7.359  0.00  0.00    -0.288 N 
HETATM   23  C   UNK N   1      31.448  16.951   7.080  0.00  0.00     0.326 C 
HETATM   24  N   UNK N   1      30.887  16.807   5.852  0.00  0.00    -0.309 N 
HETATM   25  O   UNK N   1      30.823  17.531   7.964  0.00  0.00    -0.247 OA
HETATM   26  H   UNK N   1      31.442  16.500   5.100  0.00  0.00     0.170 HD
HETATM   27  H   UNK N   1      33.268  16.098   6.648  0.00  0.00     0.172 HD
BRANCH  24  28
HETATM   28  C   UNK N   1      29.503  17.093   5.634  0.00  0.00     0.037 A 
HETATM   29  C   UNK N   1      28.507  16.176   6.033  0.00  0.00     0.029 A 
HETATM   30  C   UNK N   1      27.158  16.444   5.823  0.00  0.00     0.004 A 
HETATM   31  C   UNK N   1      26.782  17.635   5.208  0.00  0.00     0.024 A 
HETATM   32  C   UNK N   1      27.757  18.548   4.795  0.00  0.00     0.036 A 
HETATM   33 Cl   UNK N   1      27.267  20.042   4.035  0.00  0.00    -0.084 Cl
HETATM   34  C   UNK N   1      29.118  18.276   5.000  0.00  0.00     0.053 A 
ENDBRANCH  24  28
ENDBRANCH   2  22
TORSDOF 6
ENDMDL
MODEL 8
REMARK VINA RESULT:      -7.3      4.005     10.671
REMARK  6 active torsions:
REMARK  status: ('A' for Active; 'I' for Inactive)
REMARK    1  A    between atoms: C_5  and  N_19 
REMARK    2  A    between atoms: C_7  and  N_22 
REMARK    3  A    between atoms: C_8  and  C_9 
REMARK    4  A    between atoms: C_10  and  C_8 
REMARK    5  A    between atoms: N_26  and  C_10 
REMARK    6  A    between atoms: N_26  and  C_14 
REMARK       I    between atoms: C_20  and  N_19 
REMARK       I    between atoms: C_20  and  N_22 
ROOT
HETATM    1  C   UNK N   1      37.356  12.911  11.797  0.00  0.00     0.105 A 
HETATM    2  C   UNK N   1      35.554  14.256  11.402  0.00  0.00     0.152 A 
HETATM    3  C   UNK N   1      36.677  12.733  13.011  0.00  0.00     0.003 A 
HETATM    4  N   UNK N   1      36.732  13.778  10.920  0.00  0.00    -0.345 N 
ATOM      5  HN  UNK N   1      37.115  14.034  10.009  1.00  0.00     0.167 HD
HETATM    6  S   UNK N   1      35.309  13.638  12.915  0.00  0.00    -0.057 SA
ENDROOT
BRANCH   3   7
HETATM    7  C   UNK N   1      37.247  12.130  14.254  0.00  0.00     0.067 C 
BRANCH   7   8
HETATM    8  C   UNK N   1      36.403  10.940  14.724  0.00  0.00     0.126 C 
BRANCH   8   9
HETATM    9  N   UNK N   1      35.255  11.303  15.533  0.00  0.00    -0.375 N 
HETATM   10  H   UNK N   1      34.366  11.077  15.176  0.00  0.00     0.161 HD
BRANCH   9  11
HETATM   11  C   UNK N   1      35.299  11.956  16.795  0.00  0.00     0.121 A 
HETATM   12  N   UNK N   1      35.274  13.317  16.905  0.00  0.00    -0.338 N 
HETATM   13  C   UNK N   1      35.269  13.933  18.126  0.00  0.00     0.182 A 
ATOM     14  HN  UNK N   1      35.260  13.886  16.059  1.00  0.00     0.168 HD
HETATM   15  N   UNK N   1      35.283  13.193  19.274  0.00  0.00    -0.351 N 
HETATM   16  C   UNK N   1      35.318  11.840  19.189  0.00  0.00     0.054 A 
ATOM     17  HN  UNK N   1      35.267  13.652  20.184  1.00  0.00     0.166 HD
HETATM   18  C   UNK N   1      35.328  10.953  20.295  0.00  0.00     0.038 A 
HETATM   19  C   UNK N   1      35.334  11.215  17.960  0.00  0.00     0.075 A 
HETATM   20  C   UNK N   1      35.355   9.598  19.904  0.00  0.00     0.053 A 
HETATM   21  S   UNK N   1      35.362   9.590  18.231  0.00  0.00    -0.096 SA
ENDBRANCH   9  11
ENDBRANCH   8   9
ENDBRANCH   7   8
ENDBRANCH   3   7
BRANCH   2  22
HETATM   22  N   UNK N   1      35.103  15.563  11.091  0.00  0.00    -0.288 N 
HETATM   23  C   UNK N   1      34.299  15.696  10.000  0.00  0.00     0.326 C 
HETATM   24  N   UNK N   1      33.992  16.918   9.494  0.00  0.00    -0.309 N 
HETATM   25  O   UNK N   1      33.860  14.689   9.450  0.00  0.00    -0.247 OA
HETATM   26  H   UNK N   1      34.194  17.724  10.022  0.00  0.00     0.170 HD
HETATM   27  H   UNK N   1      35.358  16.339  11.640  0.00  0.00     0.172 HD
BRANCH  24  28
HETATM   28  C   UNK N   1      33.382  17.054   8.209  0.00  0.00     0.037 A 
HETATM   29  C   UNK N   1      34.171  17.260   7.056  0.00  0.00     0.029 A 
HETATM   30  C   UNK N   1      33.587  17.396   5.801  0.00  0.00     0.004 A 
HETATM   31  C   UNK N   1      32.201  17.330   5.676  0.00  0.00     0.024 A 
HETATM   32  C   UNK N   1      31.406  17.139   6.811  0.00  0.00     0.036 A 
HETATM   33 Cl   UNK N   1      29.670  17.048   6.635  0.00  0.00    -0.084 Cl
HETATM   34  C   UNK N   1      31.993  17.010   8.077  0.00  0.00     0.053 A 
ENDBRANCH  24  28
ENDBRANCH   2  22
TORSDOF 6
ENDMDL
MODEL 9
REMARK VINA RESULT:      -7.3      2.081      2.842
REMARK  6 active torsions:
REMARK  status: ('A' for Active; 'I' for Inactive)
REMARK    1  A    between atoms: C_5  and  N_19 
REMARK    2  A    between atoms: C_7  and  N_22 
REMARK    3  A    between atoms: C_8  and  C_9 
REMARK    4  A    between atoms: C_10  and  C_8 
REMARK    5  A    between atoms: N_26  and  C_10 
REMARK    6  A    between atoms: N_26  and  C_14 
REMARK       I    between atoms: C_20  and  N_19 
REMARK       I    between atoms: C_20  and  N_22 
ROOT
HETATM    1  C   UNK N   1      35.010  13.634   9.329  0.00  0.00     0.105 A 
HETATM    2  C   UNK N   1      36.932  13.745  10.556  0.00  0.00     0.152 A 
HETATM    3  C   UNK N   1      34.998  15.002   9.635  0.00  0.00     0.003 A 
HETATM    4  N   UNK N   1      36.079  12.942   9.867  0.00  0.00    -0.345 N 
ATOM      5  HN  UNK N   1      36.213  11.936   9.759  1.00  0.00     0.167 HD
HETATM    6  S   UNK N   1      36.345  15.290  10.531  0.00  0.00    -0.057 SA
ENDROOT
BRANCH   3   7
HETATM    7  C   UNK N   1      33.834  15.926   9.478  0.00  0.00     0.067 C 
BRANCH   7   8
HETATM    8  C   UNK N   1      33.002  15.557   8.244  0.00  0.00     0.126 C 
BRANCH   8   9
HETATM    9  N   UNK N   1      32.032  16.562   7.855  0.00  0.00    -0.375 N 
HETATM   10  H   UNK N   1      31.499  16.973   8.574  0.00  0.00     0.161 HD
BRANCH   9  11
HETATM   11  C   UNK N   1      31.779  17.005   6.528  0.00  0.00     0.121 A 
HETATM   12  N   UNK N   1      32.789  17.216   5.632  0.00  0.00    -0.338 N 
HETATM   13  C   UNK N   1      32.531  17.597   4.345  0.00  0.00     0.182 A 
ATOM     14  HN  UNK N   1      33.756  17.088   5.931  1.00  0.00     0.168 HD
HETATM   15  N   UNK N   1      31.244  17.771   3.920  0.00  0.00    -0.351 N 
HETATM   16  C   UNK N   1      30.227  17.577   4.794  0.00  0.00     0.054 A 
ATOM     17  HN  UNK N   1      31.052  18.044   2.957  1.00  0.00     0.166 HD
HETATM   18  C   UNK N   1      28.849  17.715   4.487  0.00  0.00     0.038 A 
HETATM   19  C   UNK N   1      30.483  17.203   6.096  0.00  0.00     0.075 A 
HETATM   20  C   UNK N   1      28.016  17.441   5.591  0.00  0.00     0.053 A 
HETATM   21  S   UNK N   1      29.032  17.047   6.861  0.00  0.00    -0.096 SA
ENDBRANCH   9  11
ENDBRANCH   8   9
ENDBRANCH   7   8
ENDBRANCH   3   7
BRANCH   2  22
HETATM   22  N   UNK N   1      37.635  13.275  11.694  0.00  0.00    -0.288 N 
HETATM   23  C   UNK N   1      36.888  12.890  12.766  0.00  0.00     0.326 C 
HETATM   24  N   UNK N   1      37.462  12.632  13.969  0.00  0.00    -0.309 N 
HETATM   25  O   UNK N   1      35.669  12.795  12.647  0.00  0.00    -0.247 OA
HETATM   26  H   UNK N   1      38.440  12.539  14.028  0.00  0.00     0.170 HD
HETATM   27  H   UNK N   1      38.618  13.228  11.708  0.00  0.00     0.172 HD
BRANCH  24  28
HETATM   28  C   UNK N   1      36.670  12.494  15.151  0.00  0.00     0.037 A 
HETATM   29  C   UNK N   1      36.219  13.634  15.852  0.00  0.00     0.029 A 
HETATM   30  C   UNK N   1      35.449  13.511  17.005  0.00  0.00     0.004 A 
HETATM   31  C   UNK N   1      35.118  12.243  17.477  0.00  0.00     0.024 A 
HETATM   32  C   UNK N   1      35.569  11.105  16.802  0.00  0.00     0.036 A 
HETATM   33 Cl   UNK N   1      35.135   9.523  17.403  0.00  0.00    -0.084 Cl
HETATM   34  C   UNK N   1      36.351  11.228  15.644  0.00  0.00     0.053 A 
ENDBRANCH  24  28
ENDBRANCH   2  22
TORSDOF 6
ENDMDL
