MODEL 1
REMARK VINA RESULT:      -8.2      0.000      0.000
REMARK  7 active torsions:
REMARK  status: ('A' for Active; 'I' for Inactive)
REMARK    1  A    between atoms: C_4  and  C_29 
REMARK    2  A    between atoms: C_9  and  N_28 
REMARK       I    between atoms: C_11  and  N_34 
REMARK       I    between atoms: C_11  and  N_36 
REMARK    3  A    between atoms: C_12  and  N_36 
REMARK    4  A    between atoms: C_13  and  C_15 
REMARK    5  A    between atoms: C_15  and  C_16 
REMARK    6  A    between atoms: C_16  and  N_28 
REMARK    7  A    between atoms: C_33  and  N_34 
ROOT
HETATM    1  C   UNK N   1      32.997  16.991   8.624  0.00  0.00     0.152 A 
HETATM    2  C   UNK N   1      31.330  16.193   7.004  0.00  0.00     0.003 A 
HETATM    3  C   UNK N   1      30.963  16.015   8.343  0.00  0.00     0.105 A 
HETATM    4  N   UNK N   1      31.898  16.478   9.242  0.00  0.00    -0.345 N 
ATOM      5  HN  UNK N   1      31.780  16.442  10.255  1.00  0.00     0.167 HD
HETATM    6  S   UNK N   1      32.825  16.895   6.999  0.00  0.00    -0.057 SA
ENDROOT
BRANCH   2   7
HETATM    7  C   UNK N   1      30.599  15.697   5.812  0.00  0.00     0.067 C 
BRANCH   7   8
HETATM    8  C   UNK N   1      29.281  16.452   5.723  0.00  0.00     0.126 C 
BRANCH   8   9
HETATM    9  N   UNK N   1      29.531  17.863   5.538  0.00  0.00    -0.374 N 
HETATM   10  H   UNK N   1      30.451  18.200   5.628  0.00  0.00     0.161 HD
BRANCH   9  11
HETATM   11  C   UNK N   1      28.495  18.774   5.232  0.00  0.00     0.133 A 
HETATM   12  C   UNK N   1      27.747  19.442   6.212  0.00  0.00     0.122 A 
HETATM   13  N   UNK N   1      27.827  19.470   7.559  0.00  0.00    -0.291 N 
HETATM   14  C   UNK N   1      26.742  20.266   5.830  0.00  0.00     0.082 A 
HETATM   15  C   UNK N   1      28.783  18.812   8.432  0.00  0.00     0.178 C 
HETATM   16  N   UNK N   1      26.883  20.283   8.023  0.00  0.00    -0.307 N 
HETATM   17  C   UNK N   1      26.189  20.793   6.976  0.00  0.00     0.139 A 
ATOM     18  HN  UNK N   1      26.712  20.490   9.007  1.00  0.00     0.186 HD
HETATM   19  N   UNK N   1      26.423  20.487   4.536  0.00  0.00    -0.349 N 
HETATM   20  C   UNK N   1      27.158  19.857   3.573  0.00  0.00     0.182 A 
ATOM     21  HN  UNK N   1      25.654  21.108   4.285  1.00  0.00     0.166 HD
HETATM   22  N   UNK N   1      28.183  19.015   3.923  0.00  0.00    -0.337 N 
ATOM     23  HN  UNK N   1      28.725  18.558   3.189  1.00  0.00     0.168 HD
ENDBRANCH   9  11
ENDBRANCH   8   9
ENDBRANCH   7   8
ENDBRANCH   2   7
BRANCH   1  24
HETATM   24  N   UNK N   1      34.108  17.570   9.286  0.00  0.00    -0.288 N 
HETATM   25  C   UNK N   1      35.063  16.828   9.892  0.00  0.00     0.326 C 
HETATM   26  N   UNK N   1      34.953  15.471   9.913  0.00  0.00    -0.309 N 
HETATM   27  O   UNK N   1      35.989  17.392  10.456  0.00  0.00    -0.247 OA
HETATM   28  H   UNK N   1      34.261  15.075   9.337  0.00  0.00     0.170 HD
HETATM   29  H   UNK N   1      34.187  18.551   9.305  0.00  0.00     0.172 HD
BRANCH  26  30
HETATM   30  C   UNK N   1      35.735  14.575  10.679  0.00  0.00     0.037 A 
HETATM   31  C   UNK N   1      35.742  14.621  12.078  0.00  0.00     0.045 A 
HETATM   32  C   UNK N   1      36.461  13.678  12.814  0.00  0.00     0.050 A 
HETATM   33  C   UNK N   1      37.181  12.679  12.142  0.00  0.00     0.016 A 
HETATM   34  C   UNK N   1      37.168  12.624  10.746  0.00  0.00     0.003 A 
HETATM   35  C   UNK N   1      36.436  13.563  10.018  0.00  0.00     0.029 A 
BRANCH  32  36
HETATM   36  C   UNK N   1      36.437  13.738  14.311  0.00  0.00     0.417 C 
HETATM   37  F   UNK N   1      37.167  12.683  14.827  0.00  0.00    -0.166 F 
HETATM   38  F   UNK N   1      35.141  13.665  14.791  0.00  0.00    -0.166 F 
HETATM   39  F   UNK N   1      37.002  14.929  14.731  0.00  0.00    -0.166 F 
ENDBRANCH  32  36
ENDBRANCH  26  30
ENDBRANCH   1  24
TORSDOF 7
ENDMDL
MODEL 2
REMARK VINA RESULT:      -8.1      2.327      3.850
REMARK  7 active torsions:
REMARK  status: ('A' for Active; 'I' for Inactive)
REMARK    1  A    between atoms: C_4  and  C_29 
REMARK    2  A    between atoms: C_9  and  N_28 
REMARK       I    between atoms: C_11  and  N_34 
REMARK       I    between atoms: C_11  and  N_36 
REMARK    3  A    between atoms: C_12  and  N_36 
REMARK    4  A    between atoms: C_13  and  C_15 
REMARK    5  A    between atoms: C_15  and  C_16 
REMARK    6  A    between atoms: C_16  and  N_28 
REMARK    7  A    between atoms: C_33  and  N_34 
ROOT
HETATM    1  C   UNK N   1      36.104  14.994   9.887  0.00  0.00     0.152 A 
HETATM    2  C   UNK N   1      34.444  16.302   8.632  0.00  0.00     0.003 A 
HETATM    3  C   UNK N   1      34.925  16.935   9.785  0.00  0.00     0.105 A 
HETATM    4  N   UNK N   1      35.864  16.199  10.472  0.00  0.00    -0.345 N 
ATOM      5  HN  UNK N   1      36.328  16.521  11.322  1.00  0.00     0.167 HD
HETATM    6  S   UNK N   1      35.192  14.832   8.537  0.00  0.00    -0.057 SA
ENDROOT
BRANCH   2   7
HETATM    7  C   UNK N   1      33.350  16.778   7.751  0.00  0.00     0.067 C 
BRANCH   7   8
HETATM    8  C   UNK N   1      32.028  16.375   8.389  0.00  0.00     0.126 C 
BRANCH   8   9
HETATM    9  N   UNK N   1      30.982  16.358   7.391  0.00  0.00    -0.374 N 
HETATM   10  H   UNK N   1      31.068  15.751   6.620  0.00  0.00     0.161 HD
BRANCH   9  11
HETATM   11  C   UNK N   1      29.841  17.185   7.488  0.00  0.00     0.133 A 
HETATM   12  C   UNK N   1      29.267  17.833   6.384  0.00  0.00     0.122 A 
HETATM   13  N   UNK N   1      29.549  17.808   5.065  0.00  0.00    -0.291 N 
HETATM   14  C   UNK N   1      28.199  18.643   6.574  0.00  0.00     0.082 A 
HETATM   15  C   UNK N   1      30.557  17.036   4.359  0.00  0.00     0.178 C 
HETATM   16  N   UNK N   1      28.687  18.597   4.432  0.00  0.00    -0.307 N 
HETATM   17  C   UNK N   1      27.835  19.134   5.340  0.00  0.00     0.139 A 
ATOM     18  HN  UNK N   1      28.669  18.769   3.427  1.00  0.00     0.186 HD
HETATM   19  N   UNK N   1      27.643  18.857   7.787  0.00  0.00    -0.349 N 
HETATM   20  C   UNK N   1      28.181  18.215   8.866  0.00  0.00     0.182 A 
ATOM     21  HN  UNK N   1      26.843  19.480   7.895  1.00  0.00     0.166 HD
HETATM   22  N   UNK N   1      29.264  17.387   8.711  0.00  0.00    -0.337 N 
ATOM     23  HN  UNK N   1      29.649  16.912   9.528  1.00  0.00     0.168 HD
ENDBRANCH   9  11
ENDBRANCH   8   9
ENDBRANCH   7   8
ENDBRANCH   2   7
BRANCH   1  24
HETATM   24  N   UNK N   1      37.042  14.037  10.347  0.00  0.00    -0.288 N 
HETATM   25  C   UNK N   1      36.758  13.152  11.330  0.00  0.00     0.326 C 
HETATM   26  N   UNK N   1      35.542  13.188  11.942  0.00  0.00    -0.309 N 
HETATM   27  O   UNK N   1      37.617  12.361  11.688  0.00  0.00    -0.247 OA
HETATM   28  H   UNK N   1      34.855  13.757  11.526  0.00  0.00     0.170 HD
HETATM   29  H   UNK N   1      37.936  14.016   9.936  0.00  0.00     0.172 HD
BRANCH  26  30
HETATM   30  C   UNK N   1      35.168  12.492  13.115  0.00  0.00     0.037 A 
HETATM   31  C   UNK N   1      35.413  13.018  14.389  0.00  0.00     0.045 A 
HETATM   32  C   UNK N   1      34.966  12.348  15.529  0.00  0.00     0.050 A 
HETATM   33  C   UNK N   1      34.269  11.139  15.393  0.00  0.00     0.016 A 
HETATM   34  C   UNK N   1      34.013  10.616  14.122  0.00  0.00     0.003 A 
HETATM   35  C   UNK N   1      34.452  11.298  12.987  0.00  0.00     0.029 A 
BRANCH  32  36
HETATM   36  C   UNK N   1      35.224  12.943  16.880  0.00  0.00     0.417 C 
HETATM   37  F   UNK N   1      35.505  11.934  17.783  0.00  0.00    -0.166 F 
HETATM   38  F   UNK N   1      34.127  13.655  17.329  0.00  0.00    -0.166 F 
HETATM   39  F   UNK N   1      36.311  13.797  16.805  0.00  0.00    -0.166 F 
ENDBRANCH  32  36
ENDBRANCH  26  30
ENDBRANCH   1  24
TORSDOF 7
ENDMDL
MODEL 3
REMARK VINA RESULT:      -8.1      3.484      5.414
REMARK  7 active torsions:
REMARK  status: ('A' for Active; 'I' for Inactive)
REMARK    1  A    between atoms: C_4  and  C_29 
REMARK    2  A    between atoms: C_9  and  N_28 
REMARK       I    between atoms: C_11  and  N_34 
REMARK       I    between atoms: C_11  and  N_36 
REMARK    3  A    between atoms: C_12  and  N_36 
REMARK    4  A    between atoms: C_13  and  C_15 
REMARK    5  A    between atoms: C_15  and  C_16 
REMARK    6  A    between atoms: C_16  and  N_28 
REMARK    7  A    between atoms: C_33  and  N_34 
ROOT
HETATM    1  C   UNK N   1      36.259  13.951  12.088  0.00  0.00     0.152 A 
HETATM    2  C   UNK N   1      34.490  14.891  10.665  0.00  0.00     0.003 A 
HETATM    3  C   UNK N   1      35.319  15.849  11.262  0.00  0.00     0.105 A 
HETATM    4  N   UNK N   1      36.315  15.310  12.045  0.00  0.00    -0.345 N 
ATOM      5  HN  UNK N   1      37.016  15.866  12.536  1.00  0.00     0.167 HD
HETATM    6  S   UNK N   1      35.018  13.410  11.168  0.00  0.00    -0.057 SA
ENDROOT
BRANCH   2   7
HETATM    7  C   UNK N   1      33.266  15.153   9.869  0.00  0.00     0.067 C 
BRANCH   7   8
HETATM    8  C   UNK N   1      33.485  16.436   9.080  0.00  0.00     0.126 C 
BRANCH   8   9
HETATM    9  N   UNK N   1      32.233  17.141   8.924  0.00  0.00    -0.374 N 
HETATM   10  H   UNK N   1      31.906  17.701   9.664  0.00  0.00     0.161 HD
BRANCH   9  11
HETATM   11  C   UNK N   1      31.465  17.050   7.742  0.00  0.00     0.133 A 
HETATM   12  C   UNK N   1      30.130  17.470   7.660  0.00  0.00     0.122 A 
HETATM   13  N   UNK N   1      29.308  18.071   8.546  0.00  0.00    -0.291 N 
HETATM   14  C   UNK N   1      29.454  17.306   6.498  0.00  0.00     0.082 A 
HETATM   15  C   UNK N   1      29.590  18.517   9.899  0.00  0.00     0.178 C 
HETATM   16  N   UNK N   1      28.130  18.272   7.963  0.00  0.00    -0.307 N 
HETATM   17  C   UNK N   1      28.186  17.806   6.690  0.00  0.00     0.139 A 
ATOM     18  HN  UNK N   1      27.319  18.707   8.401  1.00  0.00     0.186 HD
HETATM   19  N   UNK N   1      30.010  16.760   5.394  0.00  0.00    -0.349 N 
HETATM   20  C   UNK N   1      31.316  16.367   5.456  0.00  0.00     0.182 A 
ATOM     21  HN  UNK N   1      29.468  16.645   4.537  1.00  0.00     0.166 HD
HETATM   22  N   UNK N   1      32.032  16.517   6.617  0.00  0.00    -0.337 N 
ATOM     23  HN  UNK N   1      33.008  16.223   6.642  1.00  0.00     0.168 HD
ENDBRANCH   9  11
ENDBRANCH   8   9
ENDBRANCH   7   8
ENDBRANCH   2   7
BRANCH   1  24
HETATM   24  N   UNK N   1      37.172  13.119  12.783  0.00  0.00    -0.288 N 
HETATM   25  C   UNK N   1      36.946  12.688  14.046  0.00  0.00     0.326 C 
HETATM   26  N   UNK N   1      35.825  13.086  14.707  0.00  0.00    -0.309 N 
HETATM   27  O   UNK N   1      37.780  11.982  14.593  0.00  0.00    -0.247 OA
HETATM   28  H   UNK N   1      35.137  13.544  14.173  0.00  0.00     0.170 HD
HETATM   29  H   UNK N   1      38.001  12.845  12.331  0.00  0.00     0.172 HD
BRANCH  26  30
HETATM   30  C   UNK N   1      35.550  12.907  16.082  0.00  0.00     0.037 A 
HETATM   31  C   UNK N   1      35.390  11.632  16.638  0.00  0.00     0.045 A 
HETATM   32  C   UNK N   1      35.196  11.477  18.012  0.00  0.00     0.050 A 
HETATM   33  C   UNK N   1      35.160  12.610  18.837  0.00  0.00     0.016 A 
HETATM   34  C   UNK N   1      35.329  13.884  18.288  0.00  0.00     0.003 A 
HETATM   35  C   UNK N   1      35.536  14.029  16.915  0.00  0.00     0.029 A 
BRANCH  32  36
HETATM   36  C   UNK N   1      35.047  10.099  18.583  0.00  0.00     0.417 C 
HETATM   37  F   UNK N   1      36.298   9.561  18.821  0.00  0.00    -0.166 F 
HETATM   38  F   UNK N   1      34.360   9.272  17.714  0.00  0.00    -0.166 F 
HETATM   39  F   UNK N   1      34.351  10.172  19.777  0.00  0.00    -0.166 F 
ENDBRANCH  32  36
ENDBRANCH  26  30
ENDBRANCH   1  24
TORSDOF 7
ENDMDL
MODEL 4
REMARK VINA RESULT:      -8.0      2.307      3.594
REMARK  7 active torsions:
REMARK  status: ('A' for Active; 'I' for Inactive)
REMARK    1  A    between atoms: C_4  and  C_29 
REMARK    2  A    between atoms: C_9  and  N_28 
REMARK       I    between atoms: C_11  and  N_34 
REMARK       I    between atoms: C_11  and  N_36 
REMARK    3  A    between atoms: C_12  and  N_36 
REMARK    4  A    between atoms: C_13  and  C_15 
REMARK    5  A    between atoms: C_15  and  C_16 
REMARK    6  A    between atoms: C_16  and  N_28 
REMARK    7  A    between atoms: C_33  and  N_34 
ROOT
HETATM    1  C   UNK N   1      36.063  15.011   9.960  0.00  0.00     0.152 A 
HETATM    2  C   UNK N   1      34.523  16.658   8.983  0.00  0.00     0.003 A 
HETATM    3  C   UNK N   1      35.189  17.102  10.132  0.00  0.00     0.105 A 
HETATM    4  N   UNK N   1      36.060  16.177  10.662  0.00  0.00    -0.345 N 
ATOM      5  HN  UNK N   1      36.637  16.346  11.487  1.00  0.00     0.167 HD
HETATM    6  S   UNK N   1      35.028  15.111   8.697  0.00  0.00    -0.057 SA
ENDROOT
BRANCH   2   7
HETATM    7  C   UNK N   1      33.444  17.368   8.255  0.00  0.00     0.067 C 
BRANCH   7   8
HETATM    8  C   UNK N   1      32.569  16.322   7.579  0.00  0.00     0.126 C 
BRANCH   8   9
HETATM    9  N   UNK N   1      31.176  16.586   7.860  0.00  0.00    -0.374 N 
HETATM   10  H   UNK N   1      30.814  16.348   8.744  0.00  0.00     0.161 HD
BRANCH   9  11
HETATM   11  C   UNK N   1      30.318  17.175   6.905  0.00  0.00     0.133 A 
HETATM   12  C   UNK N   1      29.226  17.984   7.250  0.00  0.00     0.122 A 
HETATM   13  N   UNK N   1      28.769  18.442   8.435  0.00  0.00    -0.291 N 
HETATM   14  C   UNK N   1      28.428  18.474   6.271  0.00  0.00     0.082 A 
HETATM   15  C   UNK N   1      29.323  18.252   9.764  0.00  0.00     0.178 C 
HETATM   16  N   UNK N   1      27.696  19.194   8.214  0.00  0.00    -0.307 N 
HETATM   17  C   UNK N   1      27.454  19.233   6.880  0.00  0.00     0.139 A 
ATOM     18  HN  UNK N   1      27.145  19.666   8.931  1.00  0.00     0.186 HD
HETATM   19  N   UNK N   1      28.637  18.227   4.959  0.00  0.00    -0.349 N 
HETATM   20  C   UNK N   1      29.710  17.457   4.610  0.00  0.00     0.182 A 
ATOM     21  HN  UNK N   1      28.011  18.606   4.248  1.00  0.00     0.166 HD
HETATM   22  N   UNK N   1      30.539  16.944   5.575  0.00  0.00    -0.337 N 
ATOM     23  HN  UNK N   1      31.338  16.376   5.295  1.00  0.00     0.168 HD
ENDBRANCH   9  11
ENDBRANCH   8   9
ENDBRANCH   7   8
ENDBRANCH   2   7
BRANCH   1  24
HETATM   24  N   UNK N   1      36.880  13.889  10.248  0.00  0.00    -0.288 N 
HETATM   25  C   UNK N   1      36.570  12.989  11.209  0.00  0.00     0.326 C 
HETATM   26  N   UNK N   1      35.453  13.167  11.967  0.00  0.00    -0.309 N 
HETATM   27  O   UNK N   1      37.325  12.050  11.413  0.00  0.00    -0.247 OA
HETATM   28  H   UNK N   1      34.825  13.864  11.671  0.00  0.00     0.170 HD
HETATM   29  H   UNK N   1      37.706  13.761   9.728  0.00  0.00     0.172 HD
BRANCH  26  30
HETATM   30  C   UNK N   1      35.107  12.451  13.137  0.00  0.00     0.037 A 
HETATM   31  C   UNK N   1      35.363  12.967  14.413  0.00  0.00     0.045 A 
HETATM   32  C   UNK N   1      34.943  12.277  15.552  0.00  0.00     0.050 A 
HETATM   33  C   UNK N   1      34.261  11.060  15.412  0.00  0.00     0.016 A 
HETATM   34  C   UNK N   1      33.995  10.548  14.139  0.00  0.00     0.003 A 
HETATM   35  C   UNK N   1      34.406  11.249  13.005  0.00  0.00     0.029 A 
BRANCH  32  36
HETATM   36  C   UNK N   1      35.213  12.860  16.906  0.00  0.00     0.417 C 
HETATM   37  F   UNK N   1      36.342  13.656  16.849  0.00  0.00    -0.166 F 
HETATM   38  F   UNK N   1      35.411  11.865  17.846  0.00  0.00    -0.166 F 
HETATM   39  F   UNK N   1      34.133  13.634  17.295  0.00  0.00    -0.166 F 
ENDBRANCH  32  36
ENDBRANCH  26  30
ENDBRANCH   1  24
TORSDOF 7
ENDMDL
MODEL 5
REMARK VINA RESULT:      -7.9      5.015     10.811
REMARK  7 active torsions:
REMARK  status: ('A' for Active; 'I' for Inactive)
REMARK    1  A    between atoms: C_4  and  C_29 
REMARK    2  A    between atoms: C_9  and  N_28 
REMARK       I    between atoms: C_11  and  N_34 
REMARK       I    between atoms: C_11  and  N_36 
REMARK    3  A    between atoms: C_12  and  N_36 
REMARK    4  A    between atoms: C_13  and  C_15 
REMARK    5  A    between atoms: C_15  and  C_16 
REMARK    6  A    between atoms: C_16  and  N_28 
REMARK    7  A    between atoms: C_33  and  N_34 
ROOT
HETATM    1  C   UNK N   1      35.171  16.057  10.201  0.00  0.00     0.152 A 
HETATM    2  C   UNK N   1      35.636  13.678  10.608  0.00  0.00     0.003 A 
HETATM    3  C   UNK N   1      34.553  14.186  11.335  0.00  0.00     0.105 A 
HETATM    4  N   UNK N   1      34.292  15.515  11.088  0.00  0.00    -0.345 N 
ATOM      5  HN  UNK N   1      33.528  16.035  11.520  1.00  0.00     0.167 HD
HETATM    6  S   UNK N   1      36.245  14.923   9.710  0.00  0.00    -0.057 SA
ENDROOT
BRANCH   2   7
HETATM    7  C   UNK N   1      36.237  12.328  10.741  0.00  0.00     0.067 C 
BRANCH   7   8
HETATM    8  C   UNK N   1      35.549  11.622  11.901  0.00  0.00     0.126 C 
BRANCH   8   9
HETATM    9  N   UNK N   1      36.474  11.461  13.000  0.00  0.00    -0.374 N 
HETATM   10  H   UNK N   1      37.158  10.754  12.948  0.00  0.00     0.161 HD
BRANCH   9  11
HETATM   11  C   UNK N   1      36.427  12.286  14.146  0.00  0.00     0.133 A 
HETATM   12  C   UNK N   1      35.874  11.873  15.366  0.00  0.00     0.122 A 
HETATM   13  N   UNK N   1      35.355  10.698  15.781  0.00  0.00    -0.291 N 
HETATM   14  C   UNK N   1      35.831  12.744  16.402  0.00  0.00     0.082 A 
HETATM   15  C   UNK N   1      35.245   9.442  15.060  0.00  0.00     0.178 C 
HETATM   16  N   UNK N   1      34.977  10.825  17.049  0.00  0.00    -0.307 N 
HETATM   17  C   UNK N   1      35.257  12.085  17.466  0.00  0.00     0.139 A 
ATOM     18  HN  UNK N   1      34.549  10.093  17.615  1.00  0.00     0.186 HD
HETATM   19  N   UNK N   1      36.308  14.006  16.323  0.00  0.00    -0.349 N 
HETATM   20  C   UNK N   1      36.868  14.412  15.145  0.00  0.00     0.182 A 
ATOM     21  HN  UNK N   1      36.253  14.638  17.122  1.00  0.00     0.166 HD
HETATM   22  N   UNK N   1      36.928  13.557  14.074  0.00  0.00    -0.337 N 
ATOM     23  HN  UNK N   1      37.355  13.876  13.205  1.00  0.00     0.168 HD
ENDBRANCH   9  11
ENDBRANCH   8   9
ENDBRANCH   7   8
ENDBRANCH   2   7
BRANCH   1  24
HETATM   24  N   UNK N   1      35.134  17.392   9.729  0.00  0.00    -0.288 N 
HETATM   25  C   UNK N   1      34.363  17.774   8.684  0.00  0.00     0.326 C 
HETATM   26  N   UNK N   1      33.615  16.850   8.022  0.00  0.00    -0.309 N 
HETATM   27  O   UNK N   1      34.386  18.940   8.320  0.00  0.00    -0.247 OA
HETATM   28  H   UNK N   1      33.540  15.961   8.439  0.00  0.00     0.170 HD
HETATM   29  H   UNK N   1      35.690  18.068  10.178  0.00  0.00     0.172 HD
BRANCH  26  30
HETATM   30  C   UNK N   1      32.936  17.038   6.796  0.00  0.00     0.037 A 
HETATM   31  C   UNK N   1      31.540  17.134   6.738  0.00  0.00     0.045 A 
HETATM   32  C   UNK N   1      30.898  17.396   5.526  0.00  0.00     0.050 A 
HETATM   33  C   UNK N   1      31.661  17.562   4.361  0.00  0.00     0.016 A 
HETATM   34  C   UNK N   1      33.054  17.477   4.417  0.00  0.00     0.003 A 
HETATM   35  C   UNK N   1      33.689  17.228   5.634  0.00  0.00     0.029 A 
BRANCH  32  36
HETATM   36  C   UNK N   1      29.404  17.513   5.496  0.00  0.00     0.417 C 
HETATM   37  F   UNK N   1      28.854  16.300   5.126  0.00  0.00    -0.166 F 
HETATM   38  F   UNK N   1      28.999  18.483   4.596  0.00  0.00    -0.166 F 
HETATM   39  F   UNK N   1      28.946  17.853   6.756  0.00  0.00    -0.166 F 
ENDBRANCH  32  36
ENDBRANCH  26  30
ENDBRANCH   1  24
TORSDOF 7
ENDMDL
MODEL 6
REMARK VINA RESULT:      -7.8      5.124     11.398
REMARK  7 active torsions:
REMARK  status: ('A' for Active; 'I' for Inactive)
REMARK    1  A    between atoms: C_4  and  C_29 
REMARK    2  A    between atoms: C_9  and  N_28 
REMARK       I    between atoms: C_11  and  N_34 
REMARK       I    between atoms: C_11  and  N_36 
REMARK    3  A    between atoms: C_12  and  N_36 
REMARK    4  A    between atoms: C_13  and  C_15 
REMARK    5  A    between atoms: C_15  and  C_16 
REMARK    6  A    between atoms: C_16  and  N_28 
REMARK    7  A    between atoms: C_33  and  N_34 
ROOT
HETATM    1  C   UNK N   1      34.828  15.851   9.595  0.00  0.00     0.152 A 
HETATM    2  C   UNK N   1      35.153  14.435  11.577  0.00  0.00     0.003 A 
HETATM    3  C   UNK N   1      34.642  13.758  10.463  0.00  0.00     0.105 A 
HETATM    4  N   UNK N   1      34.478  14.558   9.354  0.00  0.00    -0.345 N 
ATOM      5  HN  UNK N   1      34.134  14.220   8.455  1.00  0.00     0.167 HD
HETATM    6  S   UNK N   1      35.347  16.015  11.139  0.00  0.00    -0.057 SA
ENDROOT
BRANCH   2   7
HETATM    7  C   UNK N   1      35.328  13.885  12.943  0.00  0.00     0.067 C 
BRANCH   7   8
HETATM    8  C   UNK N   1      36.504  14.603  13.590  0.00  0.00     0.126 C 
BRANCH   8   9
HETATM    9  N   UNK N   1      36.838  13.973  14.847  0.00  0.00    -0.374 N 
HETATM   10  H   UNK N   1      36.921  14.531  15.653  0.00  0.00     0.161 HD
BRANCH   9  11
HETATM   11  C   UNK N   1      37.050  12.580  14.953  0.00  0.00     0.133 A 
HETATM   12  C   UNK N   1      36.390  11.774  15.891  0.00  0.00     0.122 A 
HETATM   13  N   UNK N   1      35.431  12.035  16.804  0.00  0.00    -0.291 N 
HETATM   14  C   UNK N   1      36.685  10.453  15.953  0.00  0.00     0.082 A 
HETATM   15  C   UNK N   1      34.739  13.284  17.071  0.00  0.00     0.178 C 
HETATM   16  N   UNK N   1      35.134  10.908  17.442  0.00  0.00    -0.307 N 
HETATM   17  C   UNK N   1      35.896   9.905  16.940  0.00  0.00     0.139 A 
ATOM     18  HN  UNK N   1      34.443  10.813  18.187  1.00  0.00     0.186 HD
HETATM   19  N   UNK N   1      37.588   9.862  15.141  0.00  0.00    -0.349 N 
HETATM   20  C   UNK N   1      38.222  10.634  14.209  0.00  0.00     0.182 A 
ATOM     21  HN  UNK N   1      37.791   8.865  15.220  1.00  0.00     0.166 HD
HETATM   22  N   UNK N   1      37.949  11.975  14.118  0.00  0.00    -0.337 N 
ATOM     23  HN  UNK N   1      38.427  12.535  13.412  1.00  0.00     0.168 HD
ENDBRANCH   9  11
ENDBRANCH   8   9
ENDBRANCH   7   8
ENDBRANCH   2   7
BRANCH   1  24
HETATM   24  N   UNK N   1      34.797  16.895   8.638  0.00  0.00    -0.288 N 
HETATM   25  C   UNK N   1      33.653  17.525   8.283  0.00  0.00     0.326 C 
HETATM   26  N   UNK N   1      32.468  17.131   8.826  0.00  0.00    -0.309 N 
HETATM   27  O   UNK N   1      33.695  18.410   7.442  0.00  0.00    -0.247 OA
HETATM   28  H   UNK N   1      32.516  16.507   9.585  0.00  0.00     0.170 HD
HETATM   29  H   UNK N   1      35.641  17.173   8.215  0.00  0.00     0.172 HD
BRANCH  26  30
HETATM   30  C   UNK N   1      31.177  17.530   8.408  0.00  0.00     0.037 A 
HETATM   31  C   UNK N   1      30.632  17.091   7.195  0.00  0.00     0.045 A 
HETATM   32  C   UNK N   1      29.327  17.436   6.840  0.00  0.00     0.050 A 
HETATM   33  C   UNK N   1      28.560  18.227   7.707  0.00  0.00     0.016 A 
HETATM   34  C   UNK N   1      29.097  18.657   8.923  0.00  0.00     0.003 A 
HETATM   35  C   UNK N   1      30.398  18.298   9.277  0.00  0.00     0.029 A 
BRANCH  32  36
HETATM   36  C   UNK N   1      28.761  16.937   5.544  0.00  0.00     0.417 C 
HETATM   37  F   UNK N   1      29.662  17.180   4.524  0.00  0.00    -0.166 F 
HETATM   38  F   UNK N   1      27.566  17.567   5.248  0.00  0.00    -0.166 F 
HETATM   39  F   UNK N   1      28.538  15.575   5.636  0.00  0.00    -0.166 F 
ENDBRANCH  32  36
ENDBRANCH  26  30
ENDBRANCH   1  24
TORSDOF 7
ENDMDL
MODEL 7
REMARK VINA RESULT:      -7.8      5.421     11.453
REMARK  7 active torsions:
REMARK  status: ('A' for Active; 'I' for Inactive)
REMARK    1  A    between atoms: C_4  and  C_29 
REMARK    2  A    between atoms: C_9  and  N_28 
REMARK       I    between atoms: C_11  and  N_34 
REMARK       I    between atoms: C_11  and  N_36 
REMARK    3  A    between atoms: C_12  and  N_36 
REMARK    4  A    between atoms: C_13  and  C_15 
REMARK    5  A    between atoms: C_15  and  C_16 
REMARK    6  A    between atoms: C_16  and  N_28 
REMARK    7  A    between atoms: C_33  and  N_34 
ROOT
HETATM    1  C   UNK N   1      36.395  14.459  11.482  0.00  0.00     0.152 A 
HETATM    2  C   UNK N   1      36.147  12.213  12.450  0.00  0.00     0.003 A 
HETATM    3  C   UNK N   1      36.700  12.228  11.164  0.00  0.00     0.105 A 
HETATM    4  N   UNK N   1      36.848  13.492  10.638  0.00  0.00    -0.345 N 
ATOM      5  HN  UNK N   1      37.251  13.683   9.720  1.00  0.00     0.167 HD
HETATM    6  S   UNK N   1      35.834  13.781  12.863  0.00  0.00    -0.057 SA
ENDROOT
BRANCH   2   7
HETATM    7  C   UNK N   1      35.755  11.015  13.230  0.00  0.00     0.067 C 
BRANCH   7   8
HETATM    8  C   UNK N   1      36.219  11.218  14.665  0.00  0.00     0.126 C 
BRANCH   8   9
HETATM    9  N   UNK N   1      35.078  11.380  15.537  0.00  0.00    -0.374 N 
HETATM   10  H   UNK N   1      34.199  11.050  15.238  0.00  0.00     0.161 HD
BRANCH   9  11
HETATM   11  C   UNK N   1      35.184  11.996  16.803  0.00  0.00     0.133 A 
HETATM   12  C   UNK N   1      35.238  11.276  18.005  0.00  0.00     0.122 A 
HETATM   13  N   UNK N   1      35.273   9.954  18.274  0.00  0.00    -0.291 N 
HETATM   14  C   UNK N   1      35.295  11.948  19.179  0.00  0.00     0.082 A 
HETATM   15  C   UNK N   1      35.304   8.833  17.351  0.00  0.00     0.178 C 
HETATM   16  N   UNK N   1      35.337   9.791  19.592  0.00  0.00    -0.307 N 
HETATM   17  C   UNK N   1      35.350  11.010  20.185  0.00  0.00     0.139 A 
ATOM     18  HN  UNK N   1      35.372   8.894  20.077  1.00  0.00     0.186 HD
HETATM   19  N   UNK N   1      35.313  13.298  19.254  0.00  0.00    -0.349 N 
HETATM   20  C   UNK N   1      35.281  14.010  18.088  0.00  0.00     0.182 A 
ATOM     21  HN  UNK N   1      35.349  13.772  20.156  1.00  0.00     0.166 HD
HETATM   22  N   UNK N   1      35.222  13.361  16.881  0.00  0.00    -0.337 N 
ATOM     23  HN  UNK N   1      35.205  13.910  16.021  1.00  0.00     0.168 HD
ENDBRANCH   9  11
ENDBRANCH   8   9
ENDBRANCH   7   8
ENDBRANCH   2   7
BRANCH   1  24
HETATM   24  N   UNK N   1      36.446  15.852  11.229  0.00  0.00    -0.288 N 
HETATM   25  C   UNK N   1      35.569  16.476  10.409  0.00  0.00     0.326 C 
HETATM   26  N   UNK N   1      34.615  15.751   9.761  0.00  0.00    -0.309 N 
HETATM   27  O   UNK N   1      35.676  17.678  10.224  0.00  0.00    -0.247 OA
HETATM   28  H   UNK N   1      34.500  14.817  10.048  0.00  0.00     0.170 HD
HETATM   29  H   UNK N   1      37.147  16.386  11.666  0.00  0.00     0.172 HD
BRANCH  26  30
HETATM   30  C   UNK N   1      33.775  16.206   8.719  0.00  0.00     0.037 A 
HETATM   31  C   UNK N   1      32.500  16.723   8.978  0.00  0.00     0.045 A 
HETATM   32  C   UNK N   1      31.720  17.237   7.941  0.00  0.00     0.050 A 
HETATM   33  C   UNK N   1      32.221  17.232   6.631  0.00  0.00     0.016 A 
HETATM   34  C   UNK N   1      33.497  16.727   6.370  0.00  0.00     0.003 A 
HETATM   35  C   UNK N   1      34.276  16.227   7.414  0.00  0.00     0.029 A 
BRANCH  32  36
HETATM   36  C   UNK N   1      30.366  17.802   8.249  0.00  0.00     0.417 C 
HETATM   37  F   UNK N   1      29.676  18.014   7.069  0.00  0.00    -0.166 F 
HETATM   38  F   UNK N   1      30.471  19.002   8.929  0.00  0.00    -0.166 F 
HETATM   39  F   UNK N   1      29.662  16.904   9.031  0.00  0.00    -0.166 F 
ENDBRANCH  32  36
ENDBRANCH  26  30
ENDBRANCH   1  24
TORSDOF 7
ENDMDL
MODEL 8
REMARK VINA RESULT:      -7.7      5.065     10.557
REMARK  7 active torsions:
REMARK  status: ('A' for Active; 'I' for Inactive)
REMARK    1  A    between atoms: C_4  and  C_29 
REMARK    2  A    between atoms: C_9  and  N_28 
REMARK       I    between atoms: C_11  and  N_34 
REMARK       I    between atoms: C_11  and  N_36 
REMARK    3  A    between atoms: C_12  and  N_36 
REMARK    4  A    between atoms: C_13  and  C_15 
REMARK    5  A    between atoms: C_15  and  C_16 
REMARK    6  A    between atoms: C_16  and  N_28 
REMARK    7  A    between atoms: C_33  and  N_34 
ROOT
HETATM    1  C   UNK N   1      32.151  16.828   8.714  0.00  0.00     0.152 A 
HETATM    2  C   UNK N   1      34.142  16.035   7.512  0.00  0.00     0.003 A 
HETATM    3  C   UNK N   1      34.085  17.424   7.678  0.00  0.00     0.105 A 
HETATM    4  N   UNK N   1      32.972  17.855   8.365  0.00  0.00    -0.345 N 
ATOM      5  HN  UNK N   1      32.785  18.834   8.588  1.00  0.00     0.167 HD
HETATM    6  S   UNK N   1      32.781  15.406   8.204  0.00  0.00    -0.057 SA
ENDROOT
BRANCH   2   7
HETATM    7  C   UNK N   1      35.143  15.278   6.720  0.00  0.00     0.067 C 
BRANCH   7   8
HETATM    8  C   UNK N   1      35.526  14.037   7.513  0.00  0.00     0.126 C 
BRANCH   8   9
HETATM    9  N   UNK N   1      36.428  14.394   8.585  0.00  0.00    -0.374 N 
HETATM   10  H   UNK N   1      36.919  15.246   8.531  0.00  0.00     0.161 HD
BRANCH   9  11
HETATM   11  C   UNK N   1      36.625  13.559   9.707  0.00  0.00     0.133 A 
HETATM   12  C   UNK N   1      36.496  14.008  11.029  0.00  0.00     0.122 A 
HETATM   13  N   UNK N   1      36.124  15.193  11.558  0.00  0.00    -0.291 N 
HETATM   14  C   UNK N   1      36.745  13.150  12.047  0.00  0.00     0.082 A 
HETATM   15  C   UNK N   1      35.690  16.401  10.878  0.00  0.00     0.178 C 
HETATM   16  N   UNK N   1      36.151  15.093  12.883  0.00  0.00    -0.307 N 
HETATM   17  C   UNK N   1      36.535  13.838  13.221  0.00  0.00     0.139 A 
ATOM     18  HN  UNK N   1      35.918  15.840  13.537  1.00  0.00     0.186 HD
HETATM   19  N   UNK N   1      37.110  11.863  11.853  0.00  0.00    -0.349 N 
HETATM   20  C   UNK N   1      37.219  11.410  10.569  0.00  0.00     0.182 A 
ATOM     21  HN  UNK N   1      37.298  11.247  12.643  1.00  0.00     0.166 HD
HETATM   22  N   UNK N   1      36.974  12.251   9.513  0.00  0.00    -0.337 N 
ATOM     23  HN  UNK N   1      37.055  11.893   8.562  1.00  0.00     0.168 HD
ENDBRANCH   9  11
ENDBRANCH   8   9
ENDBRANCH   7   8
ENDBRANCH   2   7
BRANCH   1  24
HETATM   24  N   UNK N   1      30.950  16.960   9.454  0.00  0.00    -0.288 N 
HETATM   25  C   UNK N   1      29.765  17.259   8.874  0.00  0.00     0.326 C 
HETATM   26  N   UNK N   1      29.707  17.483   7.532  0.00  0.00    -0.309 N 
HETATM   27  O   UNK N   1      28.769  17.370   9.573  0.00  0.00    -0.247 OA
HETATM   28  H   UNK N   1      30.510  17.254   7.011  0.00  0.00     0.170 HD
HETATM   29  H   UNK N   1      30.979  16.829  10.430  0.00  0.00     0.172 HD
BRANCH  26  30
HETATM   30  C   UNK N   1      28.609  18.011   6.814  0.00  0.00     0.037 A 
HETATM   31  C   UNK N   1      28.154  19.318   7.028  0.00  0.00     0.045 A 
HETATM   32  C   UNK N   1      27.118  19.843   6.253  0.00  0.00     0.050 A 
HETATM   33  C   UNK N   1      26.532  19.052   5.255  0.00  0.00     0.016 A 
HETATM   34  C   UNK N   1      26.991  17.751   5.031  0.00  0.00     0.003 A 
HETATM   35  C   UNK N   1      28.035  17.238   5.801  0.00  0.00     0.029 A 
BRANCH  32  36
HETATM   36  C   UNK N   1      26.662  21.251   6.491  0.00  0.00     0.417 C 
HETATM   37  F   UNK N   1      27.752  22.101   6.450  0.00  0.00    -0.166 F 
HETATM   38  F   UNK N   1      26.044  21.373   7.722  0.00  0.00    -0.166 F 
HETATM   39  F   UNK N   1      25.766  21.615   5.502  0.00  0.00    -0.166 F 
ENDBRANCH  32  36
ENDBRANCH  26  30
ENDBRANCH   1  24
TORSDOF 7
ENDMDL
MODEL 9
REMARK VINA RESULT:      -7.7      5.911     10.241
REMARK  7 active torsions:
REMARK  status: ('A' for Active; 'I' for Inactive)
REMARK    1  A    between atoms: C_4  and  C_29 
REMARK    2  A    between atoms: C_9  and  N_28 
REMARK       I    between atoms: C_11  and  N_34 
REMARK       I    between atoms: C_11  and  N_36 
REMARK    3  A    between atoms: C_12  and  N_36 
REMARK    4  A    between atoms: C_13  and  C_15 
REMARK    5  A    between atoms: C_15  and  C_16 
REMARK    6  A    between atoms: C_16  and  N_28 
REMARK    7  A    between atoms: C_33  and  N_34 
ROOT
HETATM    1  C   UNK N   1      27.724  16.795   6.461  0.00  0.00     0.152 A 
HETATM    2  C   UNK N   1      29.868  17.241   7.578  0.00  0.00     0.003 A 
HETATM    3  C   UNK N   1      29.971  16.449   6.428  0.00  0.00     0.105 A 
HETATM    4  N   UNK N   1      28.766  16.218   5.802  0.00  0.00    -0.345 N 
ATOM      5  HN  UNK N   1      28.666  15.677   4.943  1.00  0.00     0.167 HD
HETATM    6  S   UNK N   1      28.267  17.592   7.784  0.00  0.00    -0.057 SA
ENDROOT
BRANCH   2   7
HETATM    7  C   UNK N   1      30.958  17.565   8.530  0.00  0.00     0.067 C 
BRANCH   7   8
HETATM    8  C   UNK N   1      31.886  16.360   8.607  0.00  0.00     0.126 C 
BRANCH   8   9
HETATM    9  N   UNK N   1      33.247  16.768   8.343  0.00  0.00    -0.374 N 
HETATM   10  H   UNK N   1      33.427  17.365   7.582  0.00  0.00     0.161 HD
BRANCH   9  11
HETATM   11  C   UNK N   1      34.327  16.334   9.144  0.00  0.00     0.133 A 
HETATM   12  C   UNK N   1      35.191  15.295   8.770  0.00  0.00     0.122 A 
HETATM   13  N   UNK N   1      35.284  14.544   7.652  0.00  0.00    -0.291 N 
HETATM   14  C   UNK N   1      36.175  14.914   9.618  0.00  0.00     0.082 A 
HETATM   15  C   UNK N   1      34.500  14.621   6.431  0.00  0.00     0.178 C 
HETATM   16  N   UNK N   1      36.296  13.695   7.793  0.00  0.00    -0.307 N 
HETATM   17  C   UNK N   1      36.871  13.896   9.005  0.00  0.00     0.139 A 
ATOM     18  HN  UNK N   1      36.593  13.007   7.102  1.00  0.00     0.186 HD
HETATM   19  N   UNK N   1      36.378  15.498  10.820  0.00  0.00    -0.349 N 
HETATM   20  C   UNK N   1      35.555  16.525  11.186  0.00  0.00     0.182 A 
ATOM     21  HN  UNK N   1      37.125  15.180  11.438  1.00  0.00     0.166 HD
HETATM   22  N   UNK N   1      34.547  16.937  10.352  0.00  0.00    -0.337 N 
ATOM     23  HN  UNK N   1      33.947  17.709  10.640  1.00  0.00     0.168 HD
ENDBRANCH   9  11
ENDBRANCH   8   9
ENDBRANCH   7   8
ENDBRANCH   2   7
BRANCH   1  24
HETATM   24  N   UNK N   1      26.372  16.757   6.040  0.00  0.00    -0.288 N 
HETATM   25  C   UNK N   1      25.509  15.798   6.447  0.00  0.00     0.326 C 
HETATM   26  N   UNK N   1      25.944  14.800   7.265  0.00  0.00    -0.309 N 
HETATM   27  O   UNK N   1      24.359  15.817   6.036  0.00  0.00    -0.247 OA
HETATM   28  H   UNK N   1      26.838  14.911   7.660  0.00  0.00     0.170 HD
HETATM   29  H   UNK N   1      26.049  17.455   5.426  0.00  0.00     0.172 HD
BRANCH  26  30
HETATM   30  C   UNK N   1      25.239  13.620   7.601  0.00  0.00     0.037 A 
HETATM   31  C   UNK N   1      24.740  13.408   8.891  0.00  0.00     0.045 A 
HETATM   32  C   UNK N   1      23.982  12.271   9.179  0.00  0.00     0.050 A 
HETATM   33  C   UNK N   1      23.723  11.338   8.165  0.00  0.00     0.016 A 
HETATM   34  C   UNK N   1      24.211  11.552   6.873  0.00  0.00     0.003 A 
HETATM   35  C   UNK N   1      24.957  12.696   6.591  0.00  0.00     0.029 A 
BRANCH  32  36
HETATM   36  C   UNK N   1      23.442  12.078  10.564  0.00  0.00     0.417 C 
HETATM   37  F   UNK N   1      22.775  10.869  10.634  0.00  0.00    -0.166 F 
HETATM   38  F   UNK N   1      22.568  13.094  10.904  0.00  0.00    -0.166 F 
HETATM   39  F   UNK N   1      24.491  12.069  11.467  0.00  0.00    -0.166 F 
ENDBRANCH  32  36
ENDBRANCH  26  30
ENDBRANCH   1  24
TORSDOF 7
ENDMDL
