MODEL 1
REMARK VINA RESULT:      -6.9      0.000      0.000
REMARK  6 active torsions:
REMARK  status: ('A' for Active; 'I' for Inactive)
REMARK    1  A    between atoms: C_1  and  S_13 
REMARK    2  A    between atoms: C_2  and  C_3 
REMARK    3  A    between atoms: C_2  and  N_21 
REMARK    4  A    between atoms: N_12  and  S_13 
REMARK    5  A    between atoms: C_16  and  S_18 
REMARK    6  A    between atoms: S_18  and  N_21 
ROOT
HETATM    1  S   UNK N   1      26.318  23.651  -6.570  0.00  0.00     0.265 S 
HETATM    2  O   UNK N   1      25.284  22.529  -6.400  0.00  0.00    -0.200 OA
HETATM    3  O   UNK N   1      26.849  23.384  -7.988  0.00  0.00    -0.200 OA
ENDROOT
BRANCH   1   4
HETATM    4  C   UNK N   1      27.604  23.599  -5.334  0.00  0.00     0.121 A 
HETATM    5  C   UNK N   1      27.594  24.244  -4.094  0.00  0.00     0.035 A 
HETATM    6  C   UNK N   1      28.808  24.075  -3.364  0.00  0.00     0.035 A 
HETATM    7  C   UNK N   1      29.769  23.308  -4.043  0.00  0.00     0.121 A 
HETATM    8  S   UNK N   1      29.064  22.854  -5.509  0.00  0.00    -0.063 SA
BRANCH   7   9
HETATM    9  S   UNK N   1      31.441  22.956  -3.361  0.00  0.00     0.263 S 
HETATM   10  O   UNK N   1      31.615  21.969  -2.197  0.00  0.00    -0.200 OA
HETATM   11  O   UNK N   1      30.637  23.653  -2.255  0.00  0.00    -0.200 OA
BRANCH   9  12
HETATM   12  N   UNK N   1      30.607  21.477  -3.857  0.00  0.00    -0.324 N 
HETATM   13  H   UNK N   1      30.486  20.684  -3.226  0.00  0.00     0.169 HD
HETATM   14  H   UNK N   1      30.236  21.414  -4.805  0.00  0.00     0.169 HD
ENDBRANCH   9  12
ENDBRANCH   7   9
ENDBRANCH   1   4
BRANCH   1  15
HETATM   15  N   UNK N   1      25.357  25.133  -6.681  0.00  0.00    -0.311 N 
HETATM   16  H   UNK N   1      24.377  25.230  -6.417  0.00  0.00     0.172 HD
BRANCH  15  17
HETATM   17  C   UNK N   1      26.205  26.190  -7.214  0.00  0.00     0.170 C 
BRANCH  17  18
HETATM   18  C   UNK N   1      26.349  27.271  -6.201  0.00  0.00    -0.040 A 
HETATM   19  C   UNK N   1      25.511  27.303  -5.079  0.00  0.00     0.009 A 
HETATM   20  C   UNK N   1      25.638  28.326  -4.138  0.00  0.00     0.007 A 
HETATM   21  C   UNK N   1      26.605  29.322  -4.312  0.00  0.00    -0.062 A 
HETATM   22  C   UNK N   1      27.446  29.289  -5.430  0.00  0.00     0.007 A 
HETATM   23  C   UNK N   1      26.736  30.413  -3.313  0.00  0.00     0.048 C 
HETATM   24  C   UNK N   1      27.319  28.266  -6.372  0.00  0.00     0.009 A 
ENDBRANCH  17  18
ENDBRANCH  15  17
ENDBRANCH   1  15
TORSDOF 6
ENDMDL
MODEL 2
REMARK VINA RESULT:      -6.8     14.408     17.399
REMARK  6 active torsions:
REMARK  status: ('A' for Active; 'I' for Inactive)
REMARK    1  A    between atoms: C_1  and  S_13 
REMARK    2  A    between atoms: C_2  and  C_3 
REMARK    3  A    between atoms: C_2  and  N_21 
REMARK    4  A    between atoms: N_12  and  S_13 
REMARK    5  A    between atoms: C_16  and  S_18 
REMARK    6  A    between atoms: S_18  and  N_21 
ROOT
HETATM    1  S   UNK N   1      34.378  17.859   8.180  0.00  0.00     0.265 S 
HETATM    2  O   UNK N   1      34.597  17.719   6.667  0.00  0.00    -0.200 OA
HETATM    3  O   UNK N   1      35.185  19.128   8.504  0.00  0.00    -0.200 OA
ENDROOT
BRANCH   1   4
HETATM    4  C   UNK N   1      34.942  16.435   9.095  0.00  0.00     0.121 A 
HETATM    5  C   UNK N   1      35.064  15.129   8.611  0.00  0.00     0.035 A 
HETATM    6  C   UNK N   1      35.464  14.195   9.614  0.00  0.00     0.035 A 
HETATM    7  C   UNK N   1      35.640  14.773  10.881  0.00  0.00     0.121 A 
HETATM    8  S   UNK N   1      35.315  16.421  10.701  0.00  0.00    -0.063 SA
BRANCH   7   9
HETATM    9  S   UNK N   1      36.119  13.805  12.370  0.00  0.00     0.263 S 
HETATM   10  O   UNK N   1      35.183  13.731  13.586  0.00  0.00    -0.200 OA
HETATM   11  O   UNK N   1      36.056  15.280  12.790  0.00  0.00    -0.200 OA
BRANCH   9  12
HETATM   12  N   UNK N   1      34.547  13.301  11.735  0.00  0.00    -0.324 N 
HETATM   13  H   UNK N   1      33.719  13.894  11.801  0.00  0.00     0.169 HD
HETATM   14  H   UNK N   1      34.465  12.387  11.288  0.00  0.00     0.169 HD
ENDBRANCH   9  12
ENDBRANCH   7   9
ENDBRANCH   1   4
BRANCH   1  15
HETATM   15  N   UNK N   1      32.675  18.311   8.348  0.00  0.00    -0.311 N 
HETATM   16  H   UNK N   1      32.322  19.252   8.518  0.00  0.00     0.172 HD
BRANCH  15  17
HETATM   17  C   UNK N   1      31.866  17.110   8.203  0.00  0.00     0.170 C 
BRANCH  17  18
HETATM   18  C   UNK N   1      30.848  17.321   7.137  0.00  0.00    -0.040 A 
HETATM   19  C   UNK N   1      31.180  17.108   5.793  0.00  0.00     0.009 A 
HETATM   20  C   UNK N   1      30.229  17.322   4.794  0.00  0.00     0.007 A 
HETATM   21  C   UNK N   1      28.940  17.748   5.133  0.00  0.00    -0.062 A 
HETATM   22  C   UNK N   1      28.605  17.955   6.476  0.00  0.00     0.007 A 
HETATM   23  C   UNK N   1      27.930  17.979   4.069  0.00  0.00     0.048 C 
HETATM   24  C   UNK N   1      29.557  17.742   7.476  0.00  0.00     0.009 A 
ENDBRANCH  17  18
ENDBRANCH  15  17
ENDBRANCH   1  15
TORSDOF 6
ENDMDL
MODEL 3
REMARK VINA RESULT:      -6.5     14.449     17.416
REMARK  6 active torsions:
REMARK  status: ('A' for Active; 'I' for Inactive)
REMARK    1  A    between atoms: C_1  and  S_13 
REMARK    2  A    between atoms: C_2  and  C_3 
REMARK    3  A    between atoms: C_2  and  N_21 
REMARK    4  A    between atoms: N_12  and  S_13 
REMARK    5  A    between atoms: C_16  and  S_18 
REMARK    6  A    between atoms: S_18  and  N_21 
ROOT
HETATM    1  S   UNK N   1      34.398  17.889   8.296  0.00  0.00     0.265 S 
HETATM    2  O   UNK N   1      34.684  17.567   6.823  0.00  0.00    -0.200 OA
HETATM    3  O   UNK N   1      35.208  19.179   8.505  0.00  0.00    -0.200 OA
ENDROOT
BRANCH   1   4
HETATM    4  C   UNK N   1      34.897  16.579   9.400  0.00  0.00     0.121 A 
HETATM    5  C   UNK N   1      35.387  16.728  10.701  0.00  0.00     0.035 A 
HETATM    6  C   UNK N   1      35.779  15.491  11.296  0.00  0.00     0.035 A 
HETATM    7  C   UNK N   1      35.605  14.382  10.453  0.00  0.00     0.121 A 
HETATM    8  S   UNK N   1      34.953  14.978   9.013  0.00  0.00    -0.063 SA
BRANCH   7   9
HETATM    9  S   UNK N   1      36.058  12.667  10.942  0.00  0.00     0.263 S 
HETATM   10  O   UNK N   1      36.244  12.302  12.422  0.00  0.00    -0.200 OA
HETATM   11  O   UNK N   1      37.234  13.574  11.328  0.00  0.00    -0.200 OA
BRANCH   9  12
HETATM   12  N   UNK N   1      34.590  13.219  11.760  0.00  0.00    -0.324 N 
HETATM   13  H   UNK N   1      34.595  14.000  12.415  0.00  0.00     0.169 HD
HETATM   14  H   UNK N   1      33.710  12.739  11.571  0.00  0.00     0.169 HD
ENDBRANCH   9  12
ENDBRANCH   7   9
ENDBRANCH   1   4
BRANCH   1  15
HETATM   15  N   UNK N   1      32.696  18.374   8.328  0.00  0.00    -0.311 N 
HETATM   16  H   UNK N   1      32.349  19.330   8.401  0.00  0.00     0.172 HD
BRANCH  15  17
HETATM   17  C   UNK N   1      31.875  17.175   8.233  0.00  0.00     0.170 C 
BRANCH  17  18
HETATM   18  C   UNK N   1      30.885  17.335   7.134  0.00  0.00    -0.040 A 
HETATM   19  C   UNK N   1      29.556  17.669   7.425  0.00  0.00     0.009 A 
HETATM   20  C   UNK N   1      28.625  17.804   6.393  0.00  0.00     0.007 A 
HETATM   21  C   UNK N   1      29.018  17.608   5.065  0.00  0.00    -0.062 A 
HETATM   22  C   UNK N   1      30.346  17.279   4.772  0.00  0.00     0.007 A 
HETATM   23  C   UNK N   1      28.026  17.747   3.969  0.00  0.00     0.048 C 
HETATM   24  C   UNK N   1      31.278  17.144   5.804  0.00  0.00     0.009 A 
ENDBRANCH  17  18
ENDBRANCH  15  17
ENDBRANCH   1  15
TORSDOF 6
ENDMDL
MODEL 4
REMARK VINA RESULT:      -6.4     19.677     23.213
REMARK  6 active torsions:
REMARK  status: ('A' for Active; 'I' for Inactive)
REMARK    1  A    between atoms: C_1  and  S_13 
REMARK    2  A    between atoms: C_2  and  C_3 
REMARK    3  A    between atoms: C_2  and  N_21 
REMARK    4  A    between atoms: N_12  and  S_13 
REMARK    5  A    between atoms: C_16  and  S_18 
REMARK    6  A    between atoms: S_18  and  N_21 
ROOT
HETATM    1  S   UNK N   1      36.604  13.112  11.563  0.00  0.00     0.265 S 
HETATM    2  O   UNK N   1      37.887  12.608  10.888  0.00  0.00    -0.200 OA
HETATM    3  O   UNK N   1      35.645  11.929  11.349  0.00  0.00    -0.200 OA
ENDROOT
BRANCH   1   4
HETATM    4  C   UNK N   1      35.995  14.628  10.847  0.00  0.00     0.121 A 
HETATM    5  C   UNK N   1      36.020  15.896  11.435  0.00  0.00     0.035 A 
HETATM    6  C   UNK N   1      35.380  16.895  10.642  0.00  0.00     0.035 A 
HETATM    7  C   UNK N   1      34.846  16.400   9.441  0.00  0.00     0.121 A 
HETATM    8  S   UNK N   1      35.209  14.751   9.403  0.00  0.00    -0.063 SA
BRANCH   7   9
HETATM    9  S   UNK N   1      33.935  17.452   8.237  0.00  0.00     0.263 S 
HETATM   10  O   UNK N   1      34.638  17.984   6.979  0.00  0.00    -0.200 OA
HETATM   11  O   UNK N   1      35.038  18.322   8.855  0.00  0.00    -0.200 OA
BRANCH   9  12
HETATM   12  N   UNK N   1      34.661  16.039   7.460  0.00  0.00    -0.324 N 
HETATM   13  H   UNK N   1      34.313  15.093   7.619  0.00  0.00     0.169 HD
HETATM   14  H   UNK N   1      35.453  16.174   6.831  0.00  0.00     0.169 HD
ENDBRANCH   9  12
ENDBRANCH   7   9
ENDBRANCH   1   4
BRANCH   1  15
HETATM   15  N   UNK N   1      36.982  13.124  13.292  0.00  0.00    -0.311 N 
HETATM   16  H   UNK N   1      37.898  12.946  13.704  0.00  0.00     0.172 HD
BRANCH  15  17
HETATM   17  C   UNK N   1      35.764  13.433  14.027  0.00  0.00     0.170 C 
BRANCH  17  18
HETATM   18  C   UNK N   1      35.753  12.682  15.312  0.00  0.00    -0.040 A 
HETATM   19  C   UNK N   1      36.319  11.403  15.387  0.00  0.00     0.009 A 
HETATM   20  C   UNK N   1      36.295  10.695  16.589  0.00  0.00     0.007 A 
HETATM   21  C   UNK N   1      35.705  11.262  17.724  0.00  0.00    -0.062 A 
HETATM   22  C   UNK N   1      35.144  12.542  17.653  0.00  0.00     0.007 A 
HETATM   23  C   UNK N   1      35.676  10.505  19.002  0.00  0.00     0.048 C 
HETATM   24  C   UNK N   1      35.168  13.251  16.450  0.00  0.00     0.009 A 
ENDBRANCH  17  18
ENDBRANCH  15  17
ENDBRANCH   1  15
TORSDOF 6
ENDMDL
MODEL 5
REMARK VINA RESULT:      -6.3     14.963     17.689
REMARK  6 active torsions:
REMARK  status: ('A' for Active; 'I' for Inactive)
REMARK    1  A    between atoms: C_1  and  S_13 
REMARK    2  A    between atoms: C_2  and  C_3 
REMARK    3  A    between atoms: C_2  and  N_21 
REMARK    4  A    between atoms: N_12  and  S_13 
REMARK    5  A    between atoms: C_16  and  S_18 
REMARK    6  A    between atoms: S_18  and  N_21 
ROOT
HETATM    1  S   UNK N   1      34.520  16.094   6.829  0.00  0.00     0.265 S 
HETATM    2  O   UNK N   1      35.662  15.612   5.923  0.00  0.00    -0.200 OA
HETATM    3  O   UNK N   1      34.465  17.596   6.502  0.00  0.00    -0.200 OA
ENDROOT
BRANCH   1   4
HETATM    4  C   UNK N   1      34.829  15.779   8.558  0.00  0.00     0.121 A 
HETATM    5  C   UNK N   1      34.783  16.714   9.596  0.00  0.00     0.035 A 
HETATM    6  C   UNK N   1      35.161  16.168  10.859  0.00  0.00     0.035 A 
HETATM    7  C   UNK N   1      35.513  14.810  10.801  0.00  0.00     0.121 A 
HETATM    8  S   UNK N   1      35.320  14.338   9.190  0.00  0.00    -0.063 SA
BRANCH   7   9
HETATM    9  S   UNK N   1      36.075  13.853  12.268  0.00  0.00     0.263 S 
HETATM   10  O   UNK N   1      35.173  13.719  13.503  0.00  0.00    -0.200 OA
HETATM   11  O   UNK N   1      35.947  15.319  12.705  0.00  0.00    -0.200 OA
BRANCH   9  12
HETATM   12  N   UNK N   1      34.517  13.276  11.663  0.00  0.00    -0.324 N 
HETATM   13  H   UNK N   1      34.106  13.626  10.798  0.00  0.00     0.169 HD
HETATM   14  H   UNK N   1      34.011  12.569  12.198  0.00  0.00     0.169 HD
ENDBRANCH   9  12
ENDBRANCH   7   9
ENDBRANCH   1   4
BRANCH   1  15
HETATM   15  N   UNK N   1      33.059  15.388   6.122  0.00  0.00    -0.311 N 
HETATM   16  H   UNK N   1      32.880  15.260   5.127  0.00  0.00     0.172 HD
BRANCH  15  17
HETATM   17  C   UNK N   1      32.156  15.024   7.205  0.00  0.00     0.170 C 
BRANCH  17  18
HETATM   18  C   UNK N   1      31.137  16.095   7.384  0.00  0.00    -0.040 A 
HETATM   19  C   UNK N   1      31.093  16.834   8.573  0.00  0.00     0.009 A 
HETATM   20  C   UNK N   1      30.127  17.827   8.746  0.00  0.00     0.007 A 
HETATM   21  C   UNK N   1      29.201  18.088   7.730  0.00  0.00    -0.062 A 
HETATM   22  C   UNK N   1      29.247  17.354   6.539  0.00  0.00     0.007 A 
HETATM   23  C   UNK N   1      28.171  19.141   7.916  0.00  0.00     0.048 C 
HETATM   24  C   UNK N   1      30.213  16.360   6.366  0.00  0.00     0.009 A 
ENDBRANCH  17  18
ENDBRANCH  15  17
ENDBRANCH   1  15
TORSDOF 6
ENDMDL
MODEL 6
REMARK VINA RESULT:      -6.2     11.449     14.210
REMARK  6 active torsions:
REMARK  status: ('A' for Active; 'I' for Inactive)
REMARK    1  A    between atoms: C_1  and  S_13 
REMARK    2  A    between atoms: C_2  and  C_3 
REMARK    3  A    between atoms: C_2  and  N_21 
REMARK    4  A    between atoms: N_12  and  S_13 
REMARK    5  A    between atoms: C_16  and  S_18 
REMARK    6  A    between atoms: S_18  and  N_21 
ROOT
HETATM    1  S   UNK N   1      27.049  18.651   4.750  0.00  0.00     0.265 S 
HETATM    2  O   UNK N   1      28.119  19.730   4.528  0.00  0.00    -0.200 OA
HETATM    3  O   UNK N   1      27.650  17.447   4.005  0.00  0.00    -0.200 OA
ENDROOT
BRANCH   1   4
HETATM    4  C   UNK N   1      25.450  19.123   4.114  0.00  0.00     0.121 A 
HETATM    5  C   UNK N   1      25.163  20.244   3.330  0.00  0.00     0.035 A 
HETATM    6  C   UNK N   1      23.772  20.391   3.050  0.00  0.00     0.035 A 
HETATM    7  C   UNK N   1      22.975  19.389   3.627  0.00  0.00     0.121 A 
HETATM    8  S   UNK N   1      24.030  18.352   4.441  0.00  0.00    -0.063 SA
BRANCH   7   9
HETATM    9  S   UNK N   1      21.142  19.343   3.463  0.00  0.00     0.263 S 
HETATM   10  O   UNK N   1      20.295  20.564   3.850  0.00  0.00    -0.200 OA
HETATM   11  O   UNK N   1      21.461  19.467   4.959  0.00  0.00    -0.200 OA
BRANCH   9  12
HETATM   12  N   UNK N   1      21.847  20.712   2.591  0.00  0.00    -0.324 N 
HETATM   13  H   UNK N   1      21.338  21.211   1.862  0.00  0.00     0.169 HD
HETATM   14  H   UNK N   1      22.794  21.011   2.825  0.00  0.00     0.169 HD
ENDBRANCH   9  12
ENDBRANCH   7   9
ENDBRANCH   1   4
BRANCH   1  15
HETATM   15  N   UNK N   1      27.156  18.260   6.472  0.00  0.00    -0.311 N 
HETATM   16  H   UNK N   1      26.797  18.832   7.237  0.00  0.00     0.172 HD
BRANCH  15  17
HETATM   17  C   UNK N   1      27.842  16.984   6.612  0.00  0.00     0.170 C 
BRANCH  17  18
HETATM   18  C   UNK N   1      29.238  17.217   7.071  0.00  0.00    -0.040 A 
HETATM   19  C   UNK N   1      29.482  17.846   8.298  0.00  0.00     0.009 A 
HETATM   20  C   UNK N   1      30.793  18.077   8.720  0.00  0.00     0.007 A 
HETATM   21  C   UNK N   1      31.867  17.679   7.916  0.00  0.00    -0.062 A 
HETATM   22  C   UNK N   1      31.626  17.046   6.692  0.00  0.00     0.007 A 
HETATM   23  C   UNK N   1      33.261  17.930   8.364  0.00  0.00     0.048 C 
HETATM   24  C   UNK N   1      30.314  16.815   6.271  0.00  0.00     0.009 A 
ENDBRANCH  17  18
ENDBRANCH  15  17
ENDBRANCH   1  15
TORSDOF 6
ENDMDL
MODEL 7
REMARK VINA RESULT:      -6.1     19.748     23.226
REMARK  6 active torsions:
REMARK  status: ('A' for Active; 'I' for Inactive)
REMARK    1  A    between atoms: C_1  and  S_13 
REMARK    2  A    between atoms: C_2  and  C_3 
REMARK    3  A    between atoms: C_2  and  N_21 
REMARK    4  A    between atoms: N_12  and  S_13 
REMARK    5  A    between atoms: C_16  and  S_18 
REMARK    6  A    between atoms: S_18  and  N_21 
ROOT
HETATM    1  S   UNK N   1      35.784  12.762  11.964  0.00  0.00     0.265 S 
HETATM    2  O   UNK N   1      36.936  13.340  12.797  0.00  0.00    -0.200 OA
HETATM    3  O   UNK N   1      36.397  11.456  11.432  0.00  0.00    -0.200 OA
ENDROOT
BRANCH   1   4
HETATM    4  C   UNK N   1      35.261  13.857  10.655  0.00  0.00     0.121 A 
HETATM    5  C   UNK N   1      35.410  13.644   9.282  0.00  0.00     0.035 A 
HETATM    6  C   UNK N   1      34.964  14.745   8.492  0.00  0.00     0.035 A 
HETATM    7  C   UNK N   1      34.479  15.821   9.253  0.00  0.00     0.121 A 
HETATM    8  S   UNK N   1      34.603  15.352  10.871  0.00  0.00    -0.063 SA
BRANCH   7   9
HETATM    9  S   UNK N   1      33.870  17.388   8.505  0.00  0.00     0.263 S 
HETATM   10  O   UNK N   1      34.742  18.165   7.506  0.00  0.00    -0.200 OA
HETATM   11  O   UNK N   1      35.083  17.743   9.377  0.00  0.00    -0.200 OA
BRANCH   9  12
HETATM   12  N   UNK N   1      34.350  16.214   7.272  0.00  0.00    -0.324 N 
HETATM   13  H   UNK N   1      35.318  15.913   7.156  0.00  0.00     0.169 HD
HETATM   14  H   UNK N   1      33.635  15.824   6.657  0.00  0.00     0.169 HD
ENDBRANCH   9  12
ENDBRANCH   7   9
ENDBRANCH   1   4
BRANCH   1  15
HETATM   15  N   UNK N   1      34.566  12.279  13.154  0.00  0.00    -0.311 N 
HETATM   16  H   UNK N   1      33.646  12.703  13.272  0.00  0.00     0.172 HD
BRANCH  15  17
HETATM   17  C   UNK N   1      35.101  11.174  13.936  0.00  0.00     0.170 C 
BRANCH  17  18
HETATM   18  C   UNK N   1      35.138  11.554  15.374  0.00  0.00    -0.040 A 
HETATM   19  C   UNK N   1      34.903  12.880  15.760  0.00  0.00     0.009 A 
HETATM   20  C   UNK N   1      34.954  13.237  17.109  0.00  0.00     0.007 A 
HETATM   21  C   UNK N   1      35.237  12.270  18.079  0.00  0.00    -0.062 A 
HETATM   22  C   UNK N   1      35.467  10.943  17.697  0.00  0.00     0.007 A 
HETATM   23  C   UNK N   1      35.295  12.652  19.513  0.00  0.00     0.048 C 
HETATM   24  C   UNK N   1      35.417  10.586  16.347  0.00  0.00     0.009 A 
ENDBRANCH  17  18
ENDBRANCH  15  17
ENDBRANCH   1  15
TORSDOF 6
ENDMDL
MODEL 8
REMARK VINA RESULT:      -5.9     12.425     13.835
REMARK  6 active torsions:
REMARK  status: ('A' for Active; 'I' for Inactive)
REMARK    1  A    between atoms: C_1  and  S_13 
REMARK    2  A    between atoms: C_2  and  C_3 
REMARK    3  A    between atoms: C_2  and  N_21 
REMARK    4  A    between atoms: N_12  and  S_13 
REMARK    5  A    between atoms: C_16  and  S_18 
REMARK    6  A    between atoms: S_18  and  N_21 
ROOT
HETATM    1  S   UNK N   1      29.619  14.635   4.758  0.00  0.00     0.265 S 
HETATM    2  O   UNK N   1      29.830  13.160   5.129  0.00  0.00    -0.200 OA
HETATM    3  O   UNK N   1      29.634  14.584   3.222  0.00  0.00    -0.200 OA
ENDROOT
BRANCH   1   4
HETATM    4  C   UNK N   1      30.886  15.703   5.421  0.00  0.00     0.121 A 
HETATM    5  C   UNK N   1      31.340  16.902   4.865  0.00  0.00     0.035 A 
HETATM    6  C   UNK N   1      32.423  17.482   5.590  0.00  0.00     0.035 A 
HETATM    7  C   UNK N   1      32.820  16.727   6.705  0.00  0.00     0.121 A 
HETATM    8  S   UNK N   1      31.798  15.383   6.757  0.00  0.00    -0.063 SA
BRANCH   7   9
HETATM    9  S   UNK N   1      34.214  17.212   7.805  0.00  0.00     0.263 S 
HETATM   10  O   UNK N   1      34.603  18.690   7.962  0.00  0.00    -0.200 OA
HETATM   11  O   UNK N   1      34.624  17.569   6.369  0.00  0.00    -0.200 OA
BRANCH   9  12
HETATM   12  N   UNK N   1      32.719  18.061   8.222  0.00  0.00    -0.324 N 
HETATM   13  H   UNK N   1      32.721  18.958   8.707  0.00  0.00     0.169 HD
HETATM   14  H   UNK N   1      31.825  17.639   7.970  0.00  0.00     0.169 HD
ENDBRANCH   9  12
ENDBRANCH   7   9
ENDBRANCH   1   4
BRANCH   1  15
HETATM   15  N   UNK N   1      27.945  14.979   5.218  0.00  0.00    -0.311 N 
HETATM   16  H   UNK N   1      27.462  14.605   6.034  0.00  0.00     0.172 HD
BRANCH  15  17
HETATM   17  C   UNK N   1      27.375  15.886   4.232  0.00  0.00     0.170 C 
BRANCH  17  18
HETATM   18  C   UNK N   1      27.438  17.282   4.744  0.00  0.00    -0.040 A 
HETATM   19  C   UNK N   1      27.281  18.363   3.868  0.00  0.00     0.009 A 
HETATM   20  C   UNK N   1      27.355  19.672   4.349  0.00  0.00     0.007 A 
HETATM   21  C   UNK N   1      27.586  19.906   5.708  0.00  0.00    -0.062 A 
HETATM   22  C   UNK N   1      27.739  18.827   6.586  0.00  0.00     0.007 A 
HETATM   23  C   UNK N   1      27.670  21.299   6.217  0.00  0.00     0.048 C 
HETATM   24  C   UNK N   1      27.664  17.518   6.106  0.00  0.00     0.009 A 
ENDBRANCH  17  18
ENDBRANCH  15  17
ENDBRANCH   1  15
TORSDOF 6
ENDMDL
MODEL 9
REMARK VINA RESULT:      -5.9      1.778      2.453
REMARK  6 active torsions:
REMARK  status: ('A' for Active; 'I' for Inactive)
REMARK    1  A    between atoms: C_1  and  S_13 
REMARK    2  A    between atoms: C_2  and  C_3 
REMARK    3  A    between atoms: C_2  and  N_21 
REMARK    4  A    between atoms: N_12  and  S_13 
REMARK    5  A    between atoms: C_16  and  S_18 
REMARK    6  A    between atoms: S_18  and  N_21 
ROOT
HETATM    1  S   UNK N   1      27.842  23.203  -8.076  0.00  0.00     0.265 S 
HETATM    2  O   UNK N   1      27.867  22.173  -9.214  0.00  0.00    -0.200 OA
HETATM    3  O   UNK N   1      28.275  24.489  -8.799  0.00  0.00    -0.200 OA
ENDROOT
BRANCH   1   4
HETATM    4  C   UNK N   1      28.931  22.773  -6.730  0.00  0.00     0.121 A 
HETATM    5  C   UNK N   1      29.326  21.485  -6.357  0.00  0.00     0.035 A 
HETATM    6  C   UNK N   1      30.138  21.465  -5.184  0.00  0.00     0.035 A 
HETATM    7  C   UNK N   1      30.366  22.738  -4.637  0.00  0.00     0.121 A 
HETATM    8  S   UNK N   1      29.569  23.836  -5.643  0.00  0.00    -0.063 SA
BRANCH   7   9
HETATM    9  S   UNK N   1      31.348  23.014  -3.106  0.00  0.00     0.263 S 
HETATM   10  O   UNK N   1      30.687  22.896  -1.725  0.00  0.00    -0.200 OA
HETATM   11  O   UNK N   1      30.299  24.132  -3.179  0.00  0.00    -0.200 OA
BRANCH   9  12
HETATM   12  N   UNK N   1      30.539  21.441  -3.094  0.00  0.00    -0.324 N 
HETATM   13  H   UNK N   1      29.778  21.227  -2.450  0.00  0.00     0.169 HD
HETATM   14  H   UNK N   1      30.844  20.725  -3.753  0.00  0.00     0.169 HD
ENDBRANCH   9  12
ENDBRANCH   7   9
ENDBRANCH   1   4
BRANCH   1  15
HETATM   15  N   UNK N   1      26.126  23.412  -7.697  0.00  0.00    -0.311 N 
HETATM   16  H   UNK N   1      25.386  23.606  -8.371  0.00  0.00     0.172 HD
BRANCH  15  17
HETATM   17  C   UNK N   1      25.951  23.262  -6.260  0.00  0.00     0.170 C 
BRANCH  17  18
HETATM   18  C   UNK N   1      25.935  24.605  -5.617  0.00  0.00    -0.040 A 
HETATM   19  C   UNK N   1      26.343  24.755  -4.286  0.00  0.00     0.009 A 
HETATM   20  C   UNK N   1      26.312  26.013  -3.681  0.00  0.00     0.007 A 
HETATM   21  C   UNK N   1      25.874  27.127  -4.404  0.00  0.00    -0.062 A 
HETATM   22  C   UNK N   1      25.471  26.980  -5.736  0.00  0.00     0.007 A 
HETATM   23  C   UNK N   1      25.838  28.464  -3.758  0.00  0.00     0.048 C 
HETATM   24  C   UNK N   1      25.501  25.722  -6.342  0.00  0.00     0.009 A 
ENDBRANCH  17  18
ENDBRANCH  15  17
ENDBRANCH   1  15
TORSDOF 6
ENDMDL
