MODEL 1
REMARK VINA RESULT:      -6.8      0.000      0.000
REMARK  5 active torsions:
REMARK  status: ('A' for Active; 'I' for Inactive)
REMARK    1  A    between atoms: O_1  and  C_2 
REMARK    2  A    between atoms: C_5  and  C_8 
REMARK    3  A    between atoms: C_18  and  C_19 
REMARK    4  A    between atoms: C_19  and  C_20 
REMARK    5  A    between atoms: C_20  and  C_21 
ROOT
HETATM    1  C   UNK N   1      35.492  12.965  15.323  0.00  0.00     0.052 A 
HETATM    2  N   UNK N   1      36.211  14.028  14.871  0.00  0.00    -0.339 N 
HETATM    3  C   UNK N   1      35.960  14.088  13.549  0.00  0.00     0.133 A 
HETATM    4  N   UNK N   1      36.461  14.993  12.674  0.00  0.00    -0.349 N 
ATOM      5  HN  UNK N   1      37.098  15.725  12.985  1.00  0.00     0.167 HD
HETATM    6  C   UNK N   1      35.110  13.104  13.154  0.00  0.00     0.085 A 
HETATM    7  N   UNK N   1      34.719  12.975  11.864  0.00  0.00    -0.361 N 
ATOM      8  HN  UNK N   1      34.081  12.231  11.582  1.00  0.00     0.165 HD
HETATM    9  C   UNK N   1      35.204  13.868  10.948  0.00  0.00     0.105 A 
HETATM   10  C   UNK N   1      36.091  14.895  11.360  0.00  0.00     0.106 A 
HETATM   11  C   UNK N   1      34.789  12.365  14.268  0.00  0.00    -0.000 A 
HETATM   12  H   UNK N   1      36.791  14.625  15.396  0.00  0.00     0.167 HD
ENDROOT
BRANCH   1  13
HETATM   13  C   UNK N   1      35.477  12.535  16.740  0.00  0.00    -0.009 A 
HETATM   14  C   UNK N   1      35.135  13.442  17.753  0.00  0.00     0.016 A 
HETATM   15  C   UNK N   1      35.123  13.031  19.091  0.00  0.00     0.037 A 
HETATM   16  C   UNK N   1      35.454  11.713  19.423  0.00  0.00     0.065 A 
HETATM   17  C   UNK N   1      35.796  10.806  18.422  0.00  0.00     0.037 A 
HETATM   18  C   UNK N   1      35.807  11.216  17.090  0.00  0.00     0.016 A 
BRANCH  16  19
HETATM   19  O   UNK N   1      35.443  11.317  20.707  0.00  0.00    -0.361 OA
HETATM   20  H   UNK N   1      34.628  11.231  21.163  0.00  0.00     0.217 HD
ENDBRANCH  16  19
ENDBRANCH   1  13
BRANCH  11  21
HETATM   21  C   UNK N   1      33.891  11.168  14.387  0.00  0.00     0.043 C 
BRANCH  21  22
HETATM   22  C   UNK N   1      34.234   9.999  13.493  0.00  0.00     0.004 C 
BRANCH  22  23
HETATM   23  C   UNK N   1      35.674   9.622  13.770  0.00  0.00    -0.004 C 
HETATM   24  C   UNK N   1      35.722   8.418  14.682  0.00  0.00     0.005 C 
ENDBRANCH  22  23
ENDBRANCH  21  22
ENDBRANCH  11  21
TORSDOF 5
ENDMDL
MODEL 2
REMARK VINA RESULT:      -6.5      6.978     10.496
REMARK  5 active torsions:
REMARK  status: ('A' for Active; 'I' for Inactive)
REMARK    1  A    between atoms: O_1  and  C_2 
REMARK    2  A    between atoms: C_5  and  C_8 
REMARK    3  A    between atoms: C_18  and  C_19 
REMARK    4  A    between atoms: C_19  and  C_20 
REMARK    5  A    between atoms: C_20  and  C_21 
ROOT
HETATM    1  C   UNK N   1      31.945  16.409   8.639  0.00  0.00     0.052 A 
HETATM    2  N   UNK N   1      31.953  15.472   9.626  0.00  0.00    -0.339 N 
HETATM    3  C   UNK N   1      33.239  15.089   9.739  0.00  0.00     0.133 A 
HETATM    4  N   UNK N   1      33.733  14.167  10.600  0.00  0.00    -0.349 N 
ATOM      5  HN  UNK N   1      33.121  13.680  11.252  1.00  0.00     0.167 HD
HETATM    6  C   UNK N   1      34.039  15.750   8.861  0.00  0.00     0.085 A 
HETATM    7  N   UNK N   1      35.373  15.522   8.800  0.00  0.00    -0.361 N 
ATOM      8  HN  UNK N   1      35.960  16.025   8.135  1.00  0.00     0.165 HD
HETATM    9  C   UNK N   1      35.910  14.598   9.652  0.00  0.00     0.105 A 
HETATM   10  C   UNK N   1      35.076  13.908  10.568  0.00  0.00     0.106 A 
HETATM   11  C   UNK N   1      33.240  16.606   8.139  0.00  0.00    -0.000 A 
HETATM   12  H   UNK N   1      31.185  15.144  10.146  0.00  0.00     0.167 HD
ENDROOT
BRANCH   1  13
HETATM   13  C   UNK N   1      30.718  17.104   8.185  0.00  0.00    -0.009 A 
HETATM   14  C   UNK N   1      30.170  18.145   8.948  0.00  0.00     0.016 A 
HETATM   15  C   UNK N   1      29.009  18.798   8.516  0.00  0.00     0.037 A 
HETATM   16  C   UNK N   1      28.391  18.414   7.321  0.00  0.00     0.065 A 
HETATM   17  C   UNK N   1      28.931  17.380   6.558  0.00  0.00     0.037 A 
HETATM   18  C   UNK N   1      30.086  16.731   6.989  0.00  0.00     0.016 A 
BRANCH  16  19
HETATM   19  O   UNK N   1      27.278  19.040   6.905  0.00  0.00    -0.361 OA
HETATM   20  H   UNK N   1      27.305  19.954   6.700  0.00  0.00     0.217 HD
ENDBRANCH  16  19
ENDBRANCH   1  13
BRANCH  11  21
HETATM   21  C   UNK N   1      33.618  17.562   7.045  0.00  0.00     0.043 C 
BRANCH  21  22
HETATM   22  C   UNK N   1      33.788  16.954   5.672  0.00  0.00     0.004 C 
BRANCH  22  23
HETATM   23  C   UNK N   1      32.811  17.645   4.745  0.00  0.00    -0.004 C 
HETATM   24  C   UNK N   1      32.791  16.944   3.406  0.00  0.00     0.005 C 
ENDBRANCH  22  23
ENDBRANCH  21  22
ENDBRANCH  11  21
TORSDOF 5
ENDMDL
MODEL 3
REMARK VINA RESULT:      -6.5     11.814     15.006
REMARK  5 active torsions:
REMARK  status: ('A' for Active; 'I' for Inactive)
REMARK    1  A    between atoms: O_1  and  C_2 
REMARK    2  A    between atoms: C_5  and  C_8 
REMARK    3  A    between atoms: C_18  and  C_19 
REMARK    4  A    between atoms: C_19  and  C_20 
REMARK    5  A    between atoms: C_20  and  C_21 
ROOT
HETATM    1  C   UNK N   1      27.423  18.900   6.057  0.00  0.00     0.052 A 
HETATM    2  N   UNK N   1      27.336  19.331   7.344  0.00  0.00    -0.339 N 
HETATM    3  C   UNK N   1      28.288  18.650   8.010  0.00  0.00     0.133 A 
HETATM    4  N   UNK N   1      28.577  18.750   9.330  0.00  0.00    -0.349 N 
ATOM      5  HN  UNK N   1      28.057  19.386   9.932  1.00  0.00     0.167 HD
HETATM    6  C   UNK N   1      28.969  17.807   7.189  0.00  0.00     0.085 A 
HETATM    7  N   UNK N   1      29.973  17.022   7.648  0.00  0.00    -0.361 N 
ATOM      8  HN  UNK N   1      30.475  16.394   7.020  1.00  0.00     0.165 HD
HETATM    9  C   UNK N   1      30.295  17.093   8.975  0.00  0.00     0.105 A 
HETATM   10  C   UNK N   1      29.585  17.972   9.831  0.00  0.00     0.106 A 
HETATM   11  C   UNK N   1      28.439  17.942   5.928  0.00  0.00    -0.000 A 
HETATM   12  H   UNK N   1      26.712  19.998   7.712  0.00  0.00     0.167 HD
ENDROOT
BRANCH   1  13
HETATM   13  C   UNK N   1      26.547  19.397   4.970  0.00  0.00    -0.009 A 
HETATM   14  C   UNK N   1      27.066  20.226   3.966  0.00  0.00     0.016 A 
HETATM   15  C   UNK N   1      26.235  20.695   2.941  0.00  0.00     0.037 A 
HETATM   16  C   UNK N   1      24.882  20.338   2.916  0.00  0.00     0.065 A 
HETATM   17  C   UNK N   1      24.360  19.514   3.912  0.00  0.00     0.037 A 
HETATM   18  C   UNK N   1      25.188  19.048   4.930  0.00  0.00     0.016 A 
BRANCH  16  19
HETATM   19  O   UNK N   1      24.084  20.786   1.934  0.00  0.00    -0.361 OA
HETATM   20  H   UNK N   1      23.349  20.275   1.658  0.00  0.00     0.217 HD
ENDBRANCH  16  19
ENDBRANCH   1  13
BRANCH  11  21
HETATM   21  C   UNK N   1      28.825  17.245   4.656  0.00  0.00     0.043 C 
BRANCH  21  22
HETATM   22  C   UNK N   1      28.033  16.000   4.325  0.00  0.00     0.004 C 
BRANCH  22  23
HETATM   23  C   UNK N   1      27.586  16.116   2.883  0.00  0.00    -0.004 C 
HETATM   24  C   UNK N   1      26.079  16.210   2.819  0.00  0.00     0.005 C 
ENDBRANCH  22  23
ENDBRANCH  21  22
ENDBRANCH  11  21
TORSDOF 5
ENDMDL
MODEL 4
REMARK VINA RESULT:      -6.1      7.349     10.555
REMARK  5 active torsions:
REMARK  status: ('A' for Active; 'I' for Inactive)
REMARK    1  A    between atoms: O_1  and  C_2 
REMARK    2  A    between atoms: C_5  and  C_8 
REMARK    3  A    between atoms: C_18  and  C_19 
REMARK    4  A    between atoms: C_19  and  C_20 
REMARK    5  A    between atoms: C_20  and  C_21 
ROOT
HETATM    1  C   UNK N   1      33.139  16.568   7.710  0.00  0.00     0.052 A 
HETATM    2  N   UNK N   1      33.370  17.288   8.841  0.00  0.00    -0.339 N 
HETATM    3  C   UNK N   1      34.373  16.647   9.470  0.00  0.00     0.133 A 
HETATM    4  N   UNK N   1      34.944  17.002  10.646  0.00  0.00    -0.349 N 
ATOM      5  HN  UNK N   1      34.627  17.827  11.154  1.00  0.00     0.167 HD
HETATM    6  C   UNK N   1      34.781  15.551   8.777  0.00  0.00     0.085 A 
HETATM    7  N   UNK N   1      35.781  14.756   9.226  0.00  0.00    -0.361 N 
ATOM      8  HN  UNK N   1      36.076  13.936   8.695  1.00  0.00     0.165 HD
HETATM    9  C   UNK N   1      36.383  15.079  10.410  0.00  0.00     0.105 A 
HETATM   10  C   UNK N   1      35.958  16.223  11.133  0.00  0.00     0.106 A 
HETATM   11  C   UNK N   1      34.010  15.471   7.642  0.00  0.00    -0.000 A 
HETATM   12  H   UNK N   1      32.904  18.103   9.137  0.00  0.00     0.167 HD
ENDROOT
BRANCH   1  13
HETATM   13  C   UNK N   1      32.103  16.925   6.713  0.00  0.00    -0.009 A 
HETATM   14  C   UNK N   1      32.471  17.304   5.414  0.00  0.00     0.016 A 
HETATM   15  C   UNK N   1      31.489  17.642   4.475  0.00  0.00     0.037 A 
HETATM   16  C   UNK N   1      30.136  17.604   4.830  0.00  0.00     0.065 A 
HETATM   17  C   UNK N   1      29.764  17.228   6.120  0.00  0.00     0.037 A 
HETATM   18  C   UNK N   1      30.742  16.892   7.053  0.00  0.00     0.016 A 
BRANCH  16  19
HETATM   19  O   UNK N   1      29.193  17.927   3.930  0.00  0.00    -0.361 OA
HETATM   20  H   UNK N   1      29.131  18.807   3.612  0.00  0.00     0.217 HD
ENDBRANCH  16  19
ENDBRANCH   1  13
BRANCH  11  21
HETATM   21  C   UNK N   1      34.048  14.454   6.538  0.00  0.00     0.043 C 
BRANCH  21  22
HETATM   22  C   UNK N   1      32.865  13.515   6.470  0.00  0.00     0.004 C 
BRANCH  22  23
HETATM   23  C   UNK N   1      32.342  13.547   5.050  0.00  0.00    -0.004 C 
HETATM   24  C   UNK N   1      30.846  13.766   5.060  0.00  0.00     0.005 C 
ENDBRANCH  22  23
ENDBRANCH  21  22
ENDBRANCH  11  21
TORSDOF 5
ENDMDL
MODEL 5
REMARK VINA RESULT:      -6.0      8.236     10.977
REMARK  5 active torsions:
REMARK  status: ('A' for Active; 'I' for Inactive)
REMARK    1  A    between atoms: O_1  and  C_2 
REMARK    2  A    between atoms: C_5  and  C_8 
REMARK    3  A    between atoms: C_18  and  C_19 
REMARK    4  A    between atoms: C_19  and  C_20 
REMARK    5  A    between atoms: C_20  and  C_21 
ROOT
HETATM    1  C   UNK N   1      31.264  17.201   6.832  0.00  0.00     0.052 A 
HETATM    2  N   UNK N   1      29.985  17.212   7.297  0.00  0.00    -0.339 N 
HETATM    3  C   UNK N   1      29.211  17.305   6.199  0.00  0.00     0.133 A 
HETATM    4  N   UNK N   1      27.858  17.349   6.168  0.00  0.00    -0.349 N 
ATOM      5  HN  UNK N   1      27.313  17.313   7.028  1.00  0.00     0.167 HD
HETATM    6  C   UNK N   1      29.956  17.352   5.062  0.00  0.00     0.085 A 
HETATM    7  N   UNK N   1      29.383  17.445   3.838  0.00  0.00    -0.361 N 
ATOM      8  HN  UNK N   1      29.955  17.480   2.994  1.00  0.00     0.165 HD
HETATM    9  C   UNK N   1      28.018  17.493   3.764  0.00  0.00     0.105 A 
HETATM   10  C   UNK N   1      27.242  17.444   4.950  0.00  0.00     0.106 A 
HETATM   11  C   UNK N   1      31.278  17.287   5.433  0.00  0.00    -0.000 A 
HETATM   12  H   UNK N   1      29.688  17.164   8.234  0.00  0.00     0.167 HD
ENDROOT
BRANCH   1  13
HETATM   13  C   UNK N   1      32.451  17.108   7.715  0.00  0.00    -0.009 A 
HETATM   14  C   UNK N   1      33.406  18.134   7.727  0.00  0.00     0.016 A 
HETATM   15  C   UNK N   1      34.527  18.042   8.562  0.00  0.00     0.037 A 
HETATM   16  C   UNK N   1      34.697  16.925   9.387  0.00  0.00     0.065 A 
HETATM   17  C   UNK N   1      33.750  15.902   9.380  0.00  0.00     0.037 A 
HETATM   18  C   UNK N   1      32.636  15.995   8.549  0.00  0.00     0.016 A 
BRANCH  16  19
HETATM   19  O   UNK N   1      35.770  16.836  10.189  0.00  0.00    -0.361 OA
HETATM   20  H   UNK N   1      35.678  16.499  11.059  0.00  0.00     0.217 HD
ENDBRANCH  16  19
ENDBRANCH   1  13
BRANCH  11  21
HETATM   21  C   UNK N   1      32.508  17.301   4.571  0.00  0.00     0.043 C 
BRANCH  21  22
HETATM   22  C   UNK N   1      32.765  16.042   3.774  0.00  0.00     0.004 C 
BRANCH  22  23
HETATM   23  C   UNK N   1      33.285  14.995   4.736  0.00  0.00    -0.004 C 
HETATM   24  C   UNK N   1      34.601  15.448   5.324  0.00  0.00     0.005 C 
ENDBRANCH  22  23
ENDBRANCH  21  22
ENDBRANCH  11  21
TORSDOF 5
ENDMDL
MODEL 6
REMARK VINA RESULT:      -6.0     25.690     27.420
REMARK  5 active torsions:
REMARK  status: ('A' for Active; 'I' for Inactive)
REMARK    1  A    between atoms: O_1  and  C_2 
REMARK    2  A    between atoms: C_5  and  C_8 
REMARK    3  A    between atoms: C_18  and  C_19 
REMARK    4  A    between atoms: C_19  and  C_20 
REMARK    5  A    between atoms: C_20  and  C_21 
ROOT
HETATM    1  C   UNK N   1      25.846  24.632  -6.594  0.00  0.00     0.052 A 
HETATM    2  N   UNK N   1      25.434  23.378  -6.264  0.00  0.00    -0.339 N 
HETATM    3  C   UNK N   1      25.578  22.651  -7.389  0.00  0.00     0.133 A 
HETATM    4  N   UNK N   1      25.291  21.336  -7.541  0.00  0.00    -0.349 N 
ATOM      5  HN  UNK N   1      24.926  20.787  -6.763  1.00  0.00     0.167 HD
HETATM    6  C   UNK N   1      26.064  23.401  -8.412  0.00  0.00     0.085 A 
HETATM    7  N   UNK N   1      26.288  22.873  -9.639  0.00  0.00    -0.361 N 
ATOM      8  HN  UNK N   1      26.653  23.449 -10.399  1.00  0.00     0.165 HD
HETATM    9  C   UNK N   1      26.010  21.548  -9.834  0.00  0.00     0.105 A 
HETATM   10  C   UNK N   1      25.503  20.766  -8.766  0.00  0.00     0.106 A 
HETATM   11  C   UNK N   1      26.248  24.678  -7.937  0.00  0.00    -0.000 A 
HETATM   12  H   UNK N   1      25.102  23.068  -5.391  0.00  0.00     0.167 HD
ENDROOT
BRANCH   1  13
HETATM   13  C   UNK N   1      25.854  25.765  -5.639  0.00  0.00    -0.009 A 
HETATM   14  C   UNK N   1      26.761  25.783  -4.570  0.00  0.00     0.016 A 
HETATM   15  C   UNK N   1      26.765  26.855  -3.669  0.00  0.00     0.037 A 
HETATM   16  C   UNK N   1      25.864  27.912  -3.833  0.00  0.00     0.065 A 
HETATM   17  C   UNK N   1      24.960  27.900  -4.894  0.00  0.00     0.037 A 
HETATM   18  C   UNK N   1      24.957  26.833  -5.790  0.00  0.00     0.016 A 
BRANCH  16  19
HETATM   19  O   UNK N   1      25.867  28.942  -2.970  0.00  0.00    -0.361 OA
HETATM   20  H   UNK N   1      26.344  28.877  -2.166  0.00  0.00     0.217 HD
ENDBRANCH  16  19
ENDBRANCH   1  13
BRANCH  11  21
HETATM   21  C   UNK N   1      26.762  25.894  -8.653  0.00  0.00     0.043 C 
BRANCH  21  22
HETATM   22  C   UNK N   1      28.201  26.261  -8.370  0.00  0.00     0.004 C 
BRANCH  22  23
HETATM   23  C   UNK N   1      28.314  27.767  -8.479  0.00  0.00    -0.004 C 
HETATM   24  C   UNK N   1      28.009  28.402  -7.142  0.00  0.00     0.005 C 
ENDBRANCH  22  23
ENDBRANCH  21  22
ENDBRANCH  11  21
TORSDOF 5
ENDMDL
MODEL 7
REMARK VINA RESULT:      -6.0     11.057     13.877
REMARK  5 active torsions:
REMARK  status: ('A' for Active; 'I' for Inactive)
REMARK    1  A    between atoms: O_1  and  C_2 
REMARK    2  A    between atoms: C_5  and  C_8 
REMARK    3  A    between atoms: C_18  and  C_19 
REMARK    4  A    between atoms: C_19  and  C_20 
REMARK    5  A    between atoms: C_20  and  C_21 
ROOT
HETATM    1  C   UNK N   1      29.654  16.648   4.340  0.00  0.00     0.052 A 
HETATM    2  N   UNK N   1      29.419  15.471   3.699  0.00  0.00    -0.339 N 
HETATM    3  C   UNK N   1      28.150  15.557   3.257  0.00  0.00     0.133 A 
HETATM    4  N   UNK N   1      27.474  14.614   2.558  0.00  0.00    -0.349 N 
ATOM      5  HN  UNK N   1      27.915  13.729   2.311  1.00  0.00     0.167 HD
HETATM    6  C   UNK N   1      27.579  16.743   3.596  0.00  0.00     0.085 A 
HETATM    7  N   UNK N   1      26.304  17.045   3.253  0.00  0.00    -0.361 N 
ATOM      8  HN  UNK N   1      25.889  17.939   3.515  1.00  0.00     0.165 HD
HETATM    9  C   UNK N   1      25.587  16.118   2.547  0.00  0.00     0.105 A 
HETATM   10  C   UNK N   1      26.183  14.881   2.193  0.00  0.00     0.106 A 
HETATM   11  C   UNK N   1      28.517  17.468   4.292  0.00  0.00    -0.000 A 
HETATM   12  H   UNK N   1      30.042  14.718   3.583  0.00  0.00     0.167 HD
ENDROOT
BRANCH   1  13
HETATM   13  C   UNK N   1      30.945  16.980   4.986  0.00  0.00    -0.009 A 
HETATM   14  C   UNK N   1      32.043  17.378   4.210  0.00  0.00     0.016 A 
HETATM   15  C   UNK N   1      33.262  17.690   4.824  0.00  0.00     0.037 A 
HETATM   16  C   UNK N   1      33.389  17.606   6.215  0.00  0.00     0.065 A 
HETATM   17  C   UNK N   1      32.301  17.211   6.992  0.00  0.00     0.037 A 
HETATM   18  C   UNK N   1      31.089  16.900   6.380  0.00  0.00     0.016 A 
BRANCH  16  19
HETATM   19  O   UNK N   1      34.557  17.906   6.806  0.00  0.00    -0.361 OA
HETATM   20  H   UNK N   1      35.323  18.048   6.284  0.00  0.00     0.217 HD
ENDBRANCH  16  19
ENDBRANCH   1  13
BRANCH  11  21
HETATM   21  C   UNK N   1      28.404  18.839   4.892  0.00  0.00     0.043 C 
BRANCH  21  22
HETATM   22  C   UNK N   1      27.936  18.890   6.328  0.00  0.00     0.004 C 
BRANCH  22  23
HETATM   23  C   UNK N   1      27.561  20.325   6.633  0.00  0.00    -0.004 C 
HETATM   24  C   UNK N   1      27.069  21.004   5.376  0.00  0.00     0.005 C 
ENDBRANCH  22  23
ENDBRANCH  21  22
ENDBRANCH  11  21
TORSDOF 5
ENDMDL
MODEL 8
REMARK VINA RESULT:      -6.0     24.105     26.108
REMARK  5 active torsions:
REMARK  status: ('A' for Active; 'I' for Inactive)
REMARK    1  A    between atoms: O_1  and  C_2 
REMARK    2  A    between atoms: C_5  and  C_8 
REMARK    3  A    between atoms: C_18  and  C_19 
REMARK    4  A    between atoms: C_19  and  C_20 
REMARK    5  A    between atoms: C_20  and  C_21 
ROOT
HETATM    1  C   UNK N   1      26.361  24.714  -6.000  0.00  0.00     0.052 A 
HETATM    2  N   UNK N   1      25.258  24.129  -6.542  0.00  0.00    -0.339 N 
HETATM    3  C   UNK N   1      25.712  23.016  -7.149  0.00  0.00     0.133 A 
HETATM    4  N   UNK N   1      24.970  22.108  -7.829  0.00  0.00    -0.349 N 
ATOM      5  HN  UNK N   1      23.962  22.224  -7.925  1.00  0.00     0.167 HD
HETATM    6  C   UNK N   1      27.057  22.880  -7.010  0.00  0.00     0.085 A 
HETATM    7  N   UNK N   1      27.727  21.830  -7.542  0.00  0.00    -0.361 N 
ATOM      8  HN  UNK N   1      28.737  21.742  -7.429  1.00  0.00     0.165 HD
HETATM    9  C   UNK N   1      27.014  20.892  -8.237  0.00  0.00     0.105 A 
HETATM   10  C   UNK N   1      25.610  21.034  -8.382  0.00  0.00     0.106 A 
HETATM   11  C   UNK N   1      27.506  23.953  -6.277  0.00  0.00    -0.000 A 
HETATM   12  H   UNK N   1      24.329  24.449  -6.500  0.00  0.00     0.167 HD
ENDROOT
BRANCH   1  13
HETATM   13  C   UNK N   1      26.316  25.979  -5.231  0.00  0.00    -0.009 A 
HETATM   14  C   UNK N   1      26.355  27.214  -5.894  0.00  0.00     0.016 A 
HETATM   15  C   UNK N   1      26.314  28.407  -5.163  0.00  0.00     0.037 A 
HETATM   16  C   UNK N   1      26.233  28.372  -3.767  0.00  0.00     0.065 A 
HETATM   17  C   UNK N   1      26.194  27.148  -3.101  0.00  0.00     0.037 A 
HETATM   18  C   UNK N   1      26.235  25.962  -3.830  0.00  0.00     0.016 A 
BRANCH  16  19
HETATM   19  O   UNK N   1      26.192  29.516  -3.065  0.00  0.00    -0.361 OA
HETATM   20  H   UNK N   1      26.621  29.570  -2.233  0.00  0.00     0.217 HD
ENDBRANCH  16  19
ENDBRANCH   1  13
BRANCH  11  21
HETATM   21  C   UNK N   1      28.903  24.288  -5.839  0.00  0.00     0.043 C 
BRANCH  21  22
HETATM   22  C   UNK N   1      29.319  23.735  -4.496  0.00  0.00     0.004 C 
BRANCH  22  23
HETATM   23  C   UNK N   1      29.853  24.890  -3.675  0.00  0.00    -0.004 C 
HETATM   24  C   UNK N   1      29.946  26.129  -4.535  0.00  0.00     0.005 C 
ENDBRANCH  22  23
ENDBRANCH  21  22
ENDBRANCH  11  21
TORSDOF 5
ENDMDL
MODEL 9
REMARK VINA RESULT:      -5.9      8.467     11.010
REMARK  5 active torsions:
REMARK  status: ('A' for Active; 'I' for Inactive)
REMARK    1  A    between atoms: O_1  and  C_2 
REMARK    2  A    between atoms: C_5  and  C_8 
REMARK    3  A    between atoms: C_18  and  C_19 
REMARK    4  A    between atoms: C_19  and  C_20 
REMARK    5  A    between atoms: C_20  and  C_21 
ROOT
HETATM    1  C   UNK N   1      31.562  16.707   6.251  0.00  0.00     0.052 A 
HETATM    2  N   UNK N   1      31.844  16.420   4.952  0.00  0.00    -0.339 N 
HETATM    3  C   UNK N   1      30.648  16.345   4.338  0.00  0.00     0.133 A 
HETATM    4  N   UNK N   1      30.430  16.079   3.028  0.00  0.00    -0.349 N 
ATOM      5  HN  UNK N   1      31.208  15.909   2.392  1.00  0.00     0.167 HD
HETATM    6  C   UNK N   1      29.625  16.573   5.203  0.00  0.00     0.085 A 
HETATM    7  N   UNK N   1      28.332  16.547   4.801  0.00  0.00    -0.361 N 
ATOM      8  HN  UNK N   1      27.574  16.719   5.461  1.00  0.00     0.165 HD
HETATM    9  C   UNK N   1      28.069  16.281   3.485  0.00  0.00     0.105 A 
HETATM   10  C   UNK N   1      29.137  16.042   2.583  0.00  0.00     0.106 A 
HETATM   11  C   UNK N   1      30.176  16.809   6.440  0.00  0.00    -0.000 A 
HETATM   12  H   UNK N   1      32.733  16.294   4.546  0.00  0.00     0.167 HD
ENDROOT
BRANCH   1  13
HETATM   13  C   UNK N   1      32.601  16.880   7.292  0.00  0.00    -0.009 A 
HETATM   14  C   UNK N   1      33.433  18.009   7.282  0.00  0.00     0.016 A 
HETATM   15  C   UNK N   1      34.415  18.168   8.268  0.00  0.00     0.037 A 
HETATM   16  C   UNK N   1      34.570  17.201   9.266  0.00  0.00     0.065 A 
HETATM   17  C   UNK N   1      33.747  16.076   9.282  0.00  0.00     0.037 A 
HETATM   18  C   UNK N   1      32.770  15.919   8.301  0.00  0.00     0.016 A 
BRANCH  16  19
HETATM   19  O   UNK N   1      35.511  17.353  10.212  0.00  0.00    -0.361 OA
HETATM   20  H   UNK N   1      35.609  18.178  10.647  0.00  0.00     0.217 HD
ENDBRANCH  16  19
ENDBRANCH   1  13
BRANCH  11  21
HETATM   21  C   UNK N   1      29.493  17.114   7.742  0.00  0.00     0.043 C 
BRANCH  21  22
HETATM   22  C   UNK N   1      29.577  18.551   8.205  0.00  0.00     0.004 C 
BRANCH  22  23
HETATM   23  C   UNK N   1      29.625  18.537   9.719  0.00  0.00    -0.004 C 
HETATM   24  C   UNK N   1      29.260  17.163  10.230  0.00  0.00     0.005 C 
ENDBRANCH  22  23
ENDBRANCH  21  22
ENDBRANCH  11  21
TORSDOF 5
ENDMDL
