MODEL 1
REMARK VINA RESULT:      -6.3      0.000      0.000
REMARK  5 active torsions:
REMARK  status: ('A' for Active; 'I' for Inactive)
REMARK    1  A    between atoms: C_2  and  N_1 
REMARK    2  A    between atoms: C_2  and  C_3 
REMARK    3  A    between atoms: C_2  and  C_5 
REMARK    4  A    between atoms: C_3  and  O_16 
REMARK    5  A    between atoms: C_5  and  C_6 
ROOT
HETATM    1  C   UNK N   1      30.858  17.466   8.017  0.00  0.00    -0.045 A 
HETATM    2  C   UNK N   1      30.541  18.311   9.091  0.00  0.00     0.008 A 
HETATM    3  C   UNK N   1      29.211  18.624   9.380  0.00  0.00     0.001 A 
HETATM    4  C   UNK N   1      29.817  16.925   7.233  0.00  0.00    -0.020 A 
HETATM    5  C   UNK N   1      28.470  17.236   7.543  0.00  0.00    -0.025 A 
HETATM    6  C   UNK N   1      28.176  18.084   8.612  0.00  0.00     0.012 A 
HETATM    7  C   UNK N   1      30.089  16.066   6.156  0.00  0.00     0.013 A 
HETATM    8  C   UNK N   1      29.043  15.522   5.403  0.00  0.00     0.001 A 
HETATM    9  C   UNK N   1      27.717  15.827   5.722  0.00  0.00     0.001 A 
HETATM   10  C   UNK N   1      27.430  16.683   6.789  0.00  0.00     0.012 A 
ENDROOT
BRANCH   1  11
HETATM   11  C   UNK N   1      32.294  17.097   7.746  0.00  0.00     0.074 C 
BRANCH  11  12
HETATM   12  C   UNK N   1      33.311  17.685   8.721  0.00  0.00     0.177 C 
BRANCH  12  13
HETATM   13  N   UNK N   1      33.835  16.631   9.582  0.00  0.00    -0.417 N 
HETATM   14  H   UNK N   1      34.749  16.711  10.027  0.00  0.00     0.150 HD
HETATM   15  H   UNK N   1      33.273  15.795   9.743  0.00  0.00     0.150 HD
ENDBRANCH  12  13
BRANCH  12  16
HETATM   16  C   UNK N   1      34.427  18.318   7.928  0.00  0.00     0.163 C 
HETATM   17  O   UNK N   1      35.206  19.094   8.444  0.00  0.00    -0.648 OA
BRANCH  16  18
HETATM   18  O   UNK N   1      34.559  18.015   6.617  0.00  0.00    -0.775 OA
HETATM   19  H   UNK N   1      35.353  18.202   6.158  0.00  0.00     0.167 HD
ENDBRANCH  16  18
ENDBRANCH  12  16
ENDBRANCH  11  12
ENDBRANCH   1  11
TORSDOF 5
ENDMDL
MODEL 2
REMARK VINA RESULT:      -6.2     10.142     11.720
REMARK  5 active torsions:
REMARK  status: ('A' for Active; 'I' for Inactive)
REMARK    1  A    between atoms: C_2  and  N_1 
REMARK    2  A    between atoms: C_2  and  C_3 
REMARK    3  A    between atoms: C_2  and  C_5 
REMARK    4  A    between atoms: C_3  and  O_16 
REMARK    5  A    between atoms: C_5  and  C_6 
ROOT
HETATM    1  C   UNK N   1      35.091  12.604  16.664  0.00  0.00    -0.045 A 
HETATM    2  C   UNK N   1      35.101  13.670  17.575  0.00  0.00     0.008 A 
HETATM    3  C   UNK N   1      35.207  13.430  18.948  0.00  0.00     0.001 A 
HETATM    4  C   UNK N   1      35.202  11.281  17.146  0.00  0.00    -0.020 A 
HETATM    5  C   UNK N   1      35.325  11.049  18.538  0.00  0.00    -0.025 A 
HETATM    6  C   UNK N   1      35.325  12.124  19.428  0.00  0.00     0.012 A 
HETATM    7  C   UNK N   1      35.208  10.186  16.267  0.00  0.00     0.013 A 
HETATM    8  C   UNK N   1      35.340   8.884  16.762  0.00  0.00     0.001 A 
HETATM    9  C   UNK N   1      35.470   8.665  18.136  0.00  0.00     0.001 A 
HETATM   10  C   UNK N   1      35.462   9.745  19.023  0.00  0.00     0.012 A 
ENDROOT
BRANCH   1  11
HETATM   11  C   UNK N   1      35.025  12.877  15.184  0.00  0.00     0.074 C 
BRANCH  11  12
HETATM   12  C   UNK N   1      36.166  13.725  14.627  0.00  0.00     0.177 C 
BRANCH  12  13
HETATM   13  N   UNK N   1      37.438  13.046  14.850  0.00  0.00    -0.417 N 
HETATM   14  H   UNK N   1      38.049  13.299  15.627  0.00  0.00     0.150 HD
HETATM   15  H   UNK N   1      37.722  12.300  14.215  0.00  0.00     0.150 HD
ENDBRANCH  12  13
BRANCH  12  16
HETATM   16  C   UNK N   1      35.935  13.936  13.152  0.00  0.00     0.163 C 
HETATM   17  O   UNK N   1      34.812  13.983  12.691  0.00  0.00    -0.648 OA
BRANCH  16  18
HETATM   18  O   UNK N   1      36.999  14.071  12.330  0.00  0.00    -0.775 OA
HETATM   19  H   UNK N   1      37.536  13.334  12.114  0.00  0.00     0.167 HD
ENDBRANCH  16  18
ENDBRANCH  12  16
ENDBRANCH  11  12
ENDBRANCH   1  11
TORSDOF 5
ENDMDL
MODEL 3
REMARK VINA RESULT:      -6.0     13.969     14.968
REMARK  5 active torsions:
REMARK  status: ('A' for Active; 'I' for Inactive)
REMARK    1  A    between atoms: C_2  and  N_1 
REMARK    2  A    between atoms: C_2  and  C_3 
REMARK    3  A    between atoms: C_2  and  C_5 
REMARK    4  A    between atoms: C_3  and  O_16 
REMARK    5  A    between atoms: C_5  and  C_6 
ROOT
HETATM    1  C   UNK N   1      27.221  24.316  -4.522  0.00  0.00    -0.045 A 
HETATM    2  C   UNK N   1      27.159  23.492  -5.656  0.00  0.00     0.008 A 
HETATM    3  C   UNK N   1      26.403  23.871  -6.768  0.00  0.00     0.001 A 
HETATM    4  C   UNK N   1      26.519  25.540  -4.517  0.00  0.00    -0.020 A 
HETATM    5  C   UNK N   1      25.767  25.923  -5.655  0.00  0.00    -0.025 A 
HETATM    6  C   UNK N   1      25.713  25.085  -6.771  0.00  0.00     0.012 A 
HETATM    7  C   UNK N   1      26.563  26.400  -3.407  0.00  0.00     0.013 A 
HETATM    8  C   UNK N   1      25.878  27.619  -3.429  0.00  0.00     0.001 A 
HETATM    9  C   UNK N   1      25.146  27.992  -4.560  0.00  0.00     0.001 A 
HETATM   10  C   UNK N   1      25.089  27.145  -5.671  0.00  0.00     0.012 A 
ENDROOT
BRANCH   1  11
HETATM   11  C   UNK N   1      28.080  23.920  -3.348  0.00  0.00     0.074 C 
BRANCH  11  12
HETATM   12  C   UNK N   1      29.571  23.784  -3.650  0.00  0.00     0.177 C 
BRANCH  12  13
HETATM   13  N   UNK N   1      30.232  25.069  -3.449  0.00  0.00    -0.417 N 
HETATM   14  H   UNK N   1      30.777  25.263  -2.609  0.00  0.00     0.150 HD
HETATM   15  H   UNK N   1      30.147  25.790  -4.165  0.00  0.00     0.150 HD
ENDBRANCH  12  13
BRANCH  12  16
HETATM   16  C   UNK N   1      30.155  22.743  -2.728  0.00  0.00     0.163 C 
HETATM   17  O   UNK N   1      30.440  21.634  -3.132  0.00  0.00    -0.648 OA
BRANCH  16  18
HETATM   18  O   UNK N   1      30.362  23.054  -1.429  0.00  0.00    -0.775 OA
HETATM   19  H   UNK N   1      31.186  23.393  -1.142  0.00  0.00     0.167 HD
ENDBRANCH  16  18
ENDBRANCH  12  16
ENDBRANCH  11  12
ENDBRANCH   1  11
TORSDOF 5
ENDMDL
MODEL 4
REMARK VINA RESULT:      -6.0      9.651     11.509
REMARK  5 active torsions:
REMARK  status: ('A' for Active; 'I' for Inactive)
REMARK    1  A    between atoms: C_2  and  N_1 
REMARK    2  A    between atoms: C_2  and  C_3 
REMARK    3  A    between atoms: C_2  and  C_5 
REMARK    4  A    between atoms: C_3  and  O_16 
REMARK    5  A    between atoms: C_5  and  C_6 
ROOT
HETATM    1  C   UNK N   1      34.925  11.488  15.420  0.00  0.00    -0.045 A 
HETATM    2  C   UNK N   1      34.997  10.129  15.083  0.00  0.00     0.008 A 
HETATM    3  C   UNK N   1      35.240   9.165  16.066  0.00  0.00     0.001 A 
HETATM    4  C   UNK N   1      35.090  11.876  16.768  0.00  0.00    -0.020 A 
HETATM    5  C   UNK N   1      35.321  10.891  17.759  0.00  0.00    -0.025 A 
HETATM    6  C   UNK N   1      35.396   9.544  17.401  0.00  0.00     0.012 A 
HETATM    7  C   UNK N   1      35.014  13.226  17.150  0.00  0.00     0.013 A 
HETATM    8  C   UNK N   1      35.159  13.589  18.493  0.00  0.00     0.001 A 
HETATM    9  C   UNK N   1      35.377  12.609  19.466  0.00  0.00     0.001 A 
HETATM   10  C   UNK N   1      35.459  11.263  19.100  0.00  0.00     0.012 A 
ENDROOT
BRANCH   1  11
HETATM   11  C   UNK N   1      34.614  12.513  14.360  0.00  0.00     0.074 C 
BRANCH  11  12
HETATM   12  C   UNK N   1      35.435  12.392  13.078  0.00  0.00     0.177 C 
BRANCH  12  13
HETATM   13  N   UNK N   1      34.560  12.521  11.919  0.00  0.00    -0.417 N 
HETATM   14  H   UNK N   1      33.603  12.863  12.009  0.00  0.00     0.150 HD
HETATM   15  H   UNK N   1      34.913  12.265  10.997  0.00  0.00     0.150 HD
ENDBRANCH  12  13
BRANCH  12  16
HETATM   16  C   UNK N   1      36.481  13.478  13.072  0.00  0.00     0.163 C 
HETATM   17  O   UNK N   1      36.430  14.406  13.855  0.00  0.00    -0.648 OA
BRANCH  16  18
HETATM   18  O   UNK N   1      37.490  13.418  12.174  0.00  0.00    -0.775 OA
HETATM   19  H   UNK N   1      38.129  12.735  12.216  0.00  0.00     0.167 HD
ENDBRANCH  16  18
ENDBRANCH  12  16
ENDBRANCH  11  12
ENDBRANCH   1  11
TORSDOF 5
ENDMDL
MODEL 5
REMARK VINA RESULT:      -6.0      8.255     10.479
REMARK  5 active torsions:
REMARK  status: ('A' for Active; 'I' for Inactive)
REMARK    1  A    between atoms: C_2  and  N_1 
REMARK    2  A    between atoms: C_2  and  C_3 
REMARK    3  A    between atoms: C_2  and  C_5 
REMARK    4  A    between atoms: C_3  and  O_16 
REMARK    5  A    between atoms: C_5  and  C_6 
ROOT
HETATM    1  C   UNK N   1      36.516  12.850  14.081  0.00  0.00    -0.045 A 
HETATM    2  C   UNK N   1      37.251  11.921  13.330  0.00  0.00     0.008 A 
HETATM    3  C   UNK N   1      37.594  10.680  13.875  0.00  0.00     0.001 A 
HETATM    4  C   UNK N   1      36.115  12.517  15.392  0.00  0.00    -0.020 A 
HETATM    5  C   UNK N   1      36.453  11.252  15.931  0.00  0.00    -0.025 A 
HETATM    6  C   UNK N   1      37.191  10.343  15.169  0.00  0.00     0.012 A 
HETATM    7  C   UNK N   1      35.368  13.414  16.174  0.00  0.00     0.013 A 
HETATM    8  C   UNK N   1      34.961  13.058  17.464  0.00  0.00     0.001 A 
HETATM    9  C   UNK N   1      35.292  11.803  17.983  0.00  0.00     0.001 A 
HETATM   10  C   UNK N   1      36.038  10.902  17.219  0.00  0.00     0.012 A 
ENDROOT
BRANCH   1  11
HETATM   11  C   UNK N   1      36.111  14.165  13.465  0.00  0.00     0.074 C 
BRANCH  11  12
HETATM   12  C   UNK N   1      35.871  14.130  11.957  0.00  0.00     0.177 C 
BRANCH  12  13
HETATM   13  N   UNK N   1      34.522  13.649  11.684  0.00  0.00    -0.417 N 
HETATM   14  H   UNK N   1      33.801  14.266  11.312  0.00  0.00     0.150 HD
HETATM   15  H   UNK N   1      34.294  12.672  11.870  0.00  0.00     0.150 HD
ENDBRANCH  12  13
BRANCH  12  16
HETATM   16  C   UNK N   1      36.053  15.523  11.409  0.00  0.00     0.163 C 
HETATM   17  O   UNK N   1      35.186  16.366  11.531  0.00  0.00    -0.648 OA
BRANCH  16  18
HETATM   18  O   UNK N   1      37.201  15.835  10.768  0.00  0.00    -0.775 OA
HETATM   19  H   UNK N   1      37.849  15.181  10.597  0.00  0.00     0.167 HD
ENDBRANCH  16  18
ENDBRANCH  12  16
ENDBRANCH  11  12
ENDBRANCH   1  11
TORSDOF 5
ENDMDL
MODEL 6
REMARK VINA RESULT:      -5.9      2.347      3.575
REMARK  5 active torsions:
REMARK  status: ('A' for Active; 'I' for Inactive)
REMARK    1  A    between atoms: C_2  and  N_1 
REMARK    2  A    between atoms: C_2  and  C_3 
REMARK    3  A    between atoms: C_2  and  C_5 
REMARK    4  A    between atoms: C_3  and  O_16 
REMARK    5  A    between atoms: C_5  and  C_6 
ROOT
HETATM    1  C   UNK N   1      32.772  17.416   7.356  0.00  0.00    -0.045 A 
HETATM    2  C   UNK N   1      33.754  17.471   6.357  0.00  0.00     0.008 A 
HETATM    3  C   UNK N   1      33.399  17.411   5.007  0.00  0.00     0.001 A 
HETATM    4  C   UNK N   1      31.414  17.310   6.985  0.00  0.00    -0.020 A 
HETATM    5  C   UNK N   1      31.062  17.265   5.614  0.00  0.00    -0.025 A 
HETATM    6  C   UNK N   1      32.056  17.314   4.635  0.00  0.00     0.012 A 
HETATM    7  C   UNK N   1      30.397  17.263   7.953  0.00  0.00     0.013 A 
HETATM    8  C   UNK N   1      29.056  17.179   7.566  0.00  0.00     0.001 A 
HETATM    9  C   UNK N   1      28.717  17.145   6.210  0.00  0.00     0.001 A 
HETATM   10  C   UNK N   1      29.718  17.187   5.236  0.00  0.00     0.012 A 
ENDROOT
BRANCH   1  11
HETATM   11  C   UNK N   1      33.163  17.531   8.807  0.00  0.00     0.074 C 
BRANCH  11  12
HETATM   12  C   UNK N   1      34.183  16.501   9.288  0.00  0.00     0.177 C 
BRANCH  12  13
HETATM   13  N   UNK N   1      34.907  17.026  10.440  0.00  0.00    -0.417 N 
HETATM   14  H   UNK N   1      34.825  16.597  11.362  0.00  0.00     0.150 HD
HETATM   15  H   UNK N   1      35.509  17.841  10.322  0.00  0.00     0.150 HD
ENDBRANCH  12  13
BRANCH  12  16
HETATM   16  C   UNK N   1      33.451  15.236   9.659  0.00  0.00     0.163 C 
HETATM   17  O   UNK N   1      33.288  14.343   8.852  0.00  0.00    -0.648 OA
BRANCH  16  18
HETATM   18  O   UNK N   1      32.967  15.098  10.914  0.00  0.00    -0.775 OA
HETATM   19  H   UNK N   1      32.926  14.257  11.323  0.00  0.00     0.167 HD
ENDBRANCH  16  18
ENDBRANCH  12  16
ENDBRANCH  11  12
ENDBRANCH   1  11
TORSDOF 5
ENDMDL
MODEL 7
REMARK VINA RESULT:      -5.7     17.225     18.304
REMARK  5 active torsions:
REMARK  status: ('A' for Active; 'I' for Inactive)
REMARK    1  A    between atoms: C_2  and  N_1 
REMARK    2  A    between atoms: C_2  and  C_3 
REMARK    3  A    between atoms: C_2  and  C_5 
REMARK    4  A    between atoms: C_3  and  O_16 
REMARK    5  A    between atoms: C_5  and  C_6 
ROOT
HETATM    1  C   UNK N   1      26.503  26.846  -7.223  0.00  0.00    -0.045 A 
HETATM    2  C   UNK N   1      27.460  27.018  -8.234  0.00  0.00     0.008 A 
HETATM    3  C   UNK N   1      28.410  28.039  -8.147  0.00  0.00     0.001 A 
HETATM    4  C   UNK N   1      26.515  27.709  -6.106  0.00  0.00    -0.020 A 
HETATM    5  C   UNK N   1      27.491  28.732  -6.019  0.00  0.00    -0.025 A 
HETATM    6  C   UNK N   1      28.430  28.891  -7.040  0.00  0.00     0.012 A 
HETATM    7  C   UNK N   1      25.582  27.565  -5.065  0.00  0.00     0.013 A 
HETATM    8  C   UNK N   1      25.623  28.417  -3.957  0.00  0.00     0.001 A 
HETATM    9  C   UNK N   1      26.596  29.417  -3.875  0.00  0.00     0.001 A 
HETATM   10  C   UNK N   1      27.527  29.575  -4.905  0.00  0.00     0.012 A 
ENDROOT
BRANCH   1  11
HETATM   11  C   UNK N   1      25.515  25.711  -7.304  0.00  0.00     0.074 C 
BRANCH  11  12
HETATM   12  C   UNK N   1      26.075  24.335  -6.949  0.00  0.00     0.177 C 
BRANCH  12  13
HETATM   13  N   UNK N   1      25.515  23.890  -5.677  0.00  0.00    -0.417 N 
HETATM   14  H   UNK N   1      24.591  23.462  -5.622  0.00  0.00     0.150 HD
HETATM   15  H   UNK N   1      26.061  24.009  -4.824  0.00  0.00     0.150 HD
ENDBRANCH  12  13
BRANCH  12  16
HETATM   16  C   UNK N   1      25.712  23.370  -8.049  0.00  0.00     0.163 C 
HETATM   17  O   UNK N   1      24.632  23.422  -8.603  0.00  0.00    -0.648 OA
BRANCH  16  18
HETATM   18  O   UNK N   1      26.608  22.428  -8.421  0.00  0.00    -0.775 OA
HETATM   19  H   UNK N   1      26.335  21.551  -8.603  0.00  0.00     0.167 HD
ENDBRANCH  16  18
ENDBRANCH  12  16
ENDBRANCH  11  12
ENDBRANCH   1  11
TORSDOF 5
ENDMDL
MODEL 8
REMARK VINA RESULT:      -5.6      7.389      9.264
REMARK  5 active torsions:
REMARK  status: ('A' for Active; 'I' for Inactive)
REMARK    1  A    between atoms: C_2  and  N_1 
REMARK    2  A    between atoms: C_2  and  C_3 
REMARK    3  A    between atoms: C_2  and  C_5 
REMARK    4  A    between atoms: C_3  and  O_16 
REMARK    5  A    between atoms: C_5  and  C_6 
ROOT
HETATM    1  C   UNK N   1      35.583  13.660  13.485  0.00  0.00    -0.045 A 
HETATM    2  C   UNK N   1      36.454  14.607  14.042  0.00  0.00     0.008 A 
HETATM    3  C   UNK N   1      36.891  14.479  15.363  0.00  0.00     0.001 A 
HETATM    4  C   UNK N   1      35.158  12.565  14.269  0.00  0.00    -0.020 A 
HETATM    5  C   UNK N   1      35.619  12.436  15.602  0.00  0.00    -0.025 A 
HETATM    6  C   UNK N   1      36.480  13.394  16.140  0.00  0.00     0.012 A 
HETATM    7  C   UNK N   1      34.296  11.588  13.746  0.00  0.00     0.013 A 
HETATM    8  C   UNK N   1      33.902  10.499  14.532  0.00  0.00     0.001 A 
HETATM    9  C   UNK N   1      34.369  10.375  15.843  0.00  0.00     0.001 A 
HETATM   10  C   UNK N   1      35.225  11.342  16.378  0.00  0.00     0.012 A 
ENDROOT
BRANCH   1  11
HETATM   11  C   UNK N   1      35.157  13.782  12.045  0.00  0.00     0.074 C 
BRANCH  11  12
HETATM   12  C   UNK N   1      36.293  13.731  11.025  0.00  0.00     0.177 C 
BRANCH  12  13
HETATM   13  N   UNK N   1      36.072  12.627  10.097  0.00  0.00    -0.417 N 
HETATM   14  H   UNK N   1      35.302  12.638   9.428  0.00  0.00     0.150 HD
HETATM   15  H   UNK N   1      36.702  11.825  10.118  0.00  0.00     0.150 HD
ENDBRANCH  12  13
BRANCH  12  16
HETATM   16  C   UNK N   1      36.331  15.042  10.281  0.00  0.00     0.163 C 
HETATM   17  O   UNK N   1      35.798  15.167   9.196  0.00  0.00    -0.648 OA
BRANCH  16  18
HETATM   18  O   UNK N   1      36.973  16.095  10.834  0.00  0.00    -0.775 OA
HETATM   19  H   UNK N   1      37.657  16.537  10.371  0.00  0.00     0.167 HD
ENDBRANCH  16  18
ENDBRANCH  12  16
ENDBRANCH  11  12
ENDBRANCH   1  11
TORSDOF 5
ENDMDL
MODEL 9
REMARK VINA RESULT:      -5.4     12.512     13.847
REMARK  5 active torsions:
REMARK  status: ('A' for Active; 'I' for Inactive)
REMARK    1  A    between atoms: C_2  and  N_1 
REMARK    2  A    between atoms: C_2  and  C_3 
REMARK    3  A    between atoms: C_2  and  C_5 
REMARK    4  A    between atoms: C_3  and  O_16 
REMARK    5  A    between atoms: C_5  and  C_6 
ROOT
HETATM    1  C   UNK N   1      35.268  11.249  18.974  0.00  0.00    -0.045 A 
HETATM    2  C   UNK N   1      35.267  12.555  19.486  0.00  0.00     0.008 A 
HETATM    3  C   UNK N   1      35.174  13.654  18.628  0.00  0.00     0.001 A 
HETATM    4  C   UNK N   1      35.163  11.052  17.580  0.00  0.00    -0.020 A 
HETATM    5  C   UNK N   1      35.054  12.172  16.719  0.00  0.00    -0.025 A 
HETATM    6  C   UNK N   1      35.062  13.464  17.248  0.00  0.00     0.012 A 
HETATM    7  C   UNK N   1      35.148   9.761  17.027  0.00  0.00     0.013 A 
HETATM    8  C   UNK N   1      35.022   9.586  15.646  0.00  0.00     0.001 A 
HETATM    9  C   UNK N   1      34.905  10.696  14.804  0.00  0.00     0.001 A 
HETATM   10  C   UNK N   1      34.922  11.987  15.340  0.00  0.00     0.012 A 
ENDROOT
BRANCH   1  11
HETATM   11  C   UNK N   1      35.319  10.071  19.913  0.00  0.00     0.074 C 
BRANCH  11  12
HETATM   12  C   UNK N   1      33.962   9.566  20.397  0.00  0.00     0.177 C 
BRANCH  12  13
HETATM   13  N   UNK N   1      33.973   8.109  20.460  0.00  0.00    -0.417 N 
HETATM   14  H   UNK N   1      33.188   7.555  20.117  0.00  0.00     0.150 HD
HETATM   15  H   UNK N   1      34.783   7.634  20.855  0.00  0.00     0.150 HD
ENDBRANCH  12  13
BRANCH  12  16
HETATM   16  C   UNK N   1      33.690  10.149  21.762  0.00  0.00     0.163 C 
HETATM   17  O   UNK N   1      32.612  10.638  22.035  0.00  0.00    -0.648 OA
BRANCH  16  18
HETATM   18  O   UNK N   1      34.669  10.127  22.694  0.00  0.00    -0.775 OA
HETATM   19  H   UNK N   1      35.520   9.797  22.489  0.00  0.00     0.167 HD
ENDBRANCH  16  18
ENDBRANCH  12  16
ENDBRANCH  11  12
ENDBRANCH   1  11
TORSDOF 5
ENDMDL
