MODEL 1
REMARK VINA RESULT:      -6.9      0.000      0.000
REMARK  10 active torsions:
REMARK  status: ('A' for Active; 'I' for Inactive)
REMARK    1  A    between atoms: N_1  and  C_2 
REMARK    2  A    between atoms: C_2  and  C_3 
REMARK    3  A    between atoms: C_3  and  C_4 
REMARK    4  A    between atoms: C_4  and  C_5 
REMARK    5  A    between atoms: C_5  and  N_6 
REMARK    6  A    between atoms: N_6  and  N_7 
REMARK       I    between atoms: N_7  and  C_8 
REMARK    7  A    between atoms: C_10  and  C_8 
REMARK       I    between atoms: N_11  and  C_15 
REMARK    8  A    between atoms: C_15  and  O_17 
REMARK    9  A    between atoms: O_17  and  C_18 
REMARK   10  A    between atoms: C_18  and  C_19 
ROOT
HETATM    1  C   UNK N   1      33.438  17.779   7.141  0.00  0.00     0.183 C 
HETATM    2  N   UNK N   1      32.173  17.127   7.386  0.00  0.00    -0.314 N 
HETATM    3  C   UNK N   1      34.194  16.824   6.232  0.00  0.00     0.037 C 
HETATM    4  C   UNK N   1      33.130  15.898   5.644  0.00  0.00     0.022 C 
HETATM    5  C   UNK N   1      31.961  15.934   6.618  0.00  0.00     0.129 C 
HETATM    6  C   UNK N   1      31.201  17.653   8.187  0.00  0.00     0.363 C 
HETATM    7  O   UNK N   1      31.407  18.693   8.804  0.00  0.00    -0.238 OA
ENDROOT
BRANCH   1   8
HETATM    8  C   UNK N   1      34.225  18.085   8.393  0.00  0.00     0.258 C 
HETATM    9  N   UNK N   1      34.176  17.217   9.430  0.00  0.00    -0.273 N 
HETATM   10  H   UNK N   1      33.499  16.503   9.440  0.00  0.00     0.189 HD
HETATM   11  O   UNK N   1      34.987  19.041   8.431  0.00  0.00    -0.269 OA
BRANCH   9  12
HETATM   12  N   UNK N   1      35.077  17.329  10.480  0.00  0.00    -0.334 N 
HETATM   13  H   UNK N   1      35.315  18.189  10.974  0.00  0.00     0.180 HD
BRANCH  12  14
HETATM   14  C   UNK N   1      35.619  16.016  10.753  0.00  0.00     0.139 C 
BRANCH  14  15
HETATM   15  C   UNK N   1      34.467  15.100  11.114  0.00  0.00     0.023 C 
BRANCH  15  16
HETATM   16  C   UNK N   1      34.965  13.887  11.871  0.00  0.00     0.021 C 
BRANCH  16  17
HETATM   17  C   UNK N   1      35.986  14.307  12.911  0.00  0.00     0.111 C 
BRANCH  17  18
HETATM   18  N   UNK N   1      37.170  13.478  12.787  0.00  0.00    -0.430 N 
HETATM   19  H   UNK N   1      37.914  13.545  13.481  0.00  0.00     0.149 HD
HETATM   20  H   UNK N   1      37.257  12.829  12.005  0.00  0.00     0.149 HD
ENDBRANCH  17  18
ENDBRANCH  16  17
ENDBRANCH  15  16
ENDBRANCH  14  15
ENDBRANCH  12  14
ENDBRANCH   9  12
ENDBRANCH   1   8
BRANCH   6  21
HETATM   21  O   UNK N   1      29.999  17.037   8.290  0.00  0.00    -0.299 OA
BRANCH  21  22
HETATM   22  C   UNK N   1      28.822  17.746   8.414  0.00  0.00     0.219 C 
BRANCH  22  23
HETATM   23  C   UNK N   1      28.450  18.435   7.139  0.00  0.00    -0.034 A 
HETATM   24  C   UNK N   1      27.879  19.710   7.201  0.00  0.00     0.009 A 
HETATM   25  C   UNK N   1      27.507  20.374   6.028  0.00  0.00     0.001 A 
HETATM   26  C   UNK N   1      27.711  19.764   4.786  0.00  0.00     0.000 A 
HETATM   27  C   UNK N   1      28.287  18.494   4.717  0.00  0.00     0.001 A 
HETATM   28  C   UNK N   1      28.655  17.828   5.891  0.00  0.00     0.009 A 
ENDBRANCH  22  23
ENDBRANCH  21  22
ENDBRANCH   6  21
TORSDOF 10
ENDMDL
MODEL 2
REMARK VINA RESULT:      -6.7      3.805      9.470
REMARK  10 active torsions:
REMARK  status: ('A' for Active; 'I' for Inactive)
REMARK    1  A    between atoms: N_1  and  C_2 
REMARK    2  A    between atoms: C_2  and  C_3 
REMARK    3  A    between atoms: C_3  and  C_4 
REMARK    4  A    between atoms: C_4  and  C_5 
REMARK    5  A    between atoms: C_5  and  N_6 
REMARK    6  A    between atoms: N_6  and  N_7 
REMARK       I    between atoms: N_7  and  C_8 
REMARK    7  A    between atoms: C_10  and  C_8 
REMARK       I    between atoms: N_11  and  C_15 
REMARK    8  A    between atoms: C_15  and  O_17 
REMARK    9  A    between atoms: O_17  and  C_18 
REMARK   10  A    between atoms: C_18  and  C_19 
ROOT
HETATM    1  C   UNK N   1      36.329  13.876  10.242  0.00  0.00     0.183 C 
HETATM    2  N   UNK N   1      36.487  13.346  11.576  0.00  0.00    -0.314 N 
HETATM    3  C   UNK N   1      37.639  13.556   9.542  0.00  0.00     0.037 C 
HETATM    4  C   UNK N   1      38.289  12.457  10.382  0.00  0.00     0.022 C 
HETATM    5  C   UNK N   1      37.687  12.585  11.774  0.00  0.00     0.129 C 
HETATM    6  C   UNK N   1      35.530  13.450  12.543  0.00  0.00     0.363 C 
HETATM    7  O   UNK N   1      34.502  14.082  12.326  0.00  0.00    -0.238 OA
ENDROOT
BRANCH   1   8
HETATM    8  C   UNK N   1      36.030  15.355  10.200  0.00  0.00     0.258 C 
HETATM    9  N   UNK N   1      34.881  15.779   9.624  0.00  0.00    -0.273 N 
HETATM   10  H   UNK N   1      34.347  15.157   9.080  0.00  0.00     0.189 HD
HETATM   11  O   UNK N   1      36.754  16.153  10.779  0.00  0.00    -0.269 OA
BRANCH   9  12
HETATM   12  N   UNK N   1      34.453  17.088   9.795  0.00  0.00    -0.334 N 
HETATM   13  H   UNK N   1      34.121  17.499  10.668  0.00  0.00     0.180 HD
BRANCH  12  14
HETATM   14  C   UNK N   1      34.558  17.769   8.523  0.00  0.00     0.139 C 
BRANCH  14  15
HETATM   15  C   UNK N   1      33.211  18.390   8.212  0.00  0.00     0.023 C 
BRANCH  15  16
HETATM   16  C   UNK N   1      32.273  17.363   7.615  0.00  0.00     0.021 C 
BRANCH  16  17
HETATM   17  C   UNK N   1      30.937  17.399   8.334  0.00  0.00     0.111 C 
BRANCH  17  18
HETATM   18  N   UNK N   1      30.967  16.479   9.454  0.00  0.00    -0.430 N 
HETATM   19  H   UNK N   1      30.958  15.473   9.289  0.00  0.00     0.149 HD
HETATM   20  H   UNK N   1      30.998  16.840  10.408  0.00  0.00     0.149 HD
ENDBRANCH  17  18
ENDBRANCH  16  17
ENDBRANCH  15  16
ENDBRANCH  14  15
ENDBRANCH  12  14
ENDBRANCH   9  12
ENDBRANCH   1   8
BRANCH   6  21
HETATM   21  O   UNK N   1      35.704  12.839  13.740  0.00  0.00    -0.299 OA
BRANCH  21  22
HETATM   22  C   UNK N   1      34.669  12.205  14.395  0.00  0.00     0.219 C 
BRANCH  22  23
HETATM   23  C   UNK N   1      34.909  12.125  15.870  0.00  0.00    -0.034 A 
HETATM   24  C   UNK N   1      35.149  10.875  16.450  0.00  0.00     0.009 A 
HETATM   25  C   UNK N   1      35.363  10.766  17.827  0.00  0.00     0.001 A 
HETATM   26  C   UNK N   1      35.341  11.911  18.630  0.00  0.00     0.000 A 
HETATM   27  C   UNK N   1      35.108  13.163  18.056  0.00  0.00     0.001 A 
HETATM   28  C   UNK N   1      34.890  13.271  16.679  0.00  0.00     0.009 A 
ENDBRANCH  22  23
ENDBRANCH  21  22
ENDBRANCH   6  21
TORSDOF 10
ENDMDL
MODEL 3
REMARK VINA RESULT:      -6.3     11.077     14.031
REMARK  10 active torsions:
REMARK  status: ('A' for Active; 'I' for Inactive)
REMARK    1  A    between atoms: N_1  and  C_2 
REMARK    2  A    between atoms: C_2  and  C_3 
REMARK    3  A    between atoms: C_3  and  C_4 
REMARK    4  A    between atoms: C_4  and  C_5 
REMARK    5  A    between atoms: C_5  and  N_6 
REMARK    6  A    between atoms: N_6  and  N_7 
REMARK       I    between atoms: N_7  and  C_8 
REMARK    7  A    between atoms: C_10  and  C_8 
REMARK       I    between atoms: N_11  and  C_15 
REMARK    8  A    between atoms: C_15  and  O_17 
REMARK    9  A    between atoms: O_17  and  C_18 
REMARK   10  A    between atoms: C_18  and  C_19 
ROOT
HETATM    1  C   UNK N   1      20.420  16.365   6.675  0.00  0.00     0.183 C 
HETATM    2  N   UNK N   1      20.441  15.095   7.361  0.00  0.00    -0.314 N 
HETATM    3  C   UNK N   1      19.852  17.342   7.691  0.00  0.00     0.037 C 
HETATM    4  C   UNK N   1      20.013  16.655   9.046  0.00  0.00     0.022 C 
HETATM    5  C   UNK N   1      20.096  15.165   8.752  0.00  0.00     0.129 C 
HETATM    6  C   UNK N   1      20.865  13.934   6.780  0.00  0.00     0.363 C 
HETATM    7  O   UNK N   1      21.183  13.920   5.595  0.00  0.00    -0.238 OA
ENDROOT
BRANCH   1   8
HETATM    8  C   UNK N   1      19.610  16.362   5.401  0.00  0.00     0.258 C 
HETATM    9  N   UNK N   1      20.221  16.657   4.230  0.00  0.00    -0.273 N 
HETATM   10  H   UNK N   1      21.125  17.047   4.234  0.00  0.00     0.189 HD
HETATM   11  O   UNK N   1      18.445  15.987   5.405  0.00  0.00    -0.269 OA
BRANCH   9  12
HETATM   12  N   UNK N   1      19.580  16.414   3.024  0.00  0.00    -0.334 N 
HETATM   13  H   UNK N   1      18.963  15.627   2.823  0.00  0.00     0.180 HD
BRANCH  12  14
HETATM   14  C   UNK N   1      19.937  17.468   2.101  0.00  0.00     0.139 C 
BRANCH  14  15
HETATM   15  C   UNK N   1      20.788  18.476   2.848  0.00  0.00     0.023 C 
BRANCH  15  16
HETATM   16  C   UNK N   1      20.319  19.887   2.563  0.00  0.00     0.021 C 
BRANCH  16  17
HETATM   17  C   UNK N   1      21.221  20.535   1.530  0.00  0.00     0.111 C 
BRANCH  17  18
HETATM   18  N   UNK N   1      20.430  20.936   0.383  0.00  0.00    -0.430 N 
HETATM   19  H   UNK N   1      19.545  20.469   0.186  0.00  0.00     0.149 HD
HETATM   20  H   UNK N   1      20.759  21.685  -0.227  0.00  0.00     0.149 HD
ENDBRANCH  17  18
ENDBRANCH  16  17
ENDBRANCH  15  16
ENDBRANCH  14  15
ENDBRANCH  12  14
ENDBRANCH   9  12
ENDBRANCH   1   8
BRANCH   6  21
HETATM   21  O   UNK N   1      20.955  12.799   7.514  0.00  0.00    -0.299 OA
BRANCH  21  22
HETATM   22  C   UNK N   1      22.140  12.108   7.649  0.00  0.00     0.219 C 
BRANCH  22  23
HETATM   23  C   UNK N   1      22.637  12.123   9.061  0.00  0.00    -0.034 A 
HETATM   24  C   UNK N   1      24.013  12.036   9.295  0.00  0.00     0.009 A 
HETATM   25  C   UNK N   1      24.506  12.034  10.602  0.00  0.00     0.001 A 
HETATM   26  C   UNK N   1      23.623  12.123  11.683  0.00  0.00     0.000 A 
HETATM   27  C   UNK N   1      22.248  12.216  11.455  0.00  0.00     0.001 A 
HETATM   28  C   UNK N   1      21.754  12.215  10.147  0.00  0.00     0.009 A 
ENDBRANCH  22  23
ENDBRANCH  21  22
ENDBRANCH   6  21
TORSDOF 10
ENDMDL
MODEL 4
REMARK VINA RESULT:      -6.3      1.681      2.207
REMARK  10 active torsions:
REMARK  status: ('A' for Active; 'I' for Inactive)
REMARK    1  A    between atoms: N_1  and  C_2 
REMARK    2  A    between atoms: C_2  and  C_3 
REMARK    3  A    between atoms: C_3  and  C_4 
REMARK    4  A    between atoms: C_4  and  C_5 
REMARK    5  A    between atoms: C_5  and  N_6 
REMARK    6  A    between atoms: N_6  and  N_7 
REMARK       I    between atoms: N_7  and  C_8 
REMARK    7  A    between atoms: C_10  and  C_8 
REMARK       I    between atoms: N_11  and  C_15 
REMARK    8  A    between atoms: C_15  and  O_17 
REMARK    9  A    between atoms: O_17  and  C_18 
REMARK   10  A    between atoms: C_18  and  C_19 
ROOT
HETATM    1  C   UNK N   1      32.851  16.968   7.464  0.00  0.00     0.183 C 
HETATM    2  N   UNK N   1      31.503  17.103   6.965  0.00  0.00    -0.314 N 
HETATM    3  C   UNK N   1      33.712  16.845   6.218  0.00  0.00     0.037 C 
HETATM    4  C   UNK N   1      32.849  17.378   5.075  0.00  0.00     0.022 C 
HETATM    5  C   UNK N   1      31.407  17.236   5.540  0.00  0.00     0.129 C 
HETATM    6  C   UNK N   1      30.410  17.217   7.775  0.00  0.00     0.363 C 
HETATM    7  O   UNK N   1      30.535  17.131   8.992  0.00  0.00    -0.238 OA
ENDROOT
BRANCH   1   8
HETATM    8  C   UNK N   1      33.049  15.791   8.389  0.00  0.00     0.258 C 
HETATM    9  N   UNK N   1      33.284  16.017   9.702  0.00  0.00    -0.273 N 
HETATM   10  H   UNK N   1      33.508  16.925  10.011  0.00  0.00     0.189 HD
HETATM   11  O   UNK N   1      32.884  14.648   7.985  0.00  0.00    -0.269 OA
BRANCH   9  12
HETATM   12  N   UNK N   1      33.212  14.975  10.616  0.00  0.00    -0.334 N 
HETATM   13  H   UNK N   1      32.410  14.363  10.763  0.00  0.00     0.180 HD
BRANCH  12  14
HETATM   14  C   UNK N   1      34.471  14.908  11.325  0.00  0.00     0.139 C 
BRANCH  14  15
HETATM   15  C   UNK N   1      35.261  13.741  10.765  0.00  0.00     0.023 C 
BRANCH  15  16
HETATM   16  C   UNK N   1      36.652  13.703  11.361  0.00  0.00     0.021 C 
BRANCH  16  17
HETATM   17  C   UNK N   1      37.686  13.974  10.285  0.00  0.00     0.111 C 
BRANCH  17  18
HETATM   18  N   UNK N   1      38.923  13.297  10.623  0.00  0.00    -0.430 N 
HETATM   19  H   UNK N   1      39.028  12.852  11.534  0.00  0.00     0.149 HD
HETATM   20  H   UNK N   1      39.687  13.265   9.948  0.00  0.00     0.149 HD
ENDBRANCH  17  18
ENDBRANCH  16  17
ENDBRANCH  15  16
ENDBRANCH  14  15
ENDBRANCH  12  14
ENDBRANCH   9  12
ENDBRANCH   1   8
BRANCH   6  21
HETATM   21  O   UNK N   1      29.187  17.444   7.239  0.00  0.00    -0.299 OA
BRANCH  21  22
HETATM   22  C   UNK N   1      28.412  18.521   7.616  0.00  0.00     0.219 C 
BRANCH  22  23
HETATM   23  C   UNK N   1      27.820  19.222   6.434  0.00  0.00    -0.034 A 
HETATM   24  C   UNK N   1      27.971  18.653   5.165  0.00  0.00     0.009 A 
HETATM   25  C   UNK N   1      27.442  19.291   4.039  0.00  0.00     0.001 A 
HETATM   26  C   UNK N   1      26.755  20.501   4.180  0.00  0.00     0.000 A 
HETATM   27  C   UNK N   1      26.595  21.071   5.446  0.00  0.00     0.001 A 
HETATM   28  C   UNK N   1      27.128  20.435   6.571  0.00  0.00     0.009 A 
ENDBRANCH  22  23
ENDBRANCH  21  22
ENDBRANCH   6  21
TORSDOF 10
ENDMDL
MODEL 5
REMARK VINA RESULT:      -6.1     12.555     14.854
REMARK  10 active torsions:
REMARK  status: ('A' for Active; 'I' for Inactive)
REMARK    1  A    between atoms: N_1  and  C_2 
REMARK    2  A    between atoms: C_2  and  C_3 
REMARK    3  A    between atoms: C_3  and  C_4 
REMARK    4  A    between atoms: C_4  and  C_5 
REMARK    5  A    between atoms: C_5  and  N_6 
REMARK    6  A    between atoms: N_6  and  N_7 
REMARK       I    between atoms: N_7  and  C_8 
REMARK    7  A    between atoms: C_10  and  C_8 
REMARK       I    between atoms: N_11  and  C_15 
REMARK    8  A    between atoms: C_15  and  O_17 
REMARK    9  A    between atoms: O_17  and  C_18 
REMARK   10  A    between atoms: C_18  and  C_19 
ROOT
HETATM    1  C   UNK N   1      30.073  24.711  -3.340  0.00  0.00     0.183 C 
HETATM    2  N   UNK N   1      29.082  24.821  -4.385  0.00  0.00    -0.314 N 
HETATM    3  C   UNK N   1      31.358  25.214  -3.974  0.00  0.00     0.037 C 
HETATM    4  C   UNK N   1      30.920  26.010  -5.203  0.00  0.00     0.022 C 
HETATM    5  C   UNK N   1      29.543  25.480  -5.573  0.00  0.00     0.129 C 
HETATM    6  C   UNK N   1      27.780  24.442  -4.227  0.00  0.00     0.363 C 
HETATM    7  O   UNK N   1      27.416  23.910  -3.184  0.00  0.00    -0.238 OA
ENDROOT
BRANCH   1   8
HETATM    8  C   UNK N   1      30.239  23.313  -2.795  0.00  0.00     0.258 C 
HETATM    9  N   UNK N   1      30.258  22.268  -3.654  0.00  0.00    -0.273 N 
HETATM   10  H   UNK N   1      29.981  22.398  -4.590  0.00  0.00     0.189 HD
HETATM   11  O   UNK N   1      30.470  23.132  -1.607  0.00  0.00    -0.269 OA
BRANCH   9  12
HETATM   12  N   UNK N   1      30.664  21.013  -3.223  0.00  0.00    -0.334 N 
HETATM   13  H   UNK N   1      30.223  20.462  -2.487  0.00  0.00     0.180 HD
BRANCH  12  14
HETATM   14  C   UNK N   1      31.822  20.622  -3.997  0.00  0.00     0.139 C 
BRANCH  14  15
HETATM   15  C   UNK N   1      33.061  21.049  -3.234  0.00  0.00     0.023 C 
BRANCH  15  16
HETATM   16  C   UNK N   1      34.269  20.262  -3.693  0.00  0.00     0.021 C 
BRANCH  16  17
HETATM   17  C   UNK N   1      33.826  19.019  -4.441  0.00  0.00     0.111 C 
BRANCH  17  18
HETATM   18  N   UNK N   1      34.207  17.841  -3.686  0.00  0.00    -0.430 N 
HETATM   19  H   UNK N   1      33.495  17.293  -3.204  0.00  0.00     0.149 HD
HETATM   20  H   UNK N   1      35.187  17.561  -3.639  0.00  0.00     0.149 HD
ENDBRANCH  17  18
ENDBRANCH  16  17
ENDBRANCH  15  16
ENDBRANCH  14  15
ENDBRANCH  12  14
ENDBRANCH   9  12
ENDBRANCH   1   8
BRANCH   6  21
HETATM   21  O   UNK N   1      26.882  24.668  -5.216  0.00  0.00    -0.299 OA
BRANCH  21  22
HETATM   22  C   UNK N   1      25.788  25.488  -5.036  0.00  0.00     0.219 C 
BRANCH  22  23
HETATM   23  C   UNK N   1      26.184  26.925  -4.902  0.00  0.00    -0.034 A 
HETATM   24  C   UNK N   1      25.870  27.606  -3.722  0.00  0.00     0.009 A 
HETATM   25  C   UNK N   1      26.214  28.953  -3.573  0.00  0.00     0.001 A 
HETATM   26  C   UNK N   1      26.880  29.623  -4.604  0.00  0.00     0.000 A 
HETATM   27  C   UNK N   1      27.202  28.946  -5.783  0.00  0.00     0.001 A 
HETATM   28  C   UNK N   1      26.854  27.600  -5.934  0.00  0.00     0.009 A 
ENDBRANCH  22  23
ENDBRANCH  21  22
ENDBRANCH   6  21
TORSDOF 10
ENDMDL
MODEL 6
REMARK VINA RESULT:      -6.0      2.995      5.359
REMARK  10 active torsions:
REMARK  status: ('A' for Active; 'I' for Inactive)
REMARK    1  A    between atoms: N_1  and  C_2 
REMARK    2  A    between atoms: C_2  and  C_3 
REMARK    3  A    between atoms: C_3  and  C_4 
REMARK    4  A    between atoms: C_4  and  C_5 
REMARK    5  A    between atoms: C_5  and  N_6 
REMARK    6  A    between atoms: N_6  and  N_7 
REMARK       I    between atoms: N_7  and  C_8 
REMARK    7  A    between atoms: C_10  and  C_8 
REMARK       I    between atoms: N_11  and  C_15 
REMARK    8  A    between atoms: C_15  and  O_17 
REMARK    9  A    between atoms: O_17  and  C_18 
REMARK   10  A    between atoms: C_18  and  C_19 
ROOT
HETATM    1  C   UNK N   1      36.115  13.364  10.835  0.00  0.00     0.183 C 
HETATM    2  N   UNK N   1      35.510  14.267   9.884  0.00  0.00    -0.314 N 
HETATM    3  C   UNK N   1      35.517  12.006  10.510  0.00  0.00     0.037 C 
HETATM    4  C   UNK N   1      34.954  12.139   9.096  0.00  0.00     0.022 C 
HETATM    5  C   UNK N   1      34.708  13.625   8.883  0.00  0.00     0.129 C 
HETATM    6  C   UNK N   1      35.767  15.608   9.854  0.00  0.00     0.363 C 
HETATM    7  O   UNK N   1      36.484  16.116  10.709  0.00  0.00    -0.238 OA
ENDROOT
BRANCH   1   8
HETATM    8  C   UNK N   1      35.875  13.740  12.278  0.00  0.00     0.258 C 
HETATM    9  N   UNK N   1      36.934  14.031  13.068  0.00  0.00    -0.273 N 
HETATM   10  H   UNK N   1      37.846  13.819  12.763  0.00  0.00     0.189 HD
HETATM   11  O   UNK N   1      34.736  13.895  12.699  0.00  0.00    -0.269 OA
BRANCH   9  12
HETATM   12  N   UNK N   1      36.741  14.626  14.307  0.00  0.00    -0.334 N 
HETATM   13  H   UNK N   1      36.487  15.600  14.470  0.00  0.00     0.180 HD
BRANCH  12  14
HETATM   14  C   UNK N   1      36.963  13.625  15.328  0.00  0.00     0.139 C 
BRANCH  14  15
HETATM   15  C   UNK N   1      35.674  13.458  16.107  0.00  0.00     0.023 C 
BRANCH  15  16
HETATM   16  C   UNK N   1      35.590  12.072  16.711  0.00  0.00     0.021 C 
BRANCH  16  17
HETATM   17  C   UNK N   1      36.403  11.095  15.884  0.00  0.00     0.111 C 
BRANCH  17  18
HETATM   18  N   UNK N   1      35.978   9.741  16.182  0.00  0.00    -0.430 N 
HETATM   19  H   UNK N   1      34.985   9.527  16.272  0.00  0.00     0.149 HD
HETATM   20  H   UNK N   1      36.673   9.004  16.302  0.00  0.00     0.149 HD
ENDBRANCH  17  18
ENDBRANCH  16  17
ENDBRANCH  15  16
ENDBRANCH  14  15
ENDBRANCH  12  14
ENDBRANCH   9  12
ENDBRANCH   1   8
BRANCH   6  21
HETATM   21  O   UNK N   1      35.244  16.378   8.870  0.00  0.00    -0.299 OA
BRANCH  21  22
HETATM   22  C   UNK N   1      34.156  17.198   9.083  0.00  0.00     0.219 C 
BRANCH  22  23
HETATM   23  C   UNK N   1      33.228  17.210   7.908  0.00  0.00    -0.034 A 
HETATM   24  C   UNK N   1      31.863  16.997   8.123  0.00  0.00     0.009 A 
HETATM   25  C   UNK N   1      30.973  16.989   7.045  0.00  0.00     0.001 A 
HETATM   26  C   UNK N   1      31.447  17.198   5.746  0.00  0.00     0.000 A 
HETATM   27  C   UNK N   1      32.809  17.417   5.526  0.00  0.00     0.001 A 
HETATM   28  C   UNK N   1      33.700  17.422   6.604  0.00  0.00     0.009 A 
ENDBRANCH  22  23
ENDBRANCH  21  22
ENDBRANCH   6  21
TORSDOF 10
ENDMDL
MODEL 7
REMARK VINA RESULT:      -6.0      8.798     11.886
REMARK  10 active torsions:
REMARK  status: ('A' for Active; 'I' for Inactive)
REMARK    1  A    between atoms: N_1  and  C_2 
REMARK    2  A    between atoms: C_2  and  C_3 
REMARK    3  A    between atoms: C_3  and  C_4 
REMARK    4  A    between atoms: C_4  and  C_5 
REMARK    5  A    between atoms: C_5  and  N_6 
REMARK    6  A    between atoms: N_6  and  N_7 
REMARK       I    between atoms: N_7  and  C_8 
REMARK    7  A    between atoms: C_10  and  C_8 
REMARK       I    between atoms: N_11  and  C_15 
REMARK    8  A    between atoms: C_15  and  O_17 
REMARK    9  A    between atoms: O_17  and  C_18 
REMARK   10  A    between atoms: C_18  and  C_19 
ROOT
HETATM    1  C   UNK N   1      20.427  18.402   3.709  0.00  0.00     0.183 C 
HETATM    2  N   UNK N   1      20.941  17.435   4.650  0.00  0.00    -0.314 N 
HETATM    3  C   UNK N   1      20.311  17.640   2.399  0.00  0.00     0.037 C 
HETATM    4  C   UNK N   1      20.334  16.162   2.787  0.00  0.00     0.022 C 
HETATM    5  C   UNK N   1      21.026  16.097   4.141  0.00  0.00     0.129 C 
HETATM    6  C   UNK N   1      21.214  17.731   5.955  0.00  0.00     0.363 C 
HETATM    7  O   UNK N   1      21.098  18.881   6.362  0.00  0.00    -0.238 OA
ENDROOT
BRANCH   1   8
HETATM    8  C   UNK N   1      21.291  19.631   3.556  0.00  0.00     0.258 C 
HETATM    9  N   UNK N   1      22.628  19.482   3.408  0.00  0.00    -0.273 N 
HETATM   10  H   UNK N   1      23.046  18.609   3.586  0.00  0.00     0.189 HD
HETATM   11  O   UNK N   1      20.783  20.739   3.449  0.00  0.00    -0.269 OA
BRANCH   9  12
HETATM   12  N   UNK N   1      23.412  20.556   3.009  0.00  0.00    -0.334 N 
HETATM   13  H   UNK N   1      23.068  21.456   2.676  0.00  0.00     0.180 HD
BRANCH  12  14
HETATM   14  C   UNK N   1      24.801  20.176   3.145  0.00  0.00     0.139 C 
BRANCH  14  15
HETATM   15  C   UNK N   1      24.909  19.203   4.303  0.00  0.00     0.023 C 
BRANCH  15  16
HETATM   16  C   UNK N   1      25.984  18.171   4.036  0.00  0.00     0.021 C 
BRANCH  16  17
HETATM   17  C   UNK N   1      25.934  17.084   5.092  0.00  0.00     0.111 C 
BRANCH  17  18
HETATM   18  N   UNK N   1      24.578  16.957   5.589  0.00  0.00    -0.430 N 
HETATM   19  H   UNK N   1      24.323  17.370   6.485  0.00  0.00     0.149 HD
HETATM   20  H   UNK N   1      23.880  16.452   5.042  0.00  0.00     0.149 HD
ENDBRANCH  17  18
ENDBRANCH  16  17
ENDBRANCH  15  16
ENDBRANCH  14  15
ENDBRANCH  12  14
ENDBRANCH   9  12
ENDBRANCH   1   8
BRANCH   6  21
HETATM   21  O   UNK N   1      21.597  16.750   6.808  0.00  0.00    -0.299 OA
BRANCH  21  22
HETATM   22  C   UNK N   1      20.818  16.370   7.881  0.00  0.00     0.219 C 
BRANCH  22  23
HETATM   23  C   UNK N   1      21.218  15.029   8.412  0.00  0.00    -0.034 A 
HETATM   24  C   UNK N   1      22.223  14.313   7.753  0.00  0.00     0.009 A 
HETATM   25  C   UNK N   1      22.608  13.052   8.217  0.00  0.00     0.001 A 
HETATM   26  C   UNK N   1      21.991  12.503   9.345  0.00  0.00     0.000 A 
HETATM   27  C   UNK N   1      20.991  13.216  10.011  0.00  0.00     0.001 A 
HETATM   28  C   UNK N   1      20.603  14.476   9.545  0.00  0.00     0.009 A 
ENDBRANCH  22  23
ENDBRANCH  21  22
ENDBRANCH   6  21
TORSDOF 10
ENDMDL
MODEL 8
REMARK VINA RESULT:      -5.9      3.898      9.290
REMARK  10 active torsions:
REMARK  status: ('A' for Active; 'I' for Inactive)
REMARK    1  A    between atoms: N_1  and  C_2 
REMARK    2  A    between atoms: C_2  and  C_3 
REMARK    3  A    between atoms: C_3  and  C_4 
REMARK    4  A    between atoms: C_4  and  C_5 
REMARK    5  A    between atoms: C_5  and  N_6 
REMARK    6  A    between atoms: N_6  and  N_7 
REMARK       I    between atoms: N_7  and  C_8 
REMARK    7  A    between atoms: C_10  and  C_8 
REMARK       I    between atoms: N_11  and  C_15 
REMARK    8  A    between atoms: C_15  and  O_17 
REMARK    9  A    between atoms: O_17  and  C_18 
REMARK   10  A    between atoms: C_18  and  C_19 
ROOT
HETATM    1  C   UNK N   1      35.537  13.538   9.983  0.00  0.00     0.183 C 
HETATM    2  N   UNK N   1      36.220  13.061  11.162  0.00  0.00    -0.314 N 
HETATM    3  C   UNK N   1      36.311  12.939   8.821  0.00  0.00     0.037 C 
HETATM    4  C   UNK N   1      37.112  11.784   9.421  0.00  0.00     0.022 C 
HETATM    5  C   UNK N   1      37.251  12.099  10.903  0.00  0.00     0.129 C 
HETATM    6  C   UNK N   1      35.848  13.397  12.432  0.00  0.00     0.363 C 
HETATM    7  O   UNK N   1      34.939  14.200  12.615  0.00  0.00    -0.238 OA
ENDROOT
BRANCH   1   8
HETATM    8  C   UNK N   1      35.468  15.043   9.879  0.00  0.00     0.258 C 
HETATM    9  N   UNK N   1      34.269  15.635   9.670  0.00  0.00    -0.273 N 
HETATM   10  H   UNK N   1      33.494  15.090   9.404  0.00  0.00     0.189 HD
HETATM   11  O   UNK N   1      36.459  15.728  10.096  0.00  0.00    -0.269 OA
BRANCH   9  12
HETATM   12  N   UNK N   1      34.128  17.007   9.828  0.00  0.00    -0.334 N 
HETATM   13  H   UNK N   1      34.468  17.556  10.617  0.00  0.00     0.180 HD
BRANCH  12  14
HETATM   14  C   UNK N   1      33.416  17.523   8.679  0.00  0.00     0.139 C 
BRANCH  14  15
HETATM   15  C   UNK N   1      33.856  16.734   7.462  0.00  0.00     0.023 C 
BRANCH  15  16
HETATM   16  C   UNK N   1      33.712  17.566   6.205  0.00  0.00     0.021 C 
BRANCH  16  17
HETATM   17  C   UNK N   1      33.432  16.667   5.016  0.00  0.00     0.111 C 
BRANCH  17  18
HETATM   18  N   UNK N   1      32.631  17.387   4.046  0.00  0.00    -0.430 N 
HETATM   19  H   UNK N   1      33.063  18.094   3.452  0.00  0.00     0.149 HD
HETATM   20  H   UNK N   1      31.634  17.186   3.958  0.00  0.00     0.149 HD
ENDBRANCH  17  18
ENDBRANCH  16  17
ENDBRANCH  15  16
ENDBRANCH  14  15
ENDBRANCH  12  14
ENDBRANCH   9  12
ENDBRANCH   1   8
BRANCH   6  21
HETATM   21  O   UNK N   1      36.469  12.831  13.495  0.00  0.00    -0.299 OA
BRANCH  21  22
HETATM   22  C   UNK N   1      35.787  12.490  14.644  0.00  0.00     0.219 C 
BRANCH  22  23
HETATM   23  C   UNK N   1      36.004  13.489  15.737  0.00  0.00    -0.034 A 
HETATM   24  C   UNK N   1      36.993  14.465  15.576  0.00  0.00     0.009 A 
HETATM   25  C   UNK N   1      37.228  15.403  16.584  0.00  0.00     0.001 A 
HETATM   26  C   UNK N   1      36.471  15.371  17.759  0.00  0.00     0.000 A 
HETATM   27  C   UNK N   1      35.477  14.403  17.924  0.00  0.00     0.001 A 
HETATM   28  C   UNK N   1      35.244  13.462  16.916  0.00  0.00     0.009 A 
ENDBRANCH  22  23
ENDBRANCH  21  22
ENDBRANCH   6  21
TORSDOF 10
ENDMDL
MODEL 9
REMARK VINA RESULT:      -5.9     13.054     15.752
REMARK  10 active torsions:
REMARK  status: ('A' for Active; 'I' for Inactive)
REMARK    1  A    between atoms: N_1  and  C_2 
REMARK    2  A    between atoms: C_2  and  C_3 
REMARK    3  A    between atoms: C_3  and  C_4 
REMARK    4  A    between atoms: C_4  and  C_5 
REMARK    5  A    between atoms: C_5  and  N_6 
REMARK    6  A    between atoms: N_6  and  N_7 
REMARK       I    between atoms: N_7  and  C_8 
REMARK    7  A    between atoms: C_10  and  C_8 
REMARK       I    between atoms: N_11  and  C_15 
REMARK    8  A    between atoms: C_15  and  O_17 
REMARK    9  A    between atoms: O_17  and  C_18 
REMARK   10  A    between atoms: C_18  and  C_19 
ROOT
HETATM    1  C   UNK N   1      29.885  24.614  -3.091  0.00  0.00     0.183 C 
HETATM    2  N   UNK N   1      28.737  24.810  -3.944  0.00  0.00    -0.314 N 
HETATM    3  C   UNK N   1      31.059  25.143  -3.898  0.00  0.00     0.037 C 
HETATM    4  C   UNK N   1      30.442  26.029  -4.978  0.00  0.00     0.022 C 
HETATM    5  C   UNK N   1      29.009  25.545  -5.146  0.00  0.00     0.129 C 
HETATM    6  C   UNK N   1      27.471  24.439  -3.595  0.00  0.00     0.363 C 
HETATM    7  O   UNK N   1      27.273  23.840  -2.543  0.00  0.00    -0.238 OA
ENDROOT
BRANCH   1   8
HETATM    8  C   UNK N   1      30.105  23.178  -2.677  0.00  0.00     0.258 C 
HETATM    9  N   UNK N   1      29.980  22.199  -3.602  0.00  0.00    -0.273 N 
HETATM   10  H   UNK N   1      29.572  22.399  -4.475  0.00  0.00     0.189 HD
HETATM   11  O   UNK N   1      30.504  22.910  -1.552  0.00  0.00    -0.269 OA
BRANCH   9  12
HETATM   12  N   UNK N   1      30.423  20.913  -3.326  0.00  0.00    -0.334 N 
HETATM   13  H   UNK N   1      30.051  20.294  -2.605  0.00  0.00     0.180 HD
BRANCH  12  14
HETATM   14  C   UNK N   1      31.504  20.602  -4.236  0.00  0.00     0.139 C 
BRANCH  14  15
HETATM   15  C   UNK N   1      31.116  21.105  -5.612  0.00  0.00     0.023 C 
BRANCH  15  16
HETATM   16  C   UNK N   1      30.932  19.949  -6.572  0.00  0.00     0.021 C 
BRANCH  16  17
HETATM   17  C   UNK N   1      29.592  20.066  -7.274  0.00  0.00     0.111 C 
BRANCH  17  18
HETATM   18  N   UNK N   1      29.160  18.752  -7.708  0.00  0.00    -0.430 N 
HETATM   19  H   UNK N   1      28.169  18.510  -7.694  0.00  0.00     0.149 HD
HETATM   20  H   UNK N   1      29.848  18.069  -8.027  0.00  0.00     0.149 HD
ENDBRANCH  17  18
ENDBRANCH  16  17
ENDBRANCH  15  16
ENDBRANCH  14  15
ENDBRANCH  12  14
ENDBRANCH   9  12
ENDBRANCH   1   8
BRANCH   6  21
HETATM   21  O   UNK N   1      26.426  24.747  -4.400  0.00  0.00    -0.299 OA
BRANCH  21  22
HETATM   22  C   UNK N   1      25.872  23.826  -5.265  0.00  0.00     0.219 C 
BRANCH  22  23
HETATM   23  C   UNK N   1      25.823  24.339  -6.670  0.00  0.00    -0.034 A 
HETATM   24  C   UNK N   1      25.863  25.721  -6.887  0.00  0.00     0.009 A 
HETATM   25  C   UNK N   1      25.805  26.232  -8.186  0.00  0.00     0.001 A 
HETATM   26  C   UNK N   1      25.710  25.361  -9.276  0.00  0.00     0.000 A 
HETATM   27  C   UNK N   1      25.676  23.980  -9.066  0.00  0.00     0.001 A 
HETATM   28  C   UNK N   1      25.730  23.469  -7.765  0.00  0.00     0.009 A 
ENDBRANCH  22  23
ENDBRANCH  21  22
ENDBRANCH   6  21
TORSDOF 10
ENDMDL
