MODEL 1
REMARK VINA RESULT:      -6.4      0.000      0.000
REMARK  10 active torsions:
REMARK  status: ('A' for Active; 'I' for Inactive)
REMARK    1  A    between atoms: C_2  and  O_1 
REMARK    2  A    between atoms: C_6  and  O_7 
REMARK    3  A    between atoms: C_10  and  O_11 
REMARK    4  A    between atoms: N_14  and  C_16 
REMARK    5  A    between atoms: C_16  and  C_17 
REMARK    6  A    between atoms: C_17  and  C_18 
REMARK    7  A    between atoms: C_18  and  C_19 
REMARK    8  A    between atoms: C_19  and  C_20 
REMARK    9  A    between atoms: C_20  and  C_21 
REMARK   10  A    between atoms: C_21  and  C_22 
ROOT
HETATM    1  C   UNK N   1      20.075  17.641   3.272  0.00  0.00     0.174 C 
HETATM    2  C   UNK N   1      21.302  17.960   4.127  0.00  0.00     0.146 C 
HETATM    3  C   UNK N   1      22.283  16.786   4.415  0.00  0.00     0.207 C 
HETATM    4  O   UNK N   1      23.550  17.330   4.224  0.00  0.00    -0.320 OA
HETATM    5  C   UNK N   1      19.368  18.983   2.954  0.00  0.00     0.182 C 
HETATM    6  C   UNK N   1      20.326  19.929   2.183  0.00  0.00     0.198 C 
HETATM    7  O   UNK N   1      20.665  19.347   0.957  0.00  0.00    -0.389 OA
HETATM    8  C   UNK N   1      21.606  20.191   3.012  0.00  0.00     0.255 C 
HETATM    9  N   UNK N   1      22.133  18.916   3.463  0.00  0.00    -0.309 N 
HETATM   10  C   UNK N   1      23.456  18.547   3.676  0.00  0.00     0.220 C 
HETATM   11  N   UNK N   1      24.460  19.331   3.494  0.00  0.00    -0.356 N 
ATOM     12  HN  UNK N   1      24.315  20.238   3.050  1.00  0.00     0.163 HD
HETATM   13  H   UNK N   1      20.848  18.836   0.154  0.00  0.00     0.210 HD
ENDROOT
BRANCH   5  14
HETATM   14  O   UNK N   1      18.217  18.751   2.197  0.00  0.00    -0.390 OA
HETATM   15  H   UNK N   1      17.426  19.307   2.275  0.00  0.00     0.210 HD
ENDBRANCH   5  14
BRANCH   8  16
HETATM   16  O   UNK N   1      22.543  20.895   2.250  0.00  0.00    -0.374 OA
HETATM   17  H   UNK N   1      22.354  21.374   1.428  0.00  0.00     0.212 HD
ENDBRANCH   8  16
BRANCH   1  18
HETATM   18  O   UNK N   1      19.217  16.793   3.976  0.00  0.00    -0.391 OA
HETATM   19  H   UNK N   1      19.513  15.967   4.388  0.00  0.00     0.210 HD
ENDBRANCH   1  18
BRANCH  11  20
HETATM   20  C   UNK N   1      25.784  18.944   3.907  0.00  0.00     0.123 C 
BRANCH  20  21
HETATM   21  C   UNK N   1      26.713  20.135   3.713  0.00  0.00     0.020 C 
BRANCH  21  22
HETATM   22  C   UNK N   1      27.848  20.118   4.720  0.00  0.00     0.002 C 
BRANCH  22  23
HETATM   23  C   UNK N   1      27.446  20.807   6.012  0.00  0.00     0.000 C 
BRANCH  23  24
HETATM   24  C   UNK N   1      27.710  19.877   7.183  0.00  0.00     0.000 C 
BRANCH  24  25
HETATM   25  C   UNK N   1      28.342  18.585   6.698  0.00  0.00    -0.000 C 
BRANCH  25  26
HETATM   26  C   UNK N   1      28.103  17.481   7.712  0.00  0.00    -0.005 C 
HETATM   27  C   UNK N   1      28.280  18.026   9.114  0.00  0.00     0.005 C 
ENDBRANCH  25  26
ENDBRANCH  24  25
ENDBRANCH  23  24
ENDBRANCH  22  23
ENDBRANCH  21  22
ENDBRANCH  20  21
ENDBRANCH  11  20
TORSDOF 10
ENDMDL
MODEL 2
REMARK VINA RESULT:      -6.2     12.008     15.163
REMARK  10 active torsions:
REMARK  status: ('A' for Active; 'I' for Inactive)
REMARK    1  A    between atoms: C_2  and  O_1 
REMARK    2  A    between atoms: C_6  and  O_7 
REMARK    3  A    between atoms: C_10  and  O_11 
REMARK    4  A    between atoms: N_14  and  C_16 
REMARK    5  A    between atoms: C_16  and  C_17 
REMARK    6  A    between atoms: C_17  and  C_18 
REMARK    7  A    between atoms: C_18  and  C_19 
REMARK    8  A    between atoms: C_19  and  C_20 
REMARK    9  A    between atoms: C_20  and  C_21 
REMARK   10  A    between atoms: C_21  and  C_22 
ROOT
HETATM    1  C   UNK N   1      34.706  16.260  10.527  0.00  0.00     0.174 C 
HETATM    2  C   UNK N   1      35.439  14.922  10.639  0.00  0.00     0.146 C 
HETATM    3  C   UNK N   1      36.106  14.597  12.008  0.00  0.00     0.207 C 
HETATM    4  O   UNK N   1      35.776  13.268  12.255  0.00  0.00    -0.320 OA
HETATM    5  C   UNK N   1      33.962  16.271   9.167  0.00  0.00     0.182 C 
HETATM    6  C   UNK N   1      32.948  15.098   9.098  0.00  0.00     0.198 C 
HETATM    7  O   UNK N   1      31.979  15.263  10.094  0.00  0.00    -0.389 OA
HETATM    8  C   UNK N   1      33.675  13.746   9.291  0.00  0.00     0.255 C 
HETATM    9  N   UNK N   1      34.520  13.839  10.467  0.00  0.00    -0.309 N 
HETATM   10  C   UNK N   1      34.866  12.843  11.371  0.00  0.00     0.220 C 
HETATM   11  N   UNK N   1      34.462  11.624  11.289  0.00  0.00    -0.356 N 
ATOM     12  HN  UNK N   1      33.748  11.376  10.603  1.00  0.00     0.163 HD
HETATM   13  H   UNK N   1      31.385  15.468  10.832  0.00  0.00     0.210 HD
ENDROOT
BRANCH   5  14
HETATM   14  O   UNK N   1      33.297  17.486   8.995  0.00  0.00    -0.390 OA
HETATM   15  H   UNK N   1      32.440  17.548   8.543  0.00  0.00     0.210 HD
ENDBRANCH   5  14
BRANCH   8  16
HETATM   16  O   UNK N   1      32.746  12.707   9.405  0.00  0.00    -0.374 OA
HETATM   17  H   UNK N   1      32.963  11.771   9.538  0.00  0.00     0.212 HD
ENDBRANCH   8  16
BRANCH   1  18
HETATM   18  O   UNK N   1      35.627  17.308  10.587  0.00  0.00    -0.391 OA
HETATM   19  H   UNK N   1      35.506  18.086  11.152  0.00  0.00     0.210 HD
ENDBRANCH   1  18
BRANCH  11  20
HETATM   20  C   UNK N   1      35.003  10.606  12.151  0.00  0.00     0.123 C 
BRANCH  20  21
HETATM   21  C   UNK N   1      33.925  10.200  13.148  0.00  0.00     0.020 C 
BRANCH  21  22
HETATM   22  C   UNK N   1      34.093  10.930  14.468  0.00  0.00     0.002 C 
BRANCH  22  23
HETATM   23  C   UNK N   1      35.488  10.730  15.033  0.00  0.00     0.000 C 
BRANCH  23  24
HETATM   24  C   UNK N   1      35.954  12.016  15.692  0.00  0.00     0.000 C 
BRANCH  24  25
HETATM   25  C   UNK N   1      34.768  12.787  16.241  0.00  0.00    -0.000 C 
BRANCH  25  26
HETATM   26  C   UNK N   1      35.157  13.482  17.533  0.00  0.00    -0.005 C 
HETATM   27  C   UNK N   1      35.245  12.467  18.653  0.00  0.00     0.005 C 
ENDBRANCH  25  26
ENDBRANCH  24  25
ENDBRANCH  23  24
ENDBRANCH  22  23
ENDBRANCH  21  22
ENDBRANCH  20  21
ENDBRANCH  11  20
TORSDOF 10
ENDMDL
MODEL 3
REMARK VINA RESULT:      -6.0      1.021      2.604
REMARK  10 active torsions:
REMARK  status: ('A' for Active; 'I' for Inactive)
REMARK    1  A    between atoms: C_2  and  O_1 
REMARK    2  A    between atoms: C_6  and  O_7 
REMARK    3  A    between atoms: C_10  and  O_11 
REMARK    4  A    between atoms: N_14  and  C_16 
REMARK    5  A    between atoms: C_16  and  C_17 
REMARK    6  A    between atoms: C_17  and  C_18 
REMARK    7  A    between atoms: C_18  and  C_19 
REMARK    8  A    between atoms: C_19  and  C_20 
REMARK    9  A    between atoms: C_20  and  C_21 
REMARK   10  A    between atoms: C_21  and  C_22 
ROOT
HETATM    1  C   UNK N   1      19.883  18.527   3.315  0.00  0.00     0.174 C 
HETATM    2  C   UNK N   1      21.213  18.943   2.685  0.00  0.00     0.146 C 
HETATM    3  C   UNK N   1      21.420  20.463   2.417  0.00  0.00     0.207 C 
HETATM    4  O   UNK N   1      22.718  20.723   2.847  0.00  0.00    -0.320 OA
HETATM    5  C   UNK N   1      19.987  17.022   3.670  0.00  0.00     0.182 C 
HETATM    6  C   UNK N   1      21.150  16.781   4.669  0.00  0.00     0.198 C 
HETATM    7  O   UNK N   1      20.885  17.464   5.861  0.00  0.00    -0.389 OA
HETATM    8  C   UNK N   1      22.487  17.275   4.067  0.00  0.00     0.255 C 
HETATM    9  N   UNK N   1      22.297  18.622   3.562  0.00  0.00    -0.309 N 
HETATM   10  C   UNK N   1      23.211  19.667   3.504  0.00  0.00     0.220 C 
HETATM   11  N   UNK N   1      24.428  19.582   3.913  0.00  0.00    -0.356 N 
ATOM     12  HN  UNK N   1      24.729  18.753   4.427  1.00  0.00     0.163 HD
HETATM   13  H   UNK N   1      20.608  17.996   6.623  0.00  0.00     0.210 HD
ENDROOT
BRANCH   5  14
HETATM   14  O   UNK N   1      18.784  16.575   4.223  0.00  0.00    -0.390 OA
HETATM   15  H   UNK N   1      18.024  17.163   4.350  0.00  0.00     0.210 HD
ENDBRANCH   5  14
BRANCH   8  16
HETATM   16  O   UNK N   1      23.501  17.223   5.028  0.00  0.00    -0.374 OA
HETATM   17  H   UNK N   1      24.452  17.287   4.846  0.00  0.00     0.212 HD
ENDBRANCH   8  16
BRANCH   1  18
HETATM   18  O   UNK N   1      18.844  18.743   2.407  0.00  0.00    -0.391 OA
HETATM   19  H   UNK N   1      18.465  19.619   2.239  0.00  0.00     0.210 HD
ENDBRANCH   1  18
BRANCH  11  20
HETATM   20  C   UNK N   1      25.370  20.640   3.657  0.00  0.00     0.123 C 
BRANCH  20  21
HETATM   21  C   UNK N   1      26.686  20.287   4.340  0.00  0.00     0.020 C 
BRANCH  21  22
HETATM   22  C   UNK N   1      26.867  21.075   5.624  0.00  0.00     0.002 C 
BRANCH  22  23
HETATM   23  C   UNK N   1      27.479  20.215   6.715  0.00  0.00     0.000 C 
BRANCH  23  24
HETATM   24  C   UNK N   1      27.903  18.881   6.126  0.00  0.00     0.000 C 
BRANCH  24  25
HETATM   25  C   UNK N   1      28.567  18.022   7.187  0.00  0.00    -0.000 C 
BRANCH  25  26
HETATM   26  C   UNK N   1      28.322  18.619   8.561  0.00  0.00    -0.005 C 
HETATM   27  C   UNK N   1      29.603  18.591   9.367  0.00  0.00     0.005 C 
ENDBRANCH  25  26
ENDBRANCH  24  25
ENDBRANCH  23  24
ENDBRANCH  22  23
ENDBRANCH  21  22
ENDBRANCH  20  21
ENDBRANCH  11  20
TORSDOF 10
ENDMDL
MODEL 4
REMARK VINA RESULT:      -6.0      5.209      7.039
REMARK  10 active torsions:
REMARK  status: ('A' for Active; 'I' for Inactive)
REMARK    1  A    between atoms: C_2  and  O_1 
REMARK    2  A    between atoms: C_6  and  O_7 
REMARK    3  A    between atoms: C_10  and  O_11 
REMARK    4  A    between atoms: N_14  and  C_16 
REMARK    5  A    between atoms: C_16  and  C_17 
REMARK    6  A    between atoms: C_17  and  C_18 
REMARK    7  A    between atoms: C_18  and  C_19 
REMARK    8  A    between atoms: C_19  and  C_20 
REMARK    9  A    between atoms: C_20  and  C_21 
REMARK   10  A    between atoms: C_21  and  C_22 
ROOT
HETATM    1  C   UNK N   1      27.545  18.836   7.686  0.00  0.00     0.174 C 
HETATM    2  C   UNK N   1      28.778  18.404   6.891  0.00  0.00     0.146 C 
HETATM    3  C   UNK N   1      29.207  16.912   7.012  0.00  0.00     0.207 C 
HETATM    4  O   UNK N   1      29.497  16.522   5.709  0.00  0.00    -0.320 OA
HETATM    5  C   UNK N   1      27.197  20.284   7.256  0.00  0.00     0.182 C 
HETATM    6  C   UNK N   1      26.898  20.337   5.734  0.00  0.00     0.198 C 
HETATM    7  O   UNK N   1      25.777  19.548   5.454  0.00  0.00    -0.389 OA
HETATM    8  C   UNK N   1      28.115  19.825   4.928  0.00  0.00     0.255 C 
HETATM    9  N   UNK N   1      28.541  18.556   5.489  0.00  0.00    -0.309 N 
HETATM   10  C   UNK N   1      29.110  17.466   4.843  0.00  0.00     0.220 C 
HETATM   11  N   UNK N   1      29.358  17.426   3.581  0.00  0.00    -0.356 N 
ATOM     12  HN  UNK N   1      29.012  18.172   2.977  1.00  0.00     0.163 HD
HETATM   13  H   UNK N   1      25.013  18.956   5.379  0.00  0.00     0.210 HD
ENDROOT
BRANCH   5  14
HETATM   14  O   UNK N   1      26.093  20.746   7.975  0.00  0.00    -0.390 OA
HETATM   15  H   UNK N   1      26.185  21.272   8.784  0.00  0.00     0.210 HD
ENDBRANCH   5  14
BRANCH   8  16
HETATM   16  O   UNK N   1      27.786  19.706   3.574  0.00  0.00    -0.374 OA
HETATM   17  H   UNK N   1      26.887  19.629   3.219  0.00  0.00     0.212 HD
ENDBRANCH   8  16
BRANCH   1  18
HETATM   18  O   UNK N   1      27.826  18.788   9.054  0.00  0.00    -0.391 OA
HETATM   19  H   UNK N   1      28.591  19.232   9.451  0.00  0.00     0.210 HD
ENDBRANCH   1  18
BRANCH  11  20
HETATM   20  C   UNK N   1      30.114  16.342   3.010  0.00  0.00     0.123 C 
BRANCH  20  21
HETATM   21  C   UNK N   1      31.580  16.752   2.963  0.00  0.00     0.020 C 
BRANCH  21  22
HETATM   22  C   UNK N   1      32.457  15.740   3.678  0.00  0.00     0.002 C 
BRANCH  22  23
HETATM   23  C   UNK N   1      33.515  16.429   4.522  0.00  0.00     0.000 C 
BRANCH  23  24
HETATM   24  C   UNK N   1      32.846  17.420   5.458  0.00  0.00     0.000 C 
BRANCH  24  25
HETATM   25  C   UNK N   1      32.897  16.913   6.887  0.00  0.00    -0.000 C 
BRANCH  25  26
HETATM   26  C   UNK N   1      33.039  18.082   7.845  0.00  0.00    -0.005 C 
HETATM   27  C   UNK N   1      34.503  18.316   8.152  0.00  0.00     0.005 C 
ENDBRANCH  25  26
ENDBRANCH  24  25
ENDBRANCH  23  24
ENDBRANCH  22  23
ENDBRANCH  21  22
ENDBRANCH  20  21
ENDBRANCH  11  20
TORSDOF 10
ENDMDL
MODEL 5
REMARK VINA RESULT:      -6.0      4.095      6.032
REMARK  10 active torsions:
REMARK  status: ('A' for Active; 'I' for Inactive)
REMARK    1  A    between atoms: C_2  and  O_1 
REMARK    2  A    between atoms: C_6  and  O_7 
REMARK    3  A    between atoms: C_10  and  O_11 
REMARK    4  A    between atoms: N_14  and  C_16 
REMARK    5  A    between atoms: C_16  and  C_17 
REMARK    6  A    between atoms: C_17  and  C_18 
REMARK    7  A    between atoms: C_18  and  C_19 
REMARK    8  A    between atoms: C_19  and  C_20 
REMARK    9  A    between atoms: C_20  and  C_21 
REMARK   10  A    between atoms: C_21  and  C_22 
ROOT
HETATM    1  C   UNK N   1      21.392  19.782   3.019  0.00  0.00     0.174 C 
HETATM    2  C   UNK N   1      22.087  18.574   3.648  0.00  0.00     0.146 C 
HETATM    3  C   UNK N   1      22.591  18.735   5.112  0.00  0.00     0.207 C 
HETATM    4  O   UNK N   1      22.214  17.555   5.747  0.00  0.00    -0.320 OA
HETATM    5  C   UNK N   1      20.806  19.326   1.658  0.00  0.00     0.182 C 
HETATM    6  C   UNK N   1      19.788  18.174   1.869  0.00  0.00     0.198 C 
HETATM    7  O   UNK N   1      18.716  18.637   2.639  0.00  0.00    -0.389 OA
HETATM    8  C   UNK N   1      20.467  16.979   2.578  0.00  0.00     0.255 C 
HETATM    9  N   UNK N   1      21.177  17.474   3.743  0.00  0.00    -0.309 N 
HETATM   10  C   UNK N   1      21.403  16.841   4.959  0.00  0.00     0.220 C 
HETATM   11  N   UNK N   1      20.992  15.655   5.240  0.00  0.00    -0.356 N 
ATOM     12  HN  UNK N   1      20.356  15.178   4.600  1.00  0.00     0.163 HD
HETATM   13  H   UNK N   1      18.047  19.061   3.198  0.00  0.00     0.210 HD
ENDROOT
BRANCH   5  14
HETATM   14  O   UNK N   1      20.183  20.401   1.020  0.00  0.00    -0.390 OA
HETATM   15  H   UNK N   1      20.318  21.319   1.303  0.00  0.00     0.210 HD
ENDBRANCH   5  14
BRANCH   8  16
HETATM   16  O   UNK N   1      19.515  16.015   2.925  0.00  0.00    -0.374 OA
HETATM   17  H   UNK N   1      18.816  16.129   3.588  0.00  0.00     0.212 HD
ENDBRANCH   8  16
BRANCH   1  18
HETATM   18  O   UNK N   1      22.318  20.811   2.830  0.00  0.00    -0.391 OA
HETATM   19  H   UNK N   1      23.275  20.661   2.798  0.00  0.00     0.210 HD
ENDBRANCH   1  18
BRANCH  11  20
HETATM   20  C   UNK N   1      21.416  14.992   6.445  0.00  0.00     0.123 C 
BRANCH  20  21
HETATM   21  C   UNK N   1      20.351  15.209   7.513  0.00  0.00     0.020 C 
BRANCH  21  22
HETATM   22  C   UNK N   1      20.961  15.232   8.902  0.00  0.00     0.002 C 
BRANCH  22  23
HETATM   23  C   UNK N   1      20.504  14.039   9.723  0.00  0.00     0.000 C 
BRANCH  23  24
HETATM   24  C   UNK N   1      21.441  12.870   9.476  0.00  0.00     0.000 C 
BRANCH  24  25
HETATM   25  C   UNK N   1      22.542  12.845  10.520  0.00  0.00    -0.000 C 
BRANCH  25  26
HETATM   26  C   UNK N   1      22.098  12.028  11.720  0.00  0.00    -0.005 C 
HETATM   27  C   UNK N   1      23.235  11.920  12.714  0.00  0.00     0.005 C 
ENDBRANCH  25  26
ENDBRANCH  24  25
ENDBRANCH  23  24
ENDBRANCH  22  23
ENDBRANCH  21  22
ENDBRANCH  20  21
ENDBRANCH  11  20
TORSDOF 10
ENDMDL
MODEL 6
REMARK VINA RESULT:      -6.0     12.622     15.442
REMARK  10 active torsions:
REMARK  status: ('A' for Active; 'I' for Inactive)
REMARK    1  A    between atoms: C_2  and  O_1 
REMARK    2  A    between atoms: C_6  and  O_7 
REMARK    3  A    between atoms: C_10  and  O_11 
REMARK    4  A    between atoms: N_14  and  C_16 
REMARK    5  A    between atoms: C_16  and  C_17 
REMARK    6  A    between atoms: C_17  and  C_18 
REMARK    7  A    between atoms: C_18  and  C_19 
REMARK    8  A    between atoms: C_19  and  C_20 
REMARK    9  A    between atoms: C_20  and  C_21 
REMARK   10  A    between atoms: C_21  and  C_22 
ROOT
HETATM    1  C   UNK N   1      35.830  15.215  10.654  0.00  0.00     0.174 C 
HETATM    2  C   UNK N   1      36.050  13.839  10.023  0.00  0.00     0.146 C 
HETATM    3  C   UNK N   1      36.894  12.817  10.840  0.00  0.00     0.207 C 
HETATM    4  O   UNK N   1      36.196  11.618  10.734  0.00  0.00    -0.320 OA
HETATM    5  C   UNK N   1      34.809  15.975   9.769  0.00  0.00     0.182 C 
HETATM    6  C   UNK N   1      33.468  15.196   9.701  0.00  0.00     0.198 C 
HETATM    7  O   UNK N   1      32.915  15.116  10.984  0.00  0.00    -0.389 OA
HETATM    8  C   UNK N   1      33.699  13.774   9.138  0.00  0.00     0.255 C 
HETATM    9  N   UNK N   1      34.799  13.163   9.862  0.00  0.00    -0.309 N 
HETATM   10  C   UNK N   1      34.997  11.825  10.176  0.00  0.00     0.220 C 
HETATM   11  N   UNK N   1      34.186  10.881   9.850  0.00  0.00    -0.356 N 
ATOM     12  HN  UNK N   1      33.278  11.115   9.447  1.00  0.00     0.163 HD
HETATM   13  H   UNK N   1      32.645  15.101  11.915  0.00  0.00     0.210 HD
ENDROOT
BRANCH   5  14
HETATM   14  O   UNK N   1      34.591  17.256  10.280  0.00  0.00    -0.390 OA
HETATM   15  H   UNK N   1      34.678  17.457  11.225  0.00  0.00     0.210 HD
ENDBRANCH   5  14
BRANCH   8  16
HETATM   16  O   UNK N   1      32.530  13.015   9.242  0.00  0.00    -0.374 OA
HETATM   17  H   UNK N   1      32.420  12.224   9.793  0.00  0.00     0.212 HD
ENDBRANCH   8  16
BRANCH   1  18
HETATM   18  O   UNK N   1      37.041  15.908  10.706  0.00  0.00    -0.391 OA
HETATM   19  H   UNK N   1      37.763  15.664  11.305  0.00  0.00     0.210 HD
ENDBRANCH   1  18
BRANCH  11  20
HETATM   20  C   UNK N   1      34.541   9.500  10.047  0.00  0.00     0.123 C 
BRANCH  20  21
HETATM   21  C   UNK N   1      33.881   9.013  11.331  0.00  0.00     0.020 C 
BRANCH  21  22
HETATM   22  C   UNK N   1      34.899   8.394  12.272  0.00  0.00     0.002 C 
BRANCH  22  23
HETATM   23  C   UNK N   1      35.156   9.291  13.470  0.00  0.00     0.000 C 
BRANCH  23  24
HETATM   24  C   UNK N   1      34.198  10.469  13.432  0.00  0.00     0.000 C 
BRANCH  24  25
HETATM   25  C   UNK N   1      33.581  10.691  14.800  0.00  0.00    -0.000 C 
BRANCH  25  26
HETATM   26  C   UNK N   1      34.614  10.429  15.881  0.00  0.00    -0.005 C 
HETATM   27  C   UNK N   1      35.055  11.739  16.497  0.00  0.00     0.005 C 
ENDBRANCH  25  26
ENDBRANCH  24  25
ENDBRANCH  23  24
ENDBRANCH  22  23
ENDBRANCH  21  22
ENDBRANCH  20  21
ENDBRANCH  11  20
TORSDOF 10
ENDMDL
MODEL 7
REMARK VINA RESULT:      -6.0     12.902     15.559
REMARK  10 active torsions:
REMARK  status: ('A' for Active; 'I' for Inactive)
REMARK    1  A    between atoms: C_2  and  O_1 
REMARK    2  A    between atoms: C_6  and  O_7 
REMARK    3  A    between atoms: C_10  and  O_11 
REMARK    4  A    between atoms: N_14  and  C_16 
REMARK    5  A    between atoms: C_16  and  C_17 
REMARK    6  A    between atoms: C_17  and  C_18 
REMARK    7  A    between atoms: C_18  and  C_19 
REMARK    8  A    between atoms: C_19  and  C_20 
REMARK    9  A    between atoms: C_20  and  C_21 
REMARK   10  A    between atoms: C_21  and  C_22 
ROOT
HETATM    1  C   UNK N   1      34.707  15.585   8.892  0.00  0.00     0.174 C 
HETATM    2  C   UNK N   1      34.080  14.372   9.582  0.00  0.00     0.146 C 
HETATM    3  C   UNK N   1      34.121  13.022   8.807  0.00  0.00     0.207 C 
HETATM    4  O   UNK N   1      34.498  12.080   9.759  0.00  0.00    -0.320 OA
HETATM    5  C   UNK N   1      34.731  16.745   9.920  0.00  0.00     0.182 C 
HETATM    6  C   UNK N   1      35.568  16.346  11.164  0.00  0.00     0.198 C 
HETATM    7  O   UNK N   1      36.893  16.117  10.777  0.00  0.00    -0.389 OA
HETATM    8  C   UNK N   1      34.985  15.072  11.819  0.00  0.00     0.255 C 
HETATM    9  N   UNK N   1      34.788  14.070  10.788  0.00  0.00    -0.309 N 
HETATM   10  C   UNK N   1      34.882  12.687  10.888  0.00  0.00     0.220 C 
HETATM   11  N   UNK N   1      35.172  12.062  11.974  0.00  0.00    -0.356 N 
ATOM     12  HN  UNK N   1      35.477  12.591  12.792  1.00  0.00     0.163 HD
HETATM   13  H   UNK N   1      37.767  15.961  10.388  0.00  0.00     0.210 HD
ENDROOT
BRANCH   5  14
HETATM   14  O   UNK N   1      35.266  17.894   9.334  0.00  0.00    -0.390 OA
HETATM   15  H   UNK N   1      34.723  18.670   9.126  0.00  0.00     0.210 HD
ENDBRANCH   5  14
BRANCH   8  16
HETATM   16  O   UNK N   1      35.835  14.611  12.829  0.00  0.00    -0.374 OA
HETATM   17  H   UNK N   1      36.803  14.673  12.820  0.00  0.00     0.212 HD
ENDBRANCH   8  16
BRANCH   1  18
HETATM   18  O   UNK N   1      33.944  15.938   7.776  0.00  0.00    -0.391 OA
HETATM   19  H   UNK N   1      33.167  16.515   7.830  0.00  0.00     0.210 HD
ENDBRANCH   1  18
BRANCH  11  20
HETATM   20  C   UNK N   1      35.073  10.628  12.052  0.00  0.00     0.123 C 
BRANCH  20  21
HETATM   21  C   UNK N   1      33.898  10.276  12.956  0.00  0.00     0.020 C 
BRANCH  21  22
HETATM   22  C   UNK N   1      33.923  11.096  14.233  0.00  0.00     0.002 C 
BRANCH  22  23
HETATM   23  C   UNK N   1      34.355  10.252  15.419  0.00  0.00     0.000 C 
BRANCH  23  24
HETATM   24  C   UNK N   1      35.773  10.627  15.813  0.00  0.00     0.000 C 
BRANCH  24  25
HETATM   25  C   UNK N   1      36.040  12.087  15.500  0.00  0.00    -0.000 C 
BRANCH  25  26
HETATM   26  C   UNK N   1      37.412  12.238  14.868  0.00  0.00    -0.005 C 
HETATM   27  C   UNK N   1      37.921  10.884  14.422  0.00  0.00     0.005 C 
ENDBRANCH  25  26
ENDBRANCH  24  25
ENDBRANCH  23  24
ENDBRANCH  22  23
ENDBRANCH  21  22
ENDBRANCH  20  21
ENDBRANCH  11  20
TORSDOF 10
ENDMDL
MODEL 8
REMARK VINA RESULT:      -5.8      9.734     14.234
REMARK  10 active torsions:
REMARK  status: ('A' for Active; 'I' for Inactive)
REMARK    1  A    between atoms: C_2  and  O_1 
REMARK    2  A    between atoms: C_6  and  O_7 
REMARK    3  A    between atoms: C_10  and  O_11 
REMARK    4  A    between atoms: N_14  and  C_16 
REMARK    5  A    between atoms: C_16  and  C_17 
REMARK    6  A    between atoms: C_17  and  C_18 
REMARK    7  A    between atoms: C_18  and  C_19 
REMARK    8  A    between atoms: C_19  and  C_20 
REMARK    9  A    between atoms: C_20  and  C_21 
REMARK   10  A    between atoms: C_21  and  C_22 
ROOT
HETATM    1  C   UNK N   1      37.229  13.281  11.067  0.00  0.00     0.174 C 
HETATM    2  C   UNK N   1      36.816  14.381  10.088  0.00  0.00     0.146 C 
HETATM    3  C   UNK N   1      37.058  14.105   8.575  0.00  0.00     0.207 C 
HETATM    4  O   UNK N   1      35.891  14.530   7.947  0.00  0.00    -0.320 OA
HETATM    5  C   UNK N   1      36.712  13.688  12.470  0.00  0.00     0.182 C 
HETATM    6  C   UNK N   1      35.167  13.837  12.454  0.00  0.00     0.198 C 
HETATM    7  O   UNK N   1      34.586  12.602  12.148  0.00  0.00    -0.389 OA
HETATM    8  C   UNK N   1      34.739  14.893  11.408  0.00  0.00     0.255 C 
HETATM    9  N   UNK N   1      35.402  14.594  10.151  0.00  0.00    -0.309 N 
HETATM   10  C   UNK N   1      34.947  14.804   8.856  0.00  0.00     0.220 C 
HETATM   11  N   UNK N   1      33.807  15.326   8.569  0.00  0.00    -0.356 N 
ATOM     12  HN  UNK N   1      33.127  15.488   9.312  1.00  0.00     0.163 HD
HETATM   13  H   UNK N   1      34.301  11.708  11.903  0.00  0.00     0.210 HD
ENDROOT
BRANCH   5  14
HETATM   14  O   UNK N   1      37.088  12.731  13.416  0.00  0.00    -0.390 OA
HETATM   15  H   UNK N   1      36.755  11.821  13.391  0.00  0.00     0.210 HD
ENDBRANCH   5  14
BRANCH   8  16
HETATM   16  O   UNK N   1      33.348  14.901  11.266  0.00  0.00    -0.374 OA
HETATM   17  H   UNK N   1      32.828  15.614  10.864  0.00  0.00     0.212 HD
ENDBRANCH   8  16
BRANCH   1  18
HETATM   18  O   UNK N   1      38.620  13.158  11.077  0.00  0.00    -0.391 OA
HETATM   19  H   UNK N   1      39.215  13.910  11.213  0.00  0.00     0.210 HD
ENDBRANCH   1  18
BRANCH  11  20
HETATM   20  C   UNK N   1      33.476  15.682   7.214  0.00  0.00     0.123 C 
BRANCH  20  21
HETATM   21  C   UNK N   1      32.924  17.102   7.212  0.00  0.00     0.020 C 
BRANCH  21  22
HETATM   22  C   UNK N   1      31.407  17.102   7.158  0.00  0.00     0.002 C 
BRANCH  22  23
HETATM   23  C   UNK N   1      30.808  17.064   8.552  0.00  0.00     0.000 C 
BRANCH  23  24
HETATM   24  C   UNK N   1      30.296  18.447   8.918  0.00  0.00     0.000 C 
BRANCH  24  25
HETATM   25  C   UNK N   1      28.779  18.453   8.962  0.00  0.00    -0.000 C 
BRANCH  25  26
HETATM   26  C   UNK N   1      28.229  19.089   7.698  0.00  0.00    -0.005 C 
HETATM   27  C   UNK N   1      27.800  18.009   6.728  0.00  0.00     0.005 C 
ENDBRANCH  25  26
ENDBRANCH  24  25
ENDBRANCH  23  24
ENDBRANCH  22  23
ENDBRANCH  21  22
ENDBRANCH  20  21
ENDBRANCH  11  20
TORSDOF 10
ENDMDL
MODEL 9
REMARK VINA RESULT:      -5.7     11.343     13.427
REMARK  10 active torsions:
REMARK  status: ('A' for Active; 'I' for Inactive)
REMARK    1  A    between atoms: C_2  and  O_1 
REMARK    2  A    between atoms: C_6  and  O_7 
REMARK    3  A    between atoms: C_10  and  O_11 
REMARK    4  A    between atoms: N_14  and  C_16 
REMARK    5  A    between atoms: C_16  and  C_17 
REMARK    6  A    between atoms: C_17  and  C_18 
REMARK    7  A    between atoms: C_18  and  C_19 
REMARK    8  A    between atoms: C_19  and  C_20 
REMARK    9  A    between atoms: C_20  and  C_21 
REMARK   10  A    between atoms: C_21  and  C_22 
ROOT
HETATM    1  C   UNK N   1      31.196  20.890  -4.028  0.00  0.00     0.174 C 
HETATM    2  C   UNK N   1      30.709  21.647  -5.265  0.00  0.00     0.146 C 
HETATM    3  C   UNK N   1      29.706  20.902  -6.195  0.00  0.00     0.207 C 
HETATM    4  O   UNK N   1      28.733  21.851  -6.495  0.00  0.00    -0.320 OA
HETATM    5  C   UNK N   1      32.008  21.887  -3.163  0.00  0.00     0.182 C 
HETATM    6  C   UNK N   1      31.117  23.085  -2.740  0.00  0.00     0.198 C 
HETATM    7  O   UNK N   1      30.063  22.621  -1.946  0.00  0.00    -0.389 OA
HETATM    8  C   UNK N   1      30.556  23.806  -3.988  0.00  0.00     0.255 C 
HETATM    9  N   UNK N   1      29.977  22.812  -4.875  0.00  0.00    -0.309 N 
HETATM   10  C   UNK N   1      28.893  22.939  -5.734  0.00  0.00     0.220 C 
HETATM   11  N   UNK N   1      28.209  24.019  -5.875  0.00  0.00    -0.356 N 
ATOM     12  HN  UNK N   1      28.371  24.804  -5.242  1.00  0.00     0.163 HD
HETATM   13  H   UNK N   1      29.367  22.181  -1.433  0.00  0.00     0.210 HD
ENDROOT
BRANCH   5  14
HETATM   14  O   UNK N   1      32.508  21.242  -2.029  0.00  0.00    -0.390 OA
HETATM   15  H   UNK N   1      33.160  21.657  -1.444  0.00  0.00     0.210 HD
ENDBRANCH   5  14
BRANCH   8  16
HETATM   16  O   UNK N   1      29.616  24.770  -3.612  0.00  0.00    -0.374 OA
HETATM   17  H   UNK N   1      29.236  25.443  -4.198  0.00  0.00     0.212 HD
ENDBRANCH   8  16
BRANCH   1  18
HETATM   18  O   UNK N   1      32.000  19.817  -4.419  0.00  0.00    -0.391 OA
HETATM   19  H   UNK N   1      32.299  19.130  -3.804  0.00  0.00     0.210 HD
ENDBRANCH   1  18
BRANCH  11  20
HETATM   20  C   UNK N   1      27.217  24.137  -6.912  0.00  0.00     0.123 C 
BRANCH  20  21
HETATM   21  C   UNK N   1      26.574  25.513  -6.807  0.00  0.00     0.020 C 
BRANCH  21  22
HETATM   22  C   UNK N   1      25.446  25.518  -5.791  0.00  0.00     0.002 C 
BRANCH  22  23
HETATM   23  C   UNK N   1      24.837  26.902  -5.652  0.00  0.00     0.000 C 
BRANCH  23  24
HETATM   24  C   UNK N   1      25.937  27.910  -5.373  0.00  0.00     0.000 C 
BRANCH  24  25
HETATM   25  C   UNK N   1      26.135  28.075  -3.878  0.00  0.00    -0.000 C 
BRANCH  25  26
HETATM   26  C   UNK N   1      26.354  29.540  -3.544  0.00  0.00    -0.005 C 
HETATM   27  C   UNK N   1      27.149  30.203  -4.649  0.00  0.00     0.005 C 
ENDBRANCH  25  26
ENDBRANCH  24  25
ENDBRANCH  23  24
ENDBRANCH  22  23
ENDBRANCH  21  22
ENDBRANCH  20  21
ENDBRANCH  11  20
TORSDOF 10
ENDMDL
