REMARK  10 active torsions:
REMARK  status: ('A' for Active; 'I' for Inactive)
REMARK    1  A    between atoms: C_2  and  O_1 
REMARK    2  A    between atoms: C_6  and  O_7 
REMARK    3  A    between atoms: C_10  and  O_11 
REMARK    4  A    between atoms: N_14  and  C_16 
REMARK    5  A    between atoms: C_16  and  C_17 
REMARK    6  A    between atoms: C_17  and  C_18 
REMARK    7  A    between atoms: C_18  and  C_19 
REMARK    8  A    between atoms: C_19  and  C_20 
REMARK    9  A    between atoms: C_20  and  C_21 
REMARK   10  A    between atoms: C_21  and  C_22 
ROOT
HETATM    1  C   UNK N   1      -1.675   2.775   0.143  0.00  0.00     0.174 C 
HETATM    2  C   UNK N   1      -0.828   1.588  -0.318  0.00  0.00     0.146 C 
HETATM    3  C   UNK N   1       0.570   1.420   0.347  0.00  0.00     0.207 C 
HETATM    4  O   UNK N   1       0.665   0.061   0.630  0.00  0.00    -0.320 OA
HETATM    5  C   UNK N   1      -3.079   2.621  -0.495  0.00  0.00     0.182 C 
HETATM    6  C   UNK N   1      -3.734   1.289  -0.043  0.00  0.00     0.198 C 
HETATM    7  O   UNK N   1      -3.917   1.310   1.344  0.00  0.00    -0.389 OA
HETATM    8  C   UNK N   1      -2.841   0.089  -0.437  0.00  0.00     0.255 C 
HETATM    9  N   UNK N   1      -1.484   0.358   0.003  0.00  0.00    -0.309 N 
HETATM   10  C   UNK N   1      -0.515  -0.539   0.434  0.00  0.00     0.220 C 
HETATM   11  N   UNK N   1      -0.693  -1.811   0.507  0.00  0.00    -0.356 N 
ATOM     12  HN  UNK N   1      -1.627  -2.197   0.366  1.00  0.00     0.163 HD
HETATM   13  H   UNK N   1      -3.968   1.428   2.305  0.00  0.00     0.210 HD
ENDROOT
BRANCH   5  14
HETATM   14  O   UNK N   1      -3.891   3.698  -0.133  0.00  0.00    -0.390 OA
HETATM   15  H   UNK N   1      -3.525   4.560   0.119  0.00  0.00     0.210 HD
ENDBRANCH   5  14
BRANCH   8  16
HETATM   16  O   UNK N   1      -3.339  -1.092   0.122  0.00  0.00    -0.374 OA
HETATM   17  H   UNK N   1      -4.221  -1.202   0.510  0.00  0.00     0.212 HD
ENDBRANCH   8  16
BRANCH   1  18
HETATM   18  O   UNK N   1      -1.079   3.968  -0.272  0.00  0.00    -0.391 OA
HETATM   19  H   UNK N   1      -0.155   4.024  -0.560  0.00  0.00     0.210 HD
ENDBRANCH   1  18
BRANCH  11  20
HETATM   20  C   UNK N   1       0.407  -2.697   0.786  0.00  0.00     0.123 C 
BRANCH  20  21
HETATM   21  C   UNK N   1       1.045  -3.101  -0.537  0.00  0.00     0.020 C 
BRANCH  21  22
HETATM   22  C   UNK N   1       2.560  -3.074  -0.448  0.00  0.00     0.002 C 
BRANCH  22  23
HETATM   23  C   UNK N   1       3.089  -1.652  -0.512  0.00  0.00     0.000 C 
BRANCH  23  24
HETATM   24  C   UNK N   1       3.714  -1.287   0.823  0.00  0.00     0.000 C 
BRANCH  24  25
HETATM   25  C   UNK N   1       4.864  -0.318   0.620  0.00  0.00    -0.000 C 
BRANCH  25  26
HETATM   26  C   UNK N   1       6.061  -1.051   0.042  0.00  0.00    -0.005 C 
HETATM   27  C   UNK N   1       7.198  -0.077  -0.183  0.00  0.00     0.005 C 
ENDBRANCH  25  26
ENDBRANCH  24  25
ENDBRANCH  23  24
ENDBRANCH  22  23
ENDBRANCH  21  22
ENDBRANCH  20  21
ENDBRANCH  11  20
TORSDOF 10
