MODEL 1
REMARK VINA RESULT:      -5.6      0.000      0.000
REMARK  3 active torsions:
REMARK  status: ('A' for Active; 'I' for Inactive)
REMARK    1  A    between atoms: C_3  and  C_4 
REMARK    2  A    between atoms: C_4  and  N_7 
REMARK    3  A    between atoms: C_10  and  S_11 
ROOT
HETATM    1  C   UNK N   1      31.818  18.025   8.523  0.00  0.00     0.024 A 
HETATM    2  C   UNK N   1      30.461  18.115   8.842  0.00  0.00     0.017 A 
HETATM    3  C   UNK N   1      29.490  17.635   7.952  0.00  0.00     0.007 A 
HETATM    4  C   UNK N   1      29.895  17.087   6.724  0.00  0.00     0.017 A 
HETATM    5  C   UNK N   1      31.253  16.998   6.405  0.00  0.00     0.024 A 
HETATM    6  C   UNK N   1      32.217  17.461   7.308  0.00  0.00     0.058 A 
ENDROOT
BRANCH   3   7
HETATM    7  C   UNK N   1      28.057  17.678   8.319  0.00  0.00     0.102 C 
HETATM    8  N   UNK N   1      27.612  18.596   9.095  0.00  0.00    -0.385 N 
HETATM    9  H   UNK N   1      28.208  19.317   9.400  0.00  0.00     0.157 HD
ATOM     10  HN  UNK N   1      26.638  18.578   9.397  1.00  0.00     0.157 HD
BRANCH   7  11
HETATM   11  N   UNK N   1      27.154  16.743   7.762  0.00  0.00    -0.385 N 
HETATM   12  H   UNK N   1      26.523  17.023   7.060  0.00  0.00     0.157 HD
HETATM   13  H   UNK N   1      27.157  15.809   8.077  0.00  0.00     0.157 HD
ENDBRANCH   7  11
ENDBRANCH   3   7
BRANCH   6  14
HETATM   14  S   UNK N   1      33.958  17.234   6.965  0.00  0.00     0.171 S 
HETATM   15  C   UNK N   1      34.960  15.743   7.216  0.00  0.00     0.167 C 
HETATM   16  O   UNK N   1      34.134  17.627   5.491  0.00  0.00    -0.223 OA
HETATM   17  O   UNK N   1      34.718  18.413   7.593  0.00  0.00    -0.223 OA
ENDBRANCH   6  14
TORSDOF 3
ENDMDL
MODEL 2
REMARK VINA RESULT:      -5.3     11.035     11.936
REMARK  3 active torsions:
REMARK  status: ('A' for Active; 'I' for Inactive)
REMARK    1  A    between atoms: C_3  and  C_4 
REMARK    2  A    between atoms: C_4  and  N_7 
REMARK    3  A    between atoms: C_10  and  S_11 
ROOT
HETATM    1  C   UNK N   1      35.566  10.829  16.416  0.00  0.00     0.024 A 
HETATM    2  C   UNK N   1      35.634  10.978  17.804  0.00  0.00     0.017 A 
HETATM    3  C   UNK N   1      35.337  12.211  18.399  0.00  0.00     0.007 A 
HETATM    4  C   UNK N   1      34.995  13.303  17.586  0.00  0.00     0.017 A 
HETATM    5  C   UNK N   1      34.929  13.154  16.197  0.00  0.00     0.024 A 
HETATM    6  C   UNK N   1      35.208  11.914  15.611  0.00  0.00     0.058 A 
ENDROOT
BRANCH   3   7
HETATM    7  C   UNK N   1      35.352  12.349  19.873  0.00  0.00     0.102 C 
HETATM    8  N   UNK N   1      36.041  11.544  20.594  0.00  0.00    -0.385 N 
HETATM    9  H   UNK N   1      36.617  10.869  20.169  0.00  0.00     0.157 HD
ATOM     10  HN  UNK N   1      35.991  11.604  21.611  1.00  0.00     0.157 HD
BRANCH   7  11
HETATM   11  N   UNK N   1      34.656  13.413  20.493  0.00  0.00    -0.385 N 
HETATM   12  H   UNK N   1      34.787  13.597  21.451  0.00  0.00     0.157 HD
HETATM   13  H   UNK N   1      34.040  13.971  19.964  0.00  0.00     0.157 HD
ENDBRANCH   7  11
ENDBRANCH   3   7
BRANCH   6  14
HETATM   14  S   UNK N   1      35.000  11.681  13.849  0.00  0.00     0.171 S 
HETATM   15  C   UNK N   1      33.962  10.459  13.001  0.00  0.00     0.167 C 
HETATM   16  O   UNK N   1      34.578  13.055  13.308  0.00  0.00    -0.223 OA
HETATM   17  O   UNK N   1      36.399  11.621  13.215  0.00  0.00    -0.223 OA
ENDBRANCH   6  14
TORSDOF 3
ENDMDL
MODEL 3
REMARK VINA RESULT:      -5.1     16.296     17.042
REMARK  3 active torsions:
REMARK  status: ('A' for Active; 'I' for Inactive)
REMARK    1  A    between atoms: C_3  and  C_4 
REMARK    2  A    between atoms: C_4  and  N_7 
REMARK    3  A    between atoms: C_10  and  S_11 
ROOT
HETATM    1  C   UNK N   1      26.123  24.373  -5.417  0.00  0.00     0.024 A 
HETATM    2  C   UNK N   1      26.143  25.363  -4.430  0.00  0.00     0.017 A 
HETATM    3  C   UNK N   1      25.902  26.702  -4.767  0.00  0.00     0.007 A 
HETATM    4  C   UNK N   1      25.666  27.042  -6.109  0.00  0.00     0.017 A 
HETATM    5  C   UNK N   1      25.647  26.051  -7.094  0.00  0.00     0.024 A 
HETATM    6  C   UNK N   1      25.870  24.714  -6.748  0.00  0.00     0.058 A 
ENDROOT
BRANCH   3   7
HETATM    7  C   UNK N   1      25.865  27.740  -3.712  0.00  0.00     0.102 C 
HETATM    8  N   UNK N   1      25.965  27.414  -2.476  0.00  0.00    -0.385 N 
HETATM    9  H   UNK N   1      26.134  26.478  -2.224  0.00  0.00     0.157 HD
ATOM     10  HN  UNK N   1      25.870  28.128  -1.754  1.00  0.00     0.157 HD
BRANCH   7  11
HETATM   11  N   UNK N   1      25.784  29.107  -4.065  0.00  0.00    -0.385 N 
HETATM   12  H   UNK N   1      25.161  29.704  -3.590  0.00  0.00     0.157 HD
HETATM   13  H   UNK N   1      26.352  29.463  -4.787  0.00  0.00     0.157 HD
ENDBRANCH   7  11
ENDBRANCH   3   7
BRANCH   6  14
HETATM   14  S   UNK N   1      25.720  23.425  -7.980  0.00  0.00     0.171 S 
HETATM   15  C   UNK N   1      27.039  22.399  -8.687  0.00  0.00     0.167 C 
HETATM   16  O   UNK N   1      24.671  22.453  -7.421  0.00  0.00    -0.223 OA
HETATM   17  O   UNK N   1      24.893  23.986  -9.148  0.00  0.00    -0.223 OA
ENDBRANCH   6  14
TORSDOF 3
ENDMDL
MODEL 4
REMARK VINA RESULT:      -5.1      0.866      1.837
REMARK  3 active torsions:
REMARK  status: ('A' for Active; 'I' for Inactive)
REMARK    1  A    between atoms: C_3  and  C_4 
REMARK    2  A    between atoms: C_4  and  N_7 
REMARK    3  A    between atoms: C_10  and  S_11 
ROOT
HETATM    1  C   UNK N   1      31.472  16.457   7.025  0.00  0.00     0.024 A 
HETATM    2  C   UNK N   1      30.101  16.729   7.033  0.00  0.00     0.017 A 
HETATM    3  C   UNK N   1      29.589  17.761   7.830  0.00  0.00     0.007 A 
HETATM    4  C   UNK N   1      30.464  18.502   8.641  0.00  0.00     0.017 A 
HETATM    5  C   UNK N   1      31.835  18.229   8.633  0.00  0.00     0.024 A 
HETATM    6  C   UNK N   1      32.341  17.209   7.819  0.00  0.00     0.058 A 
ENDROOT
BRANCH   3   7
HETATM    7  C   UNK N   1      28.145  18.085   7.791  0.00  0.00     0.102 C 
HETATM    8  N   UNK N   1      27.445  17.808   6.755  0.00  0.00    -0.385 N 
HETATM    9  H   UNK N   1      27.847  17.319   6.002  0.00  0.00     0.157 HD
ATOM     10  HN  UNK N   1      26.467  18.097   6.710  1.00  0.00     0.157 HD
BRANCH   7  11
HETATM   11  N   UNK N   1      27.514  18.645   8.927  0.00  0.00    -0.385 N 
HETATM   12  H   UNK N   1      27.169  19.567   8.896  0.00  0.00     0.157 HD
HETATM   13  H   UNK N   1      27.418  18.111   9.749  0.00  0.00     0.157 HD
ENDBRANCH   7  11
ENDBRANCH   3   7
BRANCH   6  14
HETATM   14  S   UNK N   1      34.106  16.938   7.705  0.00  0.00     0.171 S 
HETATM   15  C   UNK N   1      34.977  15.624   6.807  0.00  0.00     0.167 C 
HETATM   16  O   UNK N   1      34.686  18.265   7.194  0.00  0.00    -0.223 OA
HETATM   17  O   UNK N   1      34.682  16.987   9.129  0.00  0.00    -0.223 OA
ENDBRANCH   6  14
TORSDOF 3
ENDMDL
MODEL 5
REMARK VINA RESULT:      -5.0     17.241     17.947
REMARK  3 active torsions:
REMARK  status: ('A' for Active; 'I' for Inactive)
REMARK    1  A    between atoms: C_3  and  C_4 
REMARK    2  A    between atoms: C_4  and  N_7 
REMARK    3  A    between atoms: C_10  and  S_11 
ROOT
HETATM    1  C   UNK N   1      27.145  27.642  -6.840  0.00  0.00     0.024 A 
HETATM    2  C   UNK N   1      27.269  28.526  -5.764  0.00  0.00     0.017 A 
HETATM    3  C   UNK N   1      26.330  28.511  -4.724  0.00  0.00     0.007 A 
HETATM    4  C   UNK N   1      25.248  27.618  -4.787  0.00  0.00     0.017 A 
HETATM    5  C   UNK N   1      25.124  26.736  -5.864  0.00  0.00     0.024 A 
HETATM    6  C   UNK N   1      26.077  26.743  -6.889  0.00  0.00     0.058 A 
ENDROOT
BRANCH   3   7
HETATM    7  C   UNK N   1      26.497  29.407  -3.557  0.00  0.00     0.102 C 
HETATM    8  N   UNK N   1      27.089  28.992  -2.499  0.00  0.00    -0.385 N 
HETATM    9  H   UNK N   1      27.495  28.095  -2.479  0.00  0.00     0.157 HD
ATOM     10  HN  UNK N   1      27.138  29.592  -1.676  1.00  0.00     0.157 HD
BRANCH   7  11
HETATM   11  N   UNK N   1      26.060  30.750  -3.627  0.00  0.00    -0.385 N 
HETATM   12  H   UNK N   1      26.414  31.350  -4.323  0.00  0.00     0.157 HD
HETATM   13  H   UNK N   1      25.401  31.088  -2.976  0.00  0.00     0.157 HD
ENDBRANCH   7  11
ENDBRANCH   3   7
BRANCH   6  14
HETATM   14  S   UNK N   1      25.997  25.531  -8.204  0.00  0.00     0.171 S 
HETATM   15  C   UNK N   1      25.423  25.771  -9.908  0.00  0.00     0.167 C 
HETATM   16  O   UNK N   1      27.416  24.953  -8.305  0.00  0.00    -0.223 OA
HETATM   17  O   UNK N   1      25.295  24.282  -7.649  0.00  0.00    -0.223 OA
ENDBRANCH   6  14
TORSDOF 3
ENDMDL
MODEL 6
REMARK VINA RESULT:      -5.0      8.698     10.148
REMARK  3 active torsions:
REMARK  status: ('A' for Active; 'I' for Inactive)
REMARK    1  A    between atoms: C_3  and  C_4 
REMARK    2  A    between atoms: C_4  and  N_7 
REMARK    3  A    between atoms: C_10  and  S_11 
ROOT
HETATM    1  C   UNK N   1      23.872  20.586   2.840  0.00  0.00     0.024 A 
HETATM    2  C   UNK N   1      25.208  20.388   3.200  0.00  0.00     0.017 A 
HETATM    3  C   UNK N   1      25.566  19.319   4.033  0.00  0.00     0.007 A 
HETATM    4  C   UNK N   1      24.565  18.464   4.522  0.00  0.00     0.017 A 
HETATM    5  C   UNK N   1      23.229  18.663   4.162  0.00  0.00     0.024 A 
HETATM    6  C   UNK N   1      22.882  19.721   3.315  0.00  0.00     0.058 A 
ENDROOT
BRANCH   3   7
HETATM    7  C   UNK N   1      26.988  19.077   4.364  0.00  0.00     0.102 C 
HETATM    8  N   UNK N   1      27.914  19.736   3.772  0.00  0.00    -0.385 N 
HETATM    9  H   UNK N   1      27.683  20.454   3.140  0.00  0.00     0.157 HD
ATOM     10  HN  UNK N   1      28.892  19.514   3.957  1.00  0.00     0.157 HD
BRANCH   7  11
HETATM   11  N   UNK N   1      27.332  18.160   5.385  0.00  0.00    -0.385 N 
HETATM   12  H   UNK N   1      27.931  18.437   6.116  0.00  0.00     0.157 HD
HETATM   13  H   UNK N   1      26.971  17.244   5.365  0.00  0.00     0.157 HD
ENDBRANCH   7  11
ENDBRANCH   3   7
BRANCH   6  14
HETATM   14  S   UNK N   1      21.196  19.907   2.746  0.00  0.00     0.171 S 
HETATM   15  C   UNK N   1      20.062  18.611   2.174  0.00  0.00     0.167 C 
HETATM   16  O   UNK N   1      20.467  20.646   3.878  0.00  0.00    -0.223 OA
HETATM   17  O   UNK N   1      21.173  21.035   1.703  0.00  0.00    -0.223 OA
ENDBRANCH   6  14
TORSDOF 3
ENDMDL
MODEL 7
REMARK VINA RESULT:      -4.9     10.156     11.327
REMARK  3 active torsions:
REMARK  status: ('A' for Active; 'I' for Inactive)
REMARK    1  A    between atoms: C_3  and  C_4 
REMARK    2  A    between atoms: C_4  and  N_7 
REMARK    3  A    between atoms: C_10  and  S_11 
ROOT
HETATM    1  C   UNK N   1      20.392  14.437   9.357  0.00  0.00     0.024 A 
HETATM    2  C   UNK N   1      21.157  13.566  10.137  0.00  0.00     0.017 A 
HETATM    3  C   UNK N   1      22.447  13.199   9.731  0.00  0.00     0.007 A 
HETATM    4  C   UNK N   1      22.953  13.695   8.518  0.00  0.00     0.017 A 
HETATM    5  C   UNK N   1      22.187  14.565   7.738  0.00  0.00     0.024 A 
HETATM    6  C   UNK N   1      20.907  14.943   8.160  0.00  0.00     0.058 A 
ENDROOT
BRANCH   3   7
HETATM    7  C   UNK N   1      23.277  12.323  10.589  0.00  0.00     0.102 C 
HETATM    8  N   UNK N   1      24.511  12.598  10.795  0.00  0.00    -0.385 N 
HETATM    9  H   UNK N   1      24.900  13.429  10.438  0.00  0.00     0.157 HD
ATOM     10  HN  UNK N   1      25.092  11.953  11.330  1.00  0.00     0.157 HD
BRANCH   7  11
HETATM   11  N   UNK N   1      22.695  11.211  11.240  0.00  0.00    -0.385 N 
HETATM   12  H   UNK N   1      22.054  11.349  11.975  0.00  0.00     0.157 HD
HETATM   13  H   UNK N   1      22.931  10.297  10.958  0.00  0.00     0.157 HD
ENDBRANCH   7  11
ENDBRANCH   3   7
BRANCH   6  14
HETATM   14  S   UNK N   1      19.971  16.155   7.234  0.00  0.00     0.171 S 
HETATM   15  C   UNK N   1      19.541  16.124   5.472  0.00  0.00     0.167 C 
HETATM   16  O   UNK N   1      18.648  16.313   7.998  0.00  0.00    -0.223 OA
HETATM   17  O   UNK N   1      20.563  17.540   7.543  0.00  0.00    -0.223 OA
ENDBRANCH   6  14
TORSDOF 3
ENDMDL
MODEL 8
REMARK VINA RESULT:      -4.9     13.276     13.873
REMARK  3 active torsions:
REMARK  status: ('A' for Active; 'I' for Inactive)
REMARK    1  A    between atoms: C_3  and  C_4 
REMARK    2  A    between atoms: C_4  and  N_7 
REMARK    3  A    between atoms: C_10  and  S_11 
ROOT
HETATM    1  C   UNK N   1      29.351  25.289  -4.122  0.00  0.00     0.024 A 
HETATM    2  C   UNK N   1      28.356  26.247  -4.334  0.00  0.00     0.017 A 
HETATM    3  C   UNK N   1      27.039  26.004  -3.920  0.00  0.00     0.007 A 
HETATM    4  C   UNK N   1      26.725  24.778  -3.312  0.00  0.00     0.017 A 
HETATM    5  C   UNK N   1      27.720  23.820  -3.101  0.00  0.00     0.024 A 
HETATM    6  C   UNK N   1      29.037  24.077  -3.500  0.00  0.00     0.058 A 
ENDROOT
BRANCH   3   7
HETATM    7  C   UNK N   1      26.000  27.044  -4.093  0.00  0.00     0.102 C 
HETATM    8  N   UNK N   1      25.292  27.083  -5.159  0.00  0.00    -0.385 N 
HETATM    9  H   UNK N   1      25.388  26.382  -5.843  0.00  0.00     0.157 HD
ATOM     10  HN  UNK N   1      24.626  27.844  -5.299  1.00  0.00     0.157 HD
BRANCH   7  11
HETATM   11  N   UNK N   1      25.738  27.965  -3.051  0.00  0.00    -0.385 N 
HETATM   12  H   UNK N   1      25.208  28.775  -3.229  0.00  0.00     0.157 HD
HETATM   13  H   UNK N   1      26.088  27.796  -2.146  0.00  0.00     0.157 HD
ENDBRANCH   7  11
ENDBRANCH   3   7
BRANCH   6  14
HETATM   14  S   UNK N   1      30.340  22.912  -3.118  0.00  0.00     0.171 S 
HETATM   15  C   UNK N   1      30.470  21.177  -3.629  0.00  0.00     0.167 C 
HETATM   16  O   UNK N   1      31.638  23.594  -3.578  0.00  0.00    -0.223 OA
HETATM   17  O   UNK N   1      30.592  22.970  -1.604  0.00  0.00    -0.223 OA
ENDBRANCH   6  14
TORSDOF 3
ENDMDL
MODEL 9
REMARK VINA RESULT:      -4.7     12.693     13.744
REMARK  3 active torsions:
REMARK  status: ('A' for Active; 'I' for Inactive)
REMARK    1  A    between atoms: C_3  and  C_4 
REMARK    2  A    between atoms: C_4  and  N_7 
REMARK    3  A    between atoms: C_10  and  S_11 
ROOT
HETATM    1  C   UNK N   1      29.250  22.811  -5.032  0.00  0.00     0.024 A 
HETATM    2  C   UNK N   1      30.330  21.931  -4.918  0.00  0.00     0.017 A 
HETATM    3  C   UNK N   1      30.966  21.747  -3.683  0.00  0.00     0.007 A 
HETATM    4  C   UNK N   1      30.524  22.476  -2.567  0.00  0.00     0.017 A 
HETATM    5  C   UNK N   1      29.444  23.356  -2.682  0.00  0.00     0.024 A 
HETATM    6  C   UNK N   1      28.802  23.520  -3.914  0.00  0.00     0.058 A 
ENDROOT
BRANCH   3   7
HETATM    7  C   UNK N   1      32.071  20.771  -3.552  0.00  0.00     0.102 C 
HETATM    8  N   UNK N   1      32.131  19.751  -4.325  0.00  0.00    -0.385 N 
HETATM    9  H   UNK N   1      31.480  19.644  -5.055  0.00  0.00     0.157 HD
ATOM     10  HN  UNK N   1      32.857  19.048  -4.183  1.00  0.00     0.157 HD
BRANCH   7  11
HETATM   11  N   UNK N   1      33.106  20.993  -2.614  0.00  0.00    -0.385 N 
HETATM   12  H   UNK N   1      32.891  21.313  -1.708  0.00  0.00     0.157 HD
HETATM   13  H   UNK N   1      34.043  20.826  -2.867  0.00  0.00     0.157 HD
ENDBRANCH   7  11
ENDBRANCH   3   7
BRANCH   6  14
HETATM   14  S   UNK N   1      27.340  24.545  -4.042  0.00  0.00     0.171 S 
HETATM   15  C   UNK N   1      26.051  24.495  -5.317  0.00  0.00     0.167 C 
HETATM   16  O   UNK N   1      26.620  24.389  -2.695  0.00  0.00    -0.223 OA
HETATM   17  O   UNK N   1      27.779  26.009  -3.883  0.00  0.00    -0.223 OA
ENDBRANCH   6  14
TORSDOF 3
ENDMDL
