REMARK  3 active torsions:
REMARK  status: ('A' for Active; 'I' for Inactive)
REMARK    1  A    between atoms: C_3  and  C_4 
REMARK    2  A    between atoms: C_4  and  N_7 
REMARK    3  A    between atoms: C_10  and  S_11 
ROOT
HETATM    1  C   UNK N   1       1.161   0.425   0.155  0.00  0.00     0.024 A 
HETATM    2  C   UNK N   1       1.271  -0.968   0.116  0.00  0.00     0.017 A 
HETATM    3  C   UNK N   1       0.121  -1.768   0.078  0.00  0.00     0.007 A 
HETATM    4  C   UNK N   1      -1.143  -1.157   0.106  0.00  0.00     0.017 A 
HETATM    5  C   UNK N   1      -1.252   0.236   0.146  0.00  0.00     0.024 A 
HETATM    6  C   UNK N   1      -0.099   1.029   0.164  0.00  0.00     0.058 A 
ENDROOT
BRANCH   3   7
HETATM    7  C   UNK N   1       0.241  -3.240  -0.023  0.00  0.00     0.102 C 
HETATM    8  N   UNK N   1      -0.807  -3.973  -0.105  0.00  0.00    -0.385 N 
HETATM    9  H   UNK N   1      -1.697  -3.558  -0.168  0.00  0.00     0.157 HD
ATOM     10  HN  UNK N   1      -0.717  -4.989  -0.105  1.00  0.00     0.157 HD
BRANCH   7  11
HETATM   11  N   UNK N   1       1.518  -3.844  -0.095  0.00  0.00    -0.385 N 
HETATM   12  H   UNK N   1       1.599  -4.824  -0.145  0.00  0.00     0.157 HD
HETATM   13  H   UNK N   1       2.328  -3.283  -0.095  0.00  0.00     0.157 HD
ENDBRANCH   7  11
ENDBRANCH   3   7
BRANCH   6  14
HETATM   14  S   UNK N   1      -0.228   2.812   0.085  0.00  0.00     0.171 S 
HETATM   15  C   UNK N   1       0.600   4.038   1.135  0.00  0.00     0.167 C 
HETATM   16  O   UNK N   1       0.125   3.178  -1.364  0.00  0.00    -0.223 OA
HETATM   17  O   UNK N   1      -1.721   3.173   0.040  0.00  0.00    -0.223 OA
ENDBRANCH   6  14
TORSDOF 3
