MODEL 1
REMARK VINA RESULT:      -8.0      0.000      0.000
REMARK  5 active torsions:
REMARK  status: ('A' for Active; 'I' for Inactive)
REMARK    1  A    between atoms: C_9  and  C_8 
REMARK    2  A    between atoms: C_10  and  C_9 
REMARK    3  A    between atoms: S_21  and  C_20 
REMARK    4  A    between atoms: N_24  and  S_21 
REMARK    5  A    between atoms: N_24  and  C_26 
ROOT
HETATM    1  C   UNK N   1      29.951  17.604   7.644  0.00  0.00     0.028 A 
HETATM    2  C   UNK N   1      31.037  17.262   6.971  0.00  0.00     0.004 A 
HETATM    3  C   UNK N   1      31.146  16.669   5.727  0.00  0.00     0.039 A 
HETATM    4  C   UNK N   1      30.476  18.136   8.896  0.00  0.00     0.253 A 
HETATM    5  O   UNK N   1      29.829  18.542   9.848  0.00  0.00    -0.268 OA
HETATM    6  N   UNK N   1      31.826  18.076   8.865  0.00  0.00    -0.322 N 
ATOM      7  HN  UNK N   1      32.465  18.380   9.599  1.00  0.00     0.169 HD
HETATM    8  C   UNK N   1      32.149  17.563   7.733  0.00  0.00     0.046 A 
HETATM    9  C   UNK N   1      33.440  17.287   7.274  0.00  0.00     0.032 A 
HETATM   10  C   UNK N   1      33.574  16.674   6.005  0.00  0.00     0.027 A 
HETATM   11  C   UNK N   1      32.423  16.372   5.232  0.00  0.00     0.081 A 
ENDROOT
BRANCH  11  12
HETATM   12  S   UNK N   1      32.491  15.470   3.687  0.00  0.00     0.265 S 
HETATM   13  O   UNK N   1      33.952  15.087   3.401  0.00  0.00    -0.200 OA
HETATM   14  O   UNK N   1      32.277  16.467   2.539  0.00  0.00    -0.200 OA
BRANCH  12  15
HETATM   15  N   UNK N   1      31.563  14.060   3.174  0.00  0.00    -0.276 N 
HETATM   16  C   UNK N   1      32.145  13.204   2.165  0.00  0.00     0.170 C 
BRANCH  15  17
HETATM   17  C   UNK N   1      30.161  13.991   3.426  0.00  0.00     0.046 A 
HETATM   18  C   UNK N   1      29.676  13.507   4.650  0.00  0.00     0.030 A 
HETATM   19  C   UNK N   1      28.301  13.469   4.901  0.00  0.00     0.004 A 
HETATM   20  C   UNK N   1      27.401  13.954   3.948  0.00  0.00     0.024 A 
HETATM   21  C   UNK N   1      27.874  14.456   2.734  0.00  0.00     0.036 A 
HETATM   22  C   UNK N   1      29.244  14.459   2.467  0.00  0.00     0.054 A 
HETATM   23 Cl   UNK N   1      26.757  15.128   1.566  0.00  0.00    -0.084 Cl
ENDBRANCH  15  17
ENDBRANCH  12  15
ENDBRANCH  11  12
BRANCH   1  24
HETATM   24  C   UNK N   1      28.533  17.384   7.203  0.00  0.00     0.103 C 
BRANCH  24  25
HETATM   25  C   UNK N   1      27.922  18.574   6.534  0.00  0.00     0.020 A 
HETATM   26  N   UNK N   1      27.462  19.659   7.192  0.00  0.00    -0.362 N 
HETATM   27  C   UNK N   1      26.935  20.472   6.252  0.00  0.00     0.012 A 
HETATM   28  H   UNK N   1      27.503  19.824   8.162  0.00  0.00     0.165 HD
HETATM   29  C   UNK N   1      27.058  19.909   4.998  0.00  0.00    -0.032 A 
HETATM   30  C   UNK N   1      26.295  21.781   6.560  0.00  0.00     0.068 C 
HETATM   31  C   UNK N   1      26.585  20.488   3.707  0.00  0.00     0.050 C 
HETATM   32  C   UNK N   1      27.687  18.699   5.176  0.00  0.00    -0.031 A 
HETATM   33  C   UNK N   1      28.031  17.711   4.113  0.00  0.00     0.051 C 
ENDBRANCH  24  25
ENDBRANCH   1  24
TORSDOF 5
ENDMDL
MODEL 2
REMARK VINA RESULT:      -7.7      8.088     10.596
REMARK  5 active torsions:
REMARK  status: ('A' for Active; 'I' for Inactive)
REMARK    1  A    between atoms: C_9  and  C_8 
REMARK    2  A    between atoms: C_10  and  C_9 
REMARK    3  A    between atoms: S_21  and  C_20 
REMARK    4  A    between atoms: N_24  and  S_21 
REMARK    5  A    between atoms: N_24  and  C_26 
ROOT
HETATM    1  C   UNK N   1      20.615  18.305   2.472  0.00  0.00     0.028 A 
HETATM    2  C   UNK N   1      20.197  17.061   2.303  0.00  0.00     0.004 A 
HETATM    3  C   UNK N   1      20.064  16.049   3.233  0.00  0.00     0.039 A 
HETATM    4  C   UNK N   1      20.577  18.867   1.126  0.00  0.00     0.253 A 
HETATM    5  O   UNK N   1      20.917  19.990   0.792  0.00  0.00    -0.268 OA
HETATM    6  N   UNK N   1      20.136  17.919   0.270  0.00  0.00    -0.322 N 
ATOM      7  HN  UNK N   1      20.004  18.024  -0.736  1.00  0.00     0.169 HD
HETATM    8  C   UNK N   1      19.914  16.863   0.965  0.00  0.00     0.046 A 
HETATM    9  C   UNK N   1      19.471  15.625   0.494  0.00  0.00     0.032 A 
HETATM   10  C   UNK N   1      19.333  14.570   1.429  0.00  0.00     0.027 A 
HETATM   11  C   UNK N   1      19.626  14.790   2.800  0.00  0.00     0.081 A 
ENDROOT
BRANCH  11  12
HETATM   12  S   UNK N   1      19.618  13.482   4.023  0.00  0.00     0.265 S 
HETATM   13  O   UNK N   1      19.461  12.133   3.303  0.00  0.00    -0.200 OA
HETATM   14  O   UNK N   1      18.270  13.519   4.758  0.00  0.00    -0.200 OA
BRANCH  12  15
HETATM   15  N   UNK N   1      20.773  13.154   5.316  0.00  0.00    -0.276 N 
HETATM   16  C   UNK N   1      21.503  11.907   5.264  0.00  0.00     0.170 C 
BRANCH  15  17
HETATM   17  C   UNK N   1      20.696  13.869   6.547  0.00  0.00     0.046 A 
HETATM   18  C   UNK N   1      20.261  15.202   6.576  0.00  0.00     0.030 A 
HETATM   19  C   UNK N   1      20.160  15.888   7.791  0.00  0.00     0.004 A 
HETATM   20  C   UNK N   1      20.453  15.233   8.991  0.00  0.00     0.024 A 
HETATM   21  C   UNK N   1      20.869  13.900   8.975  0.00  0.00     0.036 A 
HETATM   22  C   UNK N   1      21.006  13.227   7.760  0.00  0.00     0.054 A 
HETATM   23 Cl   UNK N   1      21.171  13.056  10.479  0.00  0.00    -0.084 Cl
ENDBRANCH  15  17
ENDBRANCH  12  15
ENDBRANCH  11  12
BRANCH   1  24
HETATM   24  C   UNK N   1      21.089  18.909   3.762  0.00  0.00     0.103 C 
BRANCH  24  25
HETATM   25  C   UNK N   1      22.572  19.092   3.829  0.00  0.00     0.020 A 
HETATM   26  N   UNK N   1      23.250  20.033   3.139  0.00  0.00    -0.362 N 
HETATM   27  C   UNK N   1      24.557  19.832   3.415  0.00  0.00     0.012 A 
HETATM   28  H   UNK N   1      22.869  20.727   2.552  0.00  0.00     0.165 HD
HETATM   29  C   UNK N   1      24.712  18.766   4.278  0.00  0.00    -0.032 A 
HETATM   30  C   UNK N   1      25.656  20.651   2.834  0.00  0.00     0.068 C 
HETATM   31  C   UNK N   1      25.997  18.223   4.806  0.00  0.00     0.050 C 
HETATM   32  C   UNK N   1      23.448  18.294   4.543  0.00  0.00    -0.031 A 
HETATM   33  C   UNK N   1      23.096  17.137   5.416  0.00  0.00     0.051 C 
ENDBRANCH  24  25
ENDBRANCH   1  24
TORSDOF 5
ENDMDL
MODEL 3
REMARK VINA RESULT:      -7.6     12.124     15.115
REMARK  5 active torsions:
REMARK  status: ('A' for Active; 'I' for Inactive)
REMARK    1  A    between atoms: C_9  and  C_8 
REMARK    2  A    between atoms: C_10  and  C_9 
REMARK    3  A    between atoms: S_21  and  C_20 
REMARK    4  A    between atoms: N_24  and  S_21 
REMARK    5  A    between atoms: N_24  and  C_26 
ROOT
HETATM    1  C   UNK N   1      30.042  21.743  -5.322  0.00  0.00     0.028 A 
HETATM    2  C   UNK N   1      29.135  21.809  -6.282  0.00  0.00     0.004 A 
HETATM    3  C   UNK N   1      28.109  22.718  -6.454  0.00  0.00     0.039 A 
HETATM    4  C   UNK N   1      30.814  20.552  -5.660  0.00  0.00     0.253 A 
HETATM    5  O   UNK N   1      31.742  20.075  -5.026  0.00  0.00    -0.268 OA
HETATM    6  N   UNK N   1      30.311  20.012  -6.793  0.00  0.00    -0.322 N 
ATOM      7  HN  UNK N   1      30.650  19.177  -7.270  1.00  0.00     0.169 HD
HETATM    8  C   UNK N   1      29.327  20.754  -7.153  0.00  0.00     0.046 A 
HETATM    9  C   UNK N   1      28.492  20.564  -8.257  0.00  0.00     0.032 A 
HETATM   10  C   UNK N   1      27.430  21.480  -8.450  0.00  0.00     0.027 A 
HETATM   11  C   UNK N   1      27.246  22.560  -7.548  0.00  0.00     0.081 A 
ENDROOT
BRANCH  11  12
HETATM   12  S   UNK N   1      25.850  23.677  -7.632  0.00  0.00     0.265 S 
HETATM   13  O   UNK N   1      25.184  23.743  -6.248  0.00  0.00    -0.200 OA
HETATM   14  O   UNK N   1      24.722  22.980  -8.406  0.00  0.00    -0.200 OA
BRANCH  12  15
HETATM   15  N   UNK N   1      25.780  25.337  -8.227  0.00  0.00    -0.276 N 
HETATM   16  C   UNK N   1      25.487  25.535  -9.629  0.00  0.00     0.170 C 
BRANCH  15  17
HETATM   17  C   UNK N   1      26.379  26.394  -7.481  0.00  0.00     0.046 A 
HETATM   18  C   UNK N   1      27.506  27.069  -7.972  0.00  0.00     0.030 A 
HETATM   19  C   UNK N   1      28.071  28.124  -7.248  0.00  0.00     0.004 A 
HETATM   20  C   UNK N   1      27.487  28.542  -6.048  0.00  0.00     0.024 A 
HETATM   21  C   UNK N   1      26.353  27.889  -5.560  0.00  0.00     0.036 A 
HETATM   22  C   UNK N   1      25.812  26.811  -6.263  0.00  0.00     0.054 A 
HETATM   23 Cl   UNK N   1      25.579  28.452  -4.095  0.00  0.00    -0.084 Cl
ENDBRANCH  15  17
ENDBRANCH  12  15
ENDBRANCH  11  12
BRANCH   1  24
HETATM   24  C   UNK N   1      30.144  22.659  -4.137  0.00  0.00     0.103 C 
BRANCH  24  25
HETATM   25  C   UNK N   1      30.846  23.946  -4.433  0.00  0.00     0.020 A 
HETATM   26  N   UNK N   1      32.166  24.043  -4.701  0.00  0.00    -0.362 N 
HETATM   27  C   UNK N   1      32.423  25.361  -4.847  0.00  0.00     0.012 A 
HETATM   28  H   UNK N   1      32.811  23.303  -4.775  0.00  0.00     0.165 HD
HETATM   29  C   UNK N   1      31.271  26.102  -4.673  0.00  0.00    -0.032 A 
HETATM   30  C   UNK N   1      33.777  25.909  -5.133  0.00  0.00     0.068 C 
HETATM   31  C   UNK N   1      31.145  27.587  -4.740  0.00  0.00     0.050 C 
HETATM   32  C   UNK N   1      30.265  25.202  -4.410  0.00  0.00    -0.031 A 
HETATM   33  C   UNK N   1      28.835  25.521  -4.137  0.00  0.00     0.051 C 
ENDBRANCH  24  25
ENDBRANCH   1  24
TORSDOF 5
ENDMDL
MODEL 4
REMARK VINA RESULT:      -7.6      5.026      7.507
REMARK  5 active torsions:
REMARK  status: ('A' for Active; 'I' for Inactive)
REMARK    1  A    between atoms: C_9  and  C_8 
REMARK    2  A    between atoms: C_10  and  C_9 
REMARK    3  A    between atoms: S_21  and  C_20 
REMARK    4  A    between atoms: N_24  and  S_21 
REMARK    5  A    between atoms: N_24  and  C_26 
ROOT
HETATM    1  C   UNK N   1      23.396  19.099   3.798  0.00  0.00     0.028 A 
HETATM    2  C   UNK N   1      24.702  18.976   3.968  0.00  0.00     0.004 A 
HETATM    3  C   UNK N   1      25.409  17.989   4.627  0.00  0.00     0.039 A 
HETATM    4  C   UNK N   1      23.261  20.356   3.069  0.00  0.00     0.253 A 
HETATM    5  O   UNK N   1      22.221  20.895   2.725  0.00  0.00    -0.268 OA
HETATM    6  N   UNK N   1      24.491  20.873   2.859  0.00  0.00    -0.322 N 
ATOM      7  HN  UNK N   1      24.710  21.743   2.372  1.00  0.00     0.169 HD
HETATM    8  C   UNK N   1      25.332  20.060   3.388  0.00  0.00     0.046 A 
HETATM    9  C   UNK N   1      26.722  20.201   3.435  0.00  0.00     0.032 A 
HETATM   10  C   UNK N   1      27.466  19.204   4.111  0.00  0.00     0.027 A 
HETATM   11  C   UNK N   1      26.805  18.096   4.700  0.00  0.00     0.081 A 
ENDROOT
BRANCH  11  12
HETATM   12  S   UNK N   1      27.649  16.869   5.694  0.00  0.00     0.265 S 
HETATM   13  O   UNK N   1      27.915  15.628   4.827  0.00  0.00    -0.200 OA
HETATM   14  O   UNK N   1      26.633  16.262   6.673  0.00  0.00    -0.200 OA
BRANCH  12  15
HETATM   15  N   UNK N   1      29.105  17.034   6.676  0.00  0.00    -0.276 N 
HETATM   16  C   UNK N   1      28.943  17.435   8.055  0.00  0.00     0.170 C 
BRANCH  15  17
HETATM   17  C   UNK N   1      30.381  17.171   6.053  0.00  0.00     0.046 A 
HETATM   18  C   UNK N   1      30.484  17.372   4.669  0.00  0.00     0.030 A 
HETATM   19  C   UNK N   1      31.738  17.534   4.069  0.00  0.00     0.004 A 
HETATM   20  C   UNK N   1      32.894  17.538   4.854  0.00  0.00     0.024 A 
HETATM   21  C   UNK N   1      32.801  17.358   6.235  0.00  0.00     0.036 A 
HETATM   22  C   UNK N   1      31.554  17.158   6.829  0.00  0.00     0.054 A 
HETATM   23 Cl   UNK N   1      34.240  17.431   7.229  0.00  0.00    -0.084 Cl
ENDBRANCH  15  17
ENDBRANCH  12  15
ENDBRANCH  11  12
BRANCH   1  24
HETATM   24  C   UNK N   1      22.344  18.172   4.335  0.00  0.00     0.103 C 
BRANCH  24  25
HETATM   25  C   UNK N   1      21.874  17.159   3.340  0.00  0.00     0.020 A 
HETATM   26  N   UNK N   1      22.526  16.009   3.064  0.00  0.00    -0.362 N 
HETATM   27  C   UNK N   1      21.826  15.408   2.078  0.00  0.00     0.012 A 
HETATM   28  H   UNK N   1      23.347  15.677   3.495  0.00  0.00     0.165 HD
HETATM   29  C   UNK N   1      20.730  16.171   1.726  0.00  0.00    -0.032 A 
HETATM   30  C   UNK N   1      22.220  14.112   1.461  0.00  0.00     0.068 C 
HETATM   31  C   UNK N   1      19.724  15.856   0.671  0.00  0.00     0.050 C 
HETATM   32  C   UNK N   1      20.759  17.287   2.530  0.00  0.00    -0.031 A 
HETATM   33  C   UNK N   1      19.788  18.418   2.515  0.00  0.00     0.051 C 
ENDBRANCH  24  25
ENDBRANCH   1  24
TORSDOF 5
ENDMDL
MODEL 5
REMARK VINA RESULT:      -7.6     11.577     14.618
REMARK  5 active torsions:
REMARK  status: ('A' for Active; 'I' for Inactive)
REMARK    1  A    between atoms: C_9  and  C_8 
REMARK    2  A    between atoms: C_10  and  C_9 
REMARK    3  A    between atoms: S_21  and  C_20 
REMARK    4  A    between atoms: N_24  and  S_21 
REMARK    5  A    between atoms: N_24  and  C_26 
ROOT
HETATM    1  C   UNK N   1      30.584  22.280  -4.146  0.00  0.00     0.028 A 
HETATM    2  C   UNK N   1      29.413  22.890  -4.214  0.00  0.00     0.004 A 
HETATM    3  C   UNK N   1      28.642  23.182  -5.323  0.00  0.00     0.039 A 
HETATM    4  C   UNK N   1      30.905  22.310  -2.723  0.00  0.00     0.253 A 
HETATM    5  O   UNK N   1      31.920  21.891  -2.191  0.00  0.00    -0.268 OA
HETATM    6  N   UNK N   1      29.900  22.926  -2.062  0.00  0.00    -0.322 N 
ATOM      7  HN  UNK N   1      29.844  23.090  -1.056  1.00  0.00     0.169 HD
HETATM    8  C   UNK N   1      29.028  23.263  -2.941  0.00  0.00     0.046 A 
HETATM    9  C   UNK N   1      27.831  23.949  -2.718  0.00  0.00     0.032 A 
HETATM   10  C   UNK N   1      27.028  24.264  -3.841  0.00  0.00     0.027 A 
HETATM   11  C   UNK N   1      27.436  23.873  -5.142  0.00  0.00     0.081 A 
ENDROOT
BRANCH  11  12
HETATM   12  S   UNK N   1      26.559  24.353  -6.628  0.00  0.00     0.265 S 
HETATM   13  O   UNK N   1      25.270  23.522  -6.732  0.00  0.00    -0.200 OA
HETATM   14  O   UNK N   1      27.312  23.778  -7.836  0.00  0.00    -0.200 OA
BRANCH  12  15
HETATM   15  N   UNK N   1      26.086  25.962  -7.176  0.00  0.00    -0.276 N 
HETATM   16  C   UNK N   1      25.937  26.169  -8.598  0.00  0.00     0.170 C 
BRANCH  15  17
HETATM   17  C   UNK N   1      26.244  27.089  -6.317  0.00  0.00     0.046 A 
HETATM   18  C   UNK N   1      25.470  27.218  -5.154  0.00  0.00     0.030 A 
HETATM   19  C   UNK N   1      25.650  28.312  -4.302  0.00  0.00     0.004 A 
HETATM   20  C   UNK N   1      26.635  29.264  -4.582  0.00  0.00     0.024 A 
HETATM   21  C   UNK N   1      27.423  29.135  -5.727  0.00  0.00     0.036 A 
HETATM   22  C   UNK N   1      27.218  28.064  -6.598  0.00  0.00     0.054 A 
HETATM   23 Cl   UNK N   1      28.703  30.287  -6.046  0.00  0.00    -0.084 Cl
ENDBRANCH  15  17
ENDBRANCH  12  15
ENDBRANCH  11  12
BRANCH   1  24
HETATM   24  C   UNK N   1      31.388  21.777  -5.310  0.00  0.00     0.103 C 
BRANCH  24  25
HETATM   25  C   UNK N   1      32.847  22.093  -5.211  0.00  0.00     0.020 A 
HETATM   26  N   UNK N   1      33.776  21.237  -4.734  0.00  0.00    -0.362 N 
HETATM   27  C   UNK N   1      34.947  21.910  -4.749  0.00  0.00     0.012 A 
HETATM   28  H   UNK N   1      33.630  20.310  -4.437  0.00  0.00     0.165 HD
HETATM   29  C   UNK N   1      34.766  23.190  -5.233  0.00  0.00    -0.032 A 
HETATM   30  C   UNK N   1      36.235  21.329  -4.278  0.00  0.00     0.068 C 
HETATM   31  C   UNK N   1      35.811  24.243  -5.388  0.00  0.00     0.050 C 
HETATM   32  C   UNK N   1      33.428  23.308  -5.529  0.00  0.00    -0.031 A 
HETATM   33  C   UNK N   1      32.740  24.516  -6.069  0.00  0.00     0.051 C 
ENDBRANCH  24  25
ENDBRANCH   1  24
TORSDOF 5
ENDMDL
MODEL 6
REMARK VINA RESULT:      -7.5      7.195      9.925
REMARK  5 active torsions:
REMARK  status: ('A' for Active; 'I' for Inactive)
REMARK    1  A    between atoms: C_9  and  C_8 
REMARK    2  A    between atoms: C_10  and  C_9 
REMARK    3  A    between atoms: S_21  and  C_20 
REMARK    4  A    between atoms: N_24  and  S_21 
REMARK    5  A    between atoms: N_24  and  C_26 
ROOT
HETATM    1  C   UNK N   1      20.506  18.475   2.271  0.00  0.00     0.028 A 
HETATM    2  C   UNK N   1      20.181  17.198   2.383  0.00  0.00     0.004 A 
HETATM    3  C   UNK N   1      20.108  16.410   3.516  0.00  0.00     0.039 A 
HETATM    4  C   UNK N   1      20.447  18.720   0.834  0.00  0.00     0.253 A 
HETATM    5  O   UNK N   1      20.711  19.763   0.257  0.00  0.00    -0.268 OA
HETATM    6  N   UNK N   1      20.085  17.577   0.211  0.00  0.00    -0.322 N 
ATOM      7  HN  UNK N   1      19.959  17.446  -0.793  1.00  0.00     0.169 HD
HETATM    8  C   UNK N   1      19.930  16.688   1.124  0.00  0.00     0.046 A 
HETATM    9  C   UNK N   1      19.581  15.347   0.941  0.00  0.00     0.032 A 
HETATM   10  C   UNK N   1      19.507  14.520   2.088  0.00  0.00     0.027 A 
HETATM   11  C   UNK N   1      19.765  15.058   3.375  0.00  0.00     0.081 A 
ENDROOT
BRANCH  11  12
HETATM   12  S   UNK N   1      19.835  14.057   4.858  0.00  0.00     0.265 S 
HETATM   13  O   UNK N   1      18.695  13.027   4.813  0.00  0.00    -0.200 OA
HETATM   14  O   UNK N   1      19.341  14.909   6.036  0.00  0.00    -0.200 OA
BRANCH  12  15
HETATM   15  N   UNK N   1      21.196  13.171   5.545  0.00  0.00    -0.276 N 
HETATM   16  C   UNK N   1      20.902  12.007   6.351  0.00  0.00     0.170 C 
BRANCH  15  17
HETATM   17  C   UNK N   1      22.477  13.788   5.649  0.00  0.00     0.046 A 
HETATM   18  C   UNK N   1      23.091  13.958   6.899  0.00  0.00     0.030 A 
HETATM   19  C   UNK N   1      24.361  14.538   6.991  0.00  0.00     0.004 A 
HETATM   20  C   UNK N   1      25.045  14.914   5.832  0.00  0.00     0.024 A 
HETATM   21  C   UNK N   1      24.451  14.732   4.581  0.00  0.00     0.036 A 
HETATM   22  C   UNK N   1      23.168  14.188   4.491  0.00  0.00     0.054 A 
HETATM   23 Cl   UNK N   1      25.331  15.138   3.123  0.00  0.00    -0.084 Cl
ENDBRANCH  15  17
ENDBRANCH  12  15
ENDBRANCH  11  12
BRANCH   1  24
HETATM   24  C   UNK N   1      20.920  19.383   3.393  0.00  0.00     0.103 C 
BRANCH  24  25
HETATM   25  C   UNK N   1      22.402  19.469   3.579  0.00  0.00     0.020 A 
HETATM   26  N   UNK N   1      23.213  20.251   2.835  0.00  0.00    -0.362 N 
HETATM   27  C   UNK N   1      24.470  20.001   3.264  0.00  0.00     0.012 A 
HETATM   28  H   UNK N   1      22.944  20.876   2.124  0.00  0.00     0.165 HD
HETATM   29  C   UNK N   1      24.460  19.064   4.277  0.00  0.00    -0.032 A 
HETATM   30  C   UNK N   1      25.680  20.647   2.686  0.00  0.00     0.068 C 
HETATM   31  C   UNK N   1      25.644  18.515   4.999  0.00  0.00     0.050 C 
HETATM   32  C   UNK N   1      23.142  18.725   4.480  0.00  0.00    -0.031 A 
HETATM   33  C   UNK N   1      22.620  17.735   5.466  0.00  0.00     0.051 C 
ENDBRANCH  24  25
ENDBRANCH   1  24
TORSDOF 5
ENDMDL
MODEL 7
REMARK VINA RESULT:      -7.5      6.311      8.739
REMARK  5 active torsions:
REMARK  status: ('A' for Active; 'I' for Inactive)
REMARK    1  A    between atoms: C_9  and  C_8 
REMARK    2  A    between atoms: C_10  and  C_9 
REMARK    3  A    between atoms: S_21  and  C_20 
REMARK    4  A    between atoms: N_24  and  S_21 
REMARK    5  A    between atoms: N_24  and  C_26 
ROOT
HETATM    1  C   UNK N   1      21.278  18.234   3.712  0.00  0.00     0.028 A 
HETATM    2  C   UNK N   1      21.020  17.296   2.816  0.00  0.00     0.004 A 
HETATM    3  C   UNK N   1      21.539  16.020   2.711  0.00  0.00     0.039 A 
HETATM    4  C   UNK N   1      20.466  19.363   3.272  0.00  0.00     0.253 A 
HETATM    5  O   UNK N   1      20.414  20.471   3.781  0.00  0.00    -0.268 OA
HETATM    6  N   UNK N   1      19.788  19.005   2.159  0.00  0.00    -0.322 N 
ATOM      7  HN  UNK N   1      19.138  19.587   1.630  1.00  0.00     0.169 HD
HETATM    8  C   UNK N   1      20.116  17.793   1.897  0.00  0.00     0.046 A 
HETATM    9  C   UNK N   1      19.679  17.018   0.819  0.00  0.00     0.032 A 
HETATM   10  C   UNK N   1      20.202  15.708   0.689  0.00  0.00     0.027 A 
HETATM   11  C   UNK N   1      21.129  15.212   1.642  0.00  0.00     0.081 A 
ENDROOT
BRANCH  11  12
HETATM   12  S   UNK N   1      21.948  13.629   1.476  0.00  0.00     0.265 S 
HETATM   13  O   UNK N   1      20.943  12.607   0.921  0.00  0.00    -0.200 OA
HETATM   14  O   UNK N   1      22.140  13.037   2.880  0.00  0.00    -0.200 OA
BRANCH  12  15
HETATM   15  N   UNK N   1      23.464  13.234   0.663  0.00  0.00    -0.276 N 
HETATM   16  C   UNK N   1      23.435  12.197  -0.343  0.00  0.00     0.170 C 
BRANCH  15  17
HETATM   17  C   UNK N   1      24.710  13.614   1.242  0.00  0.00     0.046 A 
HETATM   18  C   UNK N   1      25.029  14.966   1.436  0.00  0.00     0.030 A 
HETATM   19  C   UNK N   1      26.241  15.329   2.031  0.00  0.00     0.004 A 
HETATM   20  C   UNK N   1      27.127  14.343   2.476  0.00  0.00     0.024 A 
HETATM   21  C   UNK N   1      26.811  12.994   2.305  0.00  0.00     0.036 A 
HETATM   22  C   UNK N   1      25.618  12.631   1.677  0.00  0.00     0.054 A 
HETATM   23 Cl   UNK N   1      27.884  11.756   2.921  0.00  0.00    -0.084 Cl
ENDBRANCH  15  17
ENDBRANCH  12  15
ENDBRANCH  11  12
BRANCH   1  24
HETATM   24  C   UNK N   1      22.259  18.128   4.844  0.00  0.00     0.103 C 
BRANCH  24  25
HETATM   25  C   UNK N   1      23.653  18.519   4.467  0.00  0.00     0.020 A 
HETATM   26  N   UNK N   1      23.970  19.656   3.813  0.00  0.00    -0.362 N 
HETATM   27  C   UNK N   1      25.303  19.610   3.604  0.00  0.00     0.012 A 
HETATM   28  H   UNK N   1      23.354  20.375   3.543  0.00  0.00     0.165 HD
HETATM   29  C   UNK N   1      25.836  18.447   4.123  0.00  0.00    -0.032 A 
HETATM   30  C   UNK N   1      26.062  20.673   2.889  0.00  0.00     0.068 C 
HETATM   31  C   UNK N   1      27.265  18.020   4.079  0.00  0.00     0.050 C 
HETATM   32  C   UNK N   1      24.785  17.750   4.674  0.00  0.00    -0.031 A 
HETATM   33  C   UNK N   1      24.855  16.421   5.345  0.00  0.00     0.051 C 
ENDBRANCH  24  25
ENDBRANCH   1  24
TORSDOF 5
ENDMDL
MODEL 8
REMARK VINA RESULT:      -7.4      6.925      9.836
REMARK  5 active torsions:
REMARK  status: ('A' for Active; 'I' for Inactive)
REMARK    1  A    between atoms: C_9  and  C_8 
REMARK    2  A    between atoms: C_10  and  C_9 
REMARK    3  A    between atoms: S_21  and  C_20 
REMARK    4  A    between atoms: N_24  and  S_21 
REMARK    5  A    between atoms: N_24  and  C_26 
ROOT
HETATM    1  C   UNK N   1      35.373  13.262  12.236  0.00  0.00     0.028 A 
HETATM    2  C   UNK N   1      35.081  14.198  11.349  0.00  0.00     0.004 A 
HETATM    3  C   UNK N   1      34.363  14.095  10.172  0.00  0.00     0.039 A 
HETATM    4  C   UNK N   1      36.184  13.966  13.224  0.00  0.00     0.253 A 
HETATM    5  O   UNK N   1      36.712  13.487  14.215  0.00  0.00    -0.268 OA
HETATM    6  N   UNK N   1      36.302  15.260  12.851  0.00  0.00    -0.322 N 
ATOM      7  HN  UNK N   1      36.809  15.992  13.348  1.00  0.00     0.169 HD
HETATM    8  C   UNK N   1      35.653  15.390  11.751  0.00  0.00     0.046 A 
HETATM    9  C   UNK N   1      35.523  16.551  10.985  0.00  0.00     0.032 A 
HETATM   10  C   UNK N   1      34.796  16.467   9.772  0.00  0.00     0.027 A 
HETATM   11  C   UNK N   1      34.213  15.237   9.373  0.00  0.00     0.081 A 
ENDROOT
BRANCH  11  12
HETATM   12  S   UNK N   1      33.404  15.005   7.793  0.00  0.00     0.265 S 
HETATM   13  O   UNK N   1      32.242  14.015   7.973  0.00  0.00    -0.200 OA
HETATM   14  O   UNK N   1      34.316  14.144   6.908  0.00  0.00    -0.200 OA
BRANCH  12  15
HETATM   15  N   UNK N   1      32.777  16.213   6.670  0.00  0.00    -0.276 N 
HETATM   16  C   UNK N   1      33.713  16.832   5.759  0.00  0.00     0.170 C 
BRANCH  15  17
HETATM   17  C   UNK N   1      31.521  16.842   6.917  0.00  0.00     0.046 A 
HETATM   18  C   UNK N   1      30.494  16.790   5.964  0.00  0.00     0.030 A 
HETATM   19  C   UNK N   1      29.255  17.385   6.225  0.00  0.00     0.004 A 
HETATM   20  C   UNK N   1      29.019  17.998   7.459  0.00  0.00     0.024 A 
HETATM   21  C   UNK N   1      30.029  18.039   8.422  0.00  0.00     0.036 A 
HETATM   22  C   UNK N   1      31.278  17.479   8.147  0.00  0.00     0.054 A 
HETATM   23 Cl   UNK N   1      29.716  18.745   9.993  0.00  0.00    -0.084 Cl
ENDBRANCH  15  17
ENDBRANCH  12  15
ENDBRANCH  11  12
BRANCH   1  24
HETATM   24  C   UNK N   1      35.002  11.810  12.144  0.00  0.00     0.103 C 
BRANCH  24  25
HETATM   25  C   UNK N   1      35.579  10.973  13.241  0.00  0.00     0.020 A 
HETATM   26  N   UNK N   1      36.848  10.511  13.254  0.00  0.00    -0.362 N 
HETATM   27  C   UNK N   1      36.959   9.753  14.365  0.00  0.00     0.012 A 
HETATM   28  H   UNK N   1      37.549  10.691  12.587  0.00  0.00     0.165 HD
HETATM   29  C   UNK N   1      35.767   9.731  15.060  0.00  0.00    -0.032 A 
HETATM   30  C   UNK N   1      38.205   9.034  14.749  0.00  0.00     0.068 C 
HETATM   31  C   UNK N   1      35.483   8.996  16.327  0.00  0.00     0.050 C 
HETATM   32  C   UNK N   1      34.886  10.509  14.345  0.00  0.00    -0.031 A 
HETATM   33  C   UNK N   1      33.460  10.781  14.687  0.00  0.00     0.051 C 
ENDBRANCH  24  25
ENDBRANCH   1  24
TORSDOF 5
ENDMDL
MODEL 9
REMARK VINA RESULT:      -7.3     11.572     14.770
REMARK  5 active torsions:
REMARK  status: ('A' for Active; 'I' for Inactive)
REMARK    1  A    between atoms: C_9  and  C_8 
REMARK    2  A    between atoms: C_10  and  C_9 
REMARK    3  A    between atoms: S_21  and  C_20 
REMARK    4  A    between atoms: N_24  and  S_21 
REMARK    5  A    between atoms: N_24  and  C_26 
ROOT
HETATM    1  C   UNK N   1      30.523  23.051  -4.170  0.00  0.00     0.028 A 
HETATM    2  C   UNK N   1      29.276  23.490  -4.198  0.00  0.00     0.004 A 
HETATM    3  C   UNK N   1      28.544  23.976  -5.265  0.00  0.00     0.039 A 
HETATM    4  C   UNK N   1      30.739  22.721  -2.765  0.00  0.00     0.253 A 
HETATM    5  O   UNK N   1      31.772  22.311  -2.259  0.00  0.00    -0.268 OA
HETATM    6  N   UNK N   1      29.607  22.983  -2.075  0.00  0.00    -0.322 N 
ATOM      7  HN  UNK N   1      29.459  22.848  -1.075  1.00  0.00     0.169 HD
HETATM    8  C   UNK N   1      28.752  23.434  -2.921  0.00  0.00     0.046 A 
HETATM    9  C   UNK N   1      27.449  23.860  -2.652  0.00  0.00     0.032 A 
HETATM   10  C   UNK N   1      26.682  24.367  -3.730  0.00  0.00     0.027 A 
HETATM   11  C   UNK N   1      27.233  24.418  -5.036  0.00  0.00     0.081 A 
ENDROOT
BRANCH  11  12
HETATM   12  S   UNK N   1      26.392  25.174  -6.424  0.00  0.00     0.265 S 
HETATM   13  O   UNK N   1      24.935  25.457  -6.024  0.00  0.00    -0.200 OA
HETATM   14  O   UNK N   1      26.142  24.091  -7.483  0.00  0.00    -0.200 OA
BRANCH  12  15
HETATM   15  N   UNK N   1      26.860  26.577  -7.385  0.00  0.00    -0.276 N 
HETATM   16  C   UNK N   1      27.152  26.364  -8.785  0.00  0.00     0.170 C 
BRANCH  15  17
HETATM   17  C   UNK N   1      27.324  27.764  -6.747  0.00  0.00     0.046 A 
HETATM   18  C   UNK N   1      28.314  28.559  -7.344  0.00  0.00     0.030 A 
HETATM   19  C   UNK N   1      28.743  29.738  -6.725  0.00  0.00     0.004 A 
HETATM   20  C   UNK N   1      28.157  30.154  -5.526  0.00  0.00     0.024 A 
HETATM   21  C   UNK N   1      27.158  29.380  -4.933  0.00  0.00     0.036 A 
HETATM   22  C   UNK N   1      26.755  28.184  -5.531  0.00  0.00     0.054 A 
HETATM   23 Cl   UNK N   1      26.372  29.931  -3.469  0.00  0.00    -0.084 Cl
ENDBRANCH  15  17
ENDBRANCH  12  15
ENDBRANCH  11  12
BRANCH   1  24
HETATM   24  C   UNK N   1      31.473  23.011  -5.332  0.00  0.00     0.103 C 
BRANCH  24  25
HETATM   25  C   UNK N   1      32.592  22.034  -5.158  0.00  0.00     0.020 A 
HETATM   26  N   UNK N   1      33.773  22.332  -4.576  0.00  0.00    -0.362 N 
HETATM   27  C   UNK N   1      34.529  21.217  -4.669  0.00  0.00     0.012 A 
HETATM   28  H   UNK N   1      34.032  23.190  -4.167  0.00  0.00     0.165 HD
HETATM   29  C   UNK N   1      33.833  20.210  -5.307  0.00  0.00    -0.032 A 
HETATM   30  C   UNK N   1      35.926  21.125  -4.163  0.00  0.00     0.068 C 
HETATM   31  C   UNK N   1      34.328  18.837  -5.615  0.00  0.00     0.050 C 
HETATM   32  C   UNK N   1      32.598  20.729  -5.619  0.00  0.00    -0.031 A 
HETATM   33  C   UNK N   1      31.492  20.026  -6.330  0.00  0.00     0.051 C 
ENDBRANCH  24  25
ENDBRANCH   1  24
TORSDOF 5
ENDMDL
