MODEL 1
REMARK VINA RESULT:      -7.2      0.000      0.000
REMARK  4 active torsions:
REMARK  status: ('A' for Active; 'I' for Inactive)
REMARK    1  A    between atoms: O_1  and  C_2 
REMARK    2  A    between atoms: C_2  and  C_4 
REMARK    3  A    between atoms: C_4  and  C_5 
REMARK    4  A    between atoms: C_5  and  C_6 
ROOT
HETATM    1  C   UNK N   1      31.951  17.524   7.176  0.00  0.00    -0.035 A 
HETATM    2  C   UNK N   1      31.999  17.227   5.800  0.00  0.00    -0.018 A 
HETATM    3  C   UNK N   1      33.234  17.039   5.153  0.00  0.00     0.013 A 
HETATM    4  C   UNK N   1      33.287  16.753   3.789  0.00  0.00     0.001 A 
HETATM    5  C   UNK N   1      32.110  16.658   3.047  0.00  0.00     0.001 A 
HETATM    6  C   UNK N   1      30.875  16.844   3.671  0.00  0.00     0.013 A 
HETATM    7  C   UNK N   1      30.803  17.126   5.046  0.00  0.00    -0.019 A 
HETATM    8  C   UNK N   1      29.555  17.317   5.670  0.00  0.00    -0.040 A 
HETATM    9  C   UNK N   1      29.500  17.596   7.049  0.00  0.00    -0.019 A 
HETATM   10  C   UNK N   1      30.696  17.703   7.805  0.00  0.00    -0.018 A 
HETATM   11  C   UNK N   1      30.614  17.995   9.177  0.00  0.00     0.013 A 
HETATM   12  C   UNK N   1      29.377  18.168   9.797  0.00  0.00     0.001 A 
HETATM   13  C   UNK N   1      28.202  18.064   9.053  0.00  0.00     0.001 A 
HETATM   14  C   UNK N   1      28.262  17.783   7.689  0.00  0.00     0.013 A 
HETATM   15  C   UNK N   1      28.288  17.229   4.866  0.00  0.00     0.050 C 
ENDROOT
BRANCH   1  16
HETATM   16  C   UNK N   1      33.240  17.705   7.943  0.00  0.00     0.051 C 
BRANCH  16  17
HETATM   17  C   UNK N   1      33.756  16.438   8.604  0.00  0.00     0.114 C 
BRANCH  17  18
HETATM   18  C   UNK N   1      34.605  16.823   9.772  0.00  0.00     0.139 C 
HETATM   19  O   UNK N   1      35.354  17.784   9.698  0.00  0.00    -0.650 OA
BRANCH  18  20
HETATM   20  O   UNK N   1      34.529  16.120  10.918  0.00  0.00    -0.776 OA
HETATM   21  H   UNK N   1      34.011  15.342  10.978  0.00  0.00     0.167 HD
ENDBRANCH  18  20
ENDBRANCH  17  18
ENDBRANCH  16  17
ENDBRANCH   1  16
TORSDOF 4
ENDMDL
MODEL 2
REMARK VINA RESULT:      -7.2      0.145      4.081
REMARK  4 active torsions:
REMARK  status: ('A' for Active; 'I' for Inactive)
REMARK    1  A    between atoms: O_1  and  C_2 
REMARK    2  A    between atoms: C_2  and  C_4 
REMARK    3  A    between atoms: C_4  and  C_5 
REMARK    4  A    between atoms: C_5  and  C_6 
ROOT
HETATM    1  C   UNK N   1      31.907  17.633   7.122  0.00  0.00    -0.035 A 
HETATM    2  C   UNK N   1      30.669  17.752   7.782  0.00  0.00    -0.018 A 
HETATM    3  C   UNK N   1      30.617  18.089   9.147  0.00  0.00     0.013 A 
HETATM    4  C   UNK N   1      29.393  18.200   9.807  0.00  0.00     0.001 A 
HETATM    5  C   UNK N   1      28.203  17.968   9.119  0.00  0.00     0.001 A 
HETATM    6  C   UNK N   1      28.235  17.629   7.765  0.00  0.00     0.013 A 
HETATM    7  C   UNK N   1      29.458  17.520   7.082  0.00  0.00    -0.019 A 
HETATM    8  C   UNK N   1      29.485  17.174   5.717  0.00  0.00    -0.040 A 
HETATM    9  C   UNK N   1      30.720  17.072   5.048  0.00  0.00    -0.019 A 
HETATM   10  C   UNK N   1      31.933  17.298   5.747  0.00  0.00    -0.018 A 
HETATM   11  C   UNK N   1      33.152  17.177   5.059  0.00  0.00     0.013 A 
HETATM   12  C   UNK N   1      33.176  16.850   3.703  0.00  0.00     0.001 A 
HETATM   13  C   UNK N   1      31.983  16.627   3.017  0.00  0.00     0.001 A 
HETATM   14  C   UNK N   1      30.763  16.733   3.684  0.00  0.00     0.013 A 
HETATM   15  C   UNK N   1      28.202  16.909   4.981  0.00  0.00     0.050 C 
ENDROOT
BRANCH   1  16
HETATM   16  C   UNK N   1      33.187  17.807   7.905  0.00  0.00     0.051 C 
BRANCH  16  17
HETATM   17  C   UNK N   1      33.715  16.526   8.532  0.00  0.00     0.114 C 
BRANCH  17  18
HETATM   18  C   UNK N   1      34.579  16.887   9.695  0.00  0.00     0.139 C 
HETATM   19  O   UNK N   1      35.330  17.848   9.629  0.00  0.00    -0.650 OA
BRANCH  18  20
HETATM   20  O   UNK N   1      34.517  16.163  10.829  0.00  0.00    -0.776 OA
HETATM   21  H   UNK N   1      33.716  15.764  11.106  0.00  0.00     0.167 HD
ENDBRANCH  18  20
ENDBRANCH  17  18
ENDBRANCH  16  17
ENDBRANCH   1  16
TORSDOF 4
ENDMDL
MODEL 3
REMARK VINA RESULT:      -6.9     11.872     14.055
REMARK  4 active torsions:
REMARK  status: ('A' for Active; 'I' for Inactive)
REMARK    1  A    between atoms: O_1  and  C_2 
REMARK    2  A    between atoms: C_2  and  C_4 
REMARK    3  A    between atoms: C_4  and  C_5 
REMARK    4  A    between atoms: C_5  and  C_6 
ROOT
HETATM    1  C   UNK N   1      29.153  22.596  -5.534  0.00  0.00    -0.035 A 
HETATM    2  C   UNK N   1      29.011  21.787  -6.678  0.00  0.00    -0.018 A 
HETATM    3  C   UNK N   1      30.036  20.902  -7.058  0.00  0.00     0.013 A 
HETATM    4  C   UNK N   1      29.903  20.104  -8.195  0.00  0.00     0.001 A 
HETATM    5  C   UNK N   1      28.750  20.184  -8.975  0.00  0.00     0.001 A 
HETATM    6  C   UNK N   1      27.723  21.059  -8.615  0.00  0.00     0.013 A 
HETATM    7  C   UNK N   1      27.837  21.864  -7.469  0.00  0.00    -0.019 A 
HETATM    8  C   UNK N   1      26.801  22.748  -7.112  0.00  0.00    -0.040 A 
HETATM    9  C   UNK N   1      26.930  23.546  -5.959  0.00  0.00    -0.019 A 
HETATM   10  C   UNK N   1      28.106  23.475  -5.169  0.00  0.00    -0.018 A 
HETATM   11  C   UNK N   1      28.216  24.291  -4.031  0.00  0.00     0.013 A 
HETATM   12  C   UNK N   1      27.181  25.155  -3.670  0.00  0.00     0.001 A 
HETATM   13  C   UNK N   1      26.026  25.224  -4.447  0.00  0.00     0.001 A 
HETATM   14  C   UNK N   1      25.901  24.429  -5.586  0.00  0.00     0.013 A 
HETATM   15  C   UNK N   1      25.565  22.843  -7.962  0.00  0.00     0.050 C 
ENDROOT
BRANCH   1  16
HETATM   16  C   UNK N   1      30.445  22.555  -4.751  0.00  0.00     0.051 C 
BRANCH  16  17
HETATM   17  C   UNK N   1      30.490  21.482  -3.676  0.00  0.00     0.114 C 
BRANCH  17  18
HETATM   18  C   UNK N   1      31.264  22.007  -2.511  0.00  0.00     0.139 C 
HETATM   19  O   UNK N   1      30.846  22.963  -1.876  0.00  0.00    -0.650 OA
BRANCH  18  20
HETATM   20  O   UNK N   1      32.416  21.414  -2.147  0.00  0.00    -0.776 OA
HETATM   21  H   UNK N   1      32.677  20.593  -2.516  0.00  0.00     0.167 HD
ENDBRANCH  18  20
ENDBRANCH  17  18
ENDBRANCH  16  17
ENDBRANCH   1  16
TORSDOF 4
ENDMDL
MODEL 4
REMARK VINA RESULT:      -6.8     13.108     15.424
REMARK  4 active torsions:
REMARK  status: ('A' for Active; 'I' for Inactive)
REMARK    1  A    between atoms: O_1  and  C_2 
REMARK    2  A    between atoms: C_2  and  C_4 
REMARK    3  A    between atoms: C_4  and  C_5 
REMARK    4  A    between atoms: C_5  and  C_6 
ROOT
HETATM    1  C   UNK N   1      27.686  22.719  -6.763  0.00  0.00    -0.035 A 
HETATM    2  C   UNK N   1      28.835  21.974  -6.434  0.00  0.00    -0.018 A 
HETATM    3  C   UNK N   1      29.306  20.971  -7.299  0.00  0.00     0.013 A 
HETATM    4  C   UNK N   1      30.440  20.224  -6.975  0.00  0.00     0.001 A 
HETATM    5  C   UNK N   1      31.114  20.462  -5.778  0.00  0.00     0.001 A 
HETATM    6  C   UNK N   1      30.659  21.452  -4.905  0.00  0.00     0.013 A 
HETATM    7  C   UNK N   1      29.524  22.218  -5.220  0.00  0.00    -0.019 A 
HETATM    8  C   UNK N   1      29.066  23.213  -4.334  0.00  0.00    -0.040 A 
HETATM    9  C   UNK N   1      27.929  23.973  -4.667  0.00  0.00    -0.019 A 
HETATM   10  C   UNK N   1      27.234  23.728  -5.879  0.00  0.00    -0.018 A 
HETATM   11  C   UNK N   1      26.094  24.491  -6.181  0.00  0.00     0.013 A 
HETATM   12  C   UNK N   1      25.651  25.487  -5.310  0.00  0.00     0.001 A 
HETATM   13  C   UNK N   1      26.334  25.727  -4.119  0.00  0.00     0.001 A 
HETATM   14  C   UNK N   1      27.463  24.974  -3.796  0.00  0.00     0.013 A 
HETATM   15  C   UNK N   1      29.786  23.457  -3.038  0.00  0.00     0.050 C 
ENDROOT
BRANCH   1  16
HETATM   16  C   UNK N   1      26.922  22.389  -8.024  0.00  0.00     0.051 C 
BRANCH  16  17
HETATM   17  C   UNK N   1      25.993  21.193  -7.897  0.00  0.00     0.114 C 
BRANCH  17  18
HETATM   18  C   UNK N   1      24.603  21.692  -7.668  0.00  0.00     0.139 C 
HETATM   19  O   UNK N   1      24.126  22.540  -8.406  0.00  0.00    -0.650 OA
BRANCH  18  20
HETATM   20  O   UNK N   1      23.867  21.191  -6.658  0.00  0.00    -0.776 OA
HETATM   21  H   UNK N   1      23.723  20.269  -6.574  0.00  0.00     0.167 HD
ENDBRANCH  18  20
ENDBRANCH  17  18
ENDBRANCH  16  17
ENDBRANCH   1  16
TORSDOF 4
ENDMDL
MODEL 5
REMARK VINA RESULT:      -6.8      8.019     10.899
REMARK  4 active torsions:
REMARK  status: ('A' for Active; 'I' for Inactive)
REMARK    1  A    between atoms: O_1  and  C_2 
REMARK    2  A    between atoms: C_2  and  C_4 
REMARK    3  A    between atoms: C_4  and  C_5 
REMARK    4  A    between atoms: C_5  and  C_6 
ROOT
HETATM    1  C   UNK N   1      22.455  18.845   3.975  0.00  0.00    -0.035 A 
HETATM    2  C   UNK N   1      22.165  17.672   4.698  0.00  0.00    -0.018 A 
HETATM    3  C   UNK N   1      20.833  17.281   4.921  0.00  0.00     0.013 A 
HETATM    4  C   UNK N   1      20.541  16.123   5.643  0.00  0.00     0.001 A 
HETATM    5  C   UNK N   1      21.574  15.344   6.162  0.00  0.00     0.001 A 
HETATM    6  C   UNK N   1      22.903  15.718   5.954  0.00  0.00     0.013 A 
HETATM    7  C   UNK N   1      23.215  16.876   5.222  0.00  0.00    -0.019 A 
HETATM    8  C   UNK N   1      24.557  17.251   5.018  0.00  0.00    -0.040 A 
HETATM    9  C   UNK N   1      24.852  18.413   4.280  0.00  0.00    -0.019 A 
HETATM   10  C   UNK N   1      23.804  19.215   3.758  0.00  0.00    -0.018 A 
HETATM   11  C   UNK N   1      24.124  20.377   3.037  0.00  0.00     0.013 A 
HETATM   12  C   UNK N   1      25.455  20.738   2.822  0.00  0.00     0.001 A 
HETATM   13  C   UNK N   1      26.484  19.951   3.335  0.00  0.00     0.001 A 
HETATM   14  C   UNK N   1      26.187  18.798   4.062  0.00  0.00     0.013 A 
HETATM   15  C   UNK N   1      25.669  16.417   5.590  0.00  0.00     0.050 C 
ENDROOT
BRANCH   1  16
HETATM   16  C   UNK N   1      21.321  19.720   3.493  0.00  0.00     0.051 C 
BRANCH  16  17
HETATM   17  C   UNK N   1      20.852  19.414   2.081  0.00  0.00     0.114 C 
BRANCH  17  18
HETATM   18  C   UNK N   1      20.965  20.658   1.261  0.00  0.00     0.139 C 
HETATM   19  O   UNK N   1      21.052  20.587   0.045  0.00  0.00    -0.650 OA
BRANCH  18  20
HETATM   20  O   UNK N   1      20.952  21.862   1.862  0.00  0.00    -0.776 OA
HETATM   21  H   UNK N   1      21.492  22.039   2.607  0.00  0.00     0.167 HD
ENDBRANCH  18  20
ENDBRANCH  17  18
ENDBRANCH  16  17
ENDBRANCH   1  16
TORSDOF 4
ENDMDL
MODEL 6
REMARK VINA RESULT:      -6.7      8.882     12.252
REMARK  4 active torsions:
REMARK  status: ('A' for Active; 'I' for Inactive)
REMARK    1  A    between atoms: O_1  and  C_2 
REMARK    2  A    between atoms: C_2  and  C_4 
REMARK    3  A    between atoms: C_4  and  C_5 
REMARK    4  A    between atoms: C_5  and  C_6 
ROOT
HETATM    1  C   UNK N   1      35.239  11.467  15.576  0.00  0.00    -0.035 A 
HETATM    2  C   UNK N   1      35.437  10.123  15.207  0.00  0.00    -0.018 A 
HETATM    3  C   UNK N   1      35.422   9.745  13.852  0.00  0.00     0.013 A 
HETATM    4  C   UNK N   1      35.610   8.413  13.481  0.00  0.00     0.001 A 
HETATM    5  C   UNK N   1      35.807   7.437  14.457  0.00  0.00     0.001 A 
HETATM    6  C   UNK N   1      35.821   7.792  15.807  0.00  0.00     0.013 A 
HETATM    7  C   UNK N   1      35.642   9.129  16.198  0.00  0.00    -0.019 A 
HETATM    8  C   UNK N   1      35.653   9.483  17.561  0.00  0.00    -0.040 A 
HETATM    9  C   UNK N   1      35.474  10.828  17.935  0.00  0.00    -0.019 A 
HETATM   10  C   UNK N   1      35.264  11.823  16.946  0.00  0.00    -0.018 A 
HETATM   11  C   UNK N   1      35.075  13.157  17.345  0.00  0.00     0.013 A 
HETATM   12  C   UNK N   1      35.102  13.507  18.696  0.00  0.00     0.001 A 
HETATM   13  C   UNK N   1      35.308  12.529  19.667  0.00  0.00     0.001 A 
HETATM   14  C   UNK N   1      35.489  11.198  19.291  0.00  0.00     0.013 A 
HETATM   15  C   UNK N   1      35.850   8.427  18.612  0.00  0.00     0.050 C 
ENDROOT
BRANCH   1  16
HETATM   16  C   UNK N   1      34.944  12.496  14.509  0.00  0.00     0.051 C 
BRANCH  16  17
HETATM   17  C   UNK N   1      36.155  13.301  14.066  0.00  0.00     0.114 C 
BRANCH  17  18
HETATM   18  C   UNK N   1      35.739  14.219  12.964  0.00  0.00     0.139 C 
HETATM   19  O   UNK N   1      34.645  14.089  12.436  0.00  0.00    -0.650 OA
BRANCH  18  20
HETATM   20  O   UNK N   1      36.563  15.205  12.563  0.00  0.00    -0.776 OA
HETATM   21  H   UNK N   1      36.816  15.292  11.666  0.00  0.00     0.167 HD
ENDBRANCH  18  20
ENDBRANCH  17  18
ENDBRANCH  16  17
ENDBRANCH   1  16
TORSDOF 4
ENDMDL
MODEL 7
REMARK VINA RESULT:      -6.7      8.850     12.735
REMARK  4 active torsions:
REMARK  status: ('A' for Active; 'I' for Inactive)
REMARK    1  A    between atoms: O_1  and  C_2 
REMARK    2  A    between atoms: C_2  and  C_4 
REMARK    3  A    between atoms: C_4  and  C_5 
REMARK    4  A    between atoms: C_5  and  C_6 
ROOT
HETATM    1  C   UNK N   1      35.157  11.627  15.665  0.00  0.00    -0.035 A 
HETATM    2  C   UNK N   1      35.226  11.891  17.047  0.00  0.00    -0.018 A 
HETATM    3  C   UNK N   1      35.031  13.196  17.535  0.00  0.00     0.013 A 
HETATM    4  C   UNK N   1      35.106  13.464  18.902  0.00  0.00     0.001 A 
HETATM    5  C   UNK N   1      35.386  12.436  19.802  0.00  0.00     0.001 A 
HETATM    6  C   UNK N   1      35.586  11.136  19.336  0.00  0.00     0.013 A 
HETATM    7  C   UNK N   1      35.506  10.846  17.963  0.00  0.00    -0.019 A 
HETATM    8  C   UNK N   1      35.712   9.533  17.497  0.00  0.00    -0.040 A 
HETATM    9  C   UNK N   1      35.626   9.261  16.119  0.00  0.00    -0.019 A 
HETATM   10  C   UNK N   1      35.351  10.305  15.199  0.00  0.00    -0.018 A 
HETATM   11  C   UNK N   1      35.284  10.009  13.827  0.00  0.00     0.013 A 
HETATM   12  C   UNK N   1      35.472   8.705  13.369  0.00  0.00     0.001 A 
HETATM   13  C   UNK N   1      35.743   7.679  14.273  0.00  0.00     0.001 A 
HETATM   14  C   UNK N   1      35.823   7.954  15.638  0.00  0.00     0.013 A 
HETATM   15  C   UNK N   1      36.028   8.430  18.467  0.00  0.00     0.050 C 
ENDROOT
BRANCH   1  16
HETATM   16  C   UNK N   1      34.936  12.769  14.700  0.00  0.00     0.051 C 
BRANCH  16  17
HETATM   17  C   UNK N   1      36.205  13.503  14.300  0.00  0.00     0.114 C 
BRANCH  17  18
HETATM   18  C   UNK N   1      36.070  13.949  12.881  0.00  0.00     0.139 C 
HETATM   19  O   UNK N   1      34.983  14.299  12.448  0.00  0.00    -0.650 OA
BRANCH  18  20
HETATM   20  O   UNK N   1      37.152  13.984  12.081  0.00  0.00    -0.776 OA
HETATM   21  H   UNK N   1      37.853  14.584  12.239  0.00  0.00     0.167 HD
ENDBRANCH  18  20
ENDBRANCH  17  18
ENDBRANCH  16  17
ENDBRANCH   1  16
TORSDOF 4
ENDMDL
MODEL 8
REMARK VINA RESULT:      -6.7      3.474      6.527
REMARK  4 active torsions:
REMARK  status: ('A' for Active; 'I' for Inactive)
REMARK    1  A    between atoms: O_1  and  C_2 
REMARK    2  A    between atoms: C_2  and  C_4 
REMARK    3  A    between atoms: C_4  and  C_5 
REMARK    4  A    between atoms: C_5  and  C_6 
ROOT
HETATM    1  C   UNK N   1      29.437  17.388   5.676  0.00  0.00    -0.035 A 
HETATM    2  C   UNK N   1      29.435  17.633   7.063  0.00  0.00    -0.018 A 
HETATM    3  C   UNK N   1      28.224  17.829   7.751  0.00  0.00     0.013 A 
HETATM    4  C   UNK N   1      28.216  18.080   9.124  0.00  0.00     0.001 A 
HETATM    5  C   UNK N   1      29.417  18.148   9.829  0.00  0.00     0.001 A 
HETATM    6  C   UNK N   1      30.629  17.960   9.162  0.00  0.00     0.013 A 
HETATM    7  C   UNK N   1      30.655  17.699   7.782  0.00  0.00    -0.019 A 
HETATM    8  C   UNK N   1      31.881  17.513   7.113  0.00  0.00    -0.040 A 
HETATM    9  C   UNK N   1      31.888  17.250   5.730  0.00  0.00    -0.019 A 
HETATM   10  C   UNK N   1      30.668  17.188   5.008  0.00  0.00    -0.018 A 
HETATM   11  C   UNK N   1      30.704  16.937   3.626  0.00  0.00     0.013 A 
HETATM   12  C   UNK N   1      31.918  16.738   2.968  0.00  0.00     0.001 A 
HETATM   13  C   UNK N   1      33.116  16.798   3.679  0.00  0.00     0.001 A 
HETATM   14  C   UNK N   1      33.103  17.056   5.049  0.00  0.00     0.013 A 
HETATM   15  C   UNK N   1      33.174  17.602   7.872  0.00  0.00     0.050 C 
ENDROOT
BRANCH   1  16
HETATM   16  C   UNK N   1      28.131  17.401   4.917  0.00  0.00     0.051 C 
BRANCH  16  17
HETATM   17  C   UNK N   1      27.752  18.758   4.349  0.00  0.00     0.114 C 
BRANCH  17  18
HETATM   18  C   UNK N   1      26.405  19.135   4.874  0.00  0.00     0.139 C 
HETATM   19  O   UNK N   1      26.016  20.290   4.797  0.00  0.00    -0.650 OA
BRANCH  18  20
HETATM   20  O   UNK N   1      25.608  18.195   5.416  0.00  0.00    -0.776 OA
HETATM   21  H   UNK N   1      25.941  17.349   5.644  0.00  0.00     0.167 HD
ENDBRANCH  18  20
ENDBRANCH  17  18
ENDBRANCH  16  17
ENDBRANCH   1  16
TORSDOF 4
ENDMDL
MODEL 9
REMARK VINA RESULT:      -6.6     12.967     14.892
REMARK  4 active torsions:
REMARK  status: ('A' for Active; 'I' for Inactive)
REMARK    1  A    between atoms: O_1  and  C_2 
REMARK    2  A    between atoms: C_2  and  C_4 
REMARK    3  A    between atoms: C_4  and  C_5 
REMARK    4  A    between atoms: C_5  and  C_6 
ROOT
HETATM    1  C   UNK N   1      27.706  24.356  -4.719  0.00  0.00    -0.035 A 
HETATM    2  C   UNK N   1      27.880  23.660  -5.932  0.00  0.00    -0.018 A 
HETATM    3  C   UNK N   1      28.679  22.504  -5.983  0.00  0.00     0.013 A 
HETATM    4  C   UNK N   1      28.860  21.816  -7.184  0.00  0.00     0.001 A 
HETATM    5  C   UNK N   1      28.255  22.277  -8.352  0.00  0.00     0.001 A 
HETATM    6  C   UNK N   1      27.461  23.425  -8.321  0.00  0.00     0.013 A 
HETATM    7  C   UNK N   1      27.261  24.125  -7.120  0.00  0.00    -0.019 A 
HETATM    8  C   UNK N   1      26.463  25.285  -7.094  0.00  0.00    -0.040 A 
HETATM    9  C   UNK N   1      26.271  25.973  -5.881  0.00  0.00    -0.019 A 
HETATM   10  C   UNK N   1      26.893  25.513  -4.692  0.00  0.00    -0.018 A 
HETATM   11  C   UNK N   1      26.697  26.225  -3.497  0.00  0.00     0.013 A 
HETATM   12  C   UNK N   1      25.892  27.365  -3.470  0.00  0.00     0.001 A 
HETATM   13  C   UNK N   1      25.282  27.817  -4.639  0.00  0.00     0.001 A 
HETATM   14  C   UNK N   1      25.472  27.129  -5.837  0.00  0.00     0.013 A 
HETATM   15  C   UNK N   1      25.823  25.788  -8.357  0.00  0.00     0.050 C 
ENDROOT
BRANCH   1  16
HETATM   16  C   UNK N   1      28.438  23.888  -3.483  0.00  0.00     0.051 C 
BRANCH  16  17
HETATM   17  C   UNK N   1      29.870  24.386  -3.379  0.00  0.00     0.114 C 
BRANCH  17  18
HETATM   18  C   UNK N   1      30.696  23.326  -2.725  0.00  0.00     0.139 C 
HETATM   19  O   UNK N   1      31.584  22.766  -3.349  0.00  0.00    -0.650 OA
BRANCH  18  20
HETATM   20  O   UNK N   1      30.476  23.001  -1.437  0.00  0.00    -0.776 OA
HETATM   21  H   UNK N   1      31.031  23.322  -0.754  0.00  0.00     0.167 HD
ENDBRANCH  18  20
ENDBRANCH  17  18
ENDBRANCH  16  17
ENDBRANCH   1  16
TORSDOF 4
ENDMDL
