MODEL 1
REMARK VINA RESULT:      -6.1      0.000      0.000
REMARK  6 active torsions:
REMARK  status: ('A' for Active; 'I' for Inactive)
REMARK    1  A    between atoms: C_2  and  O_17 
REMARK    2  A    between atoms: C_3  and  O_19 
REMARK    3  A    between atoms: C_5  and  O_17 
REMARK    4  A    between atoms: C_7  and  O_16 
REMARK    5  A    between atoms: C_10  and  C_13 
REMARK    6  A    between atoms: C_14  and  C_13 
ROOT
HETATM    1  C   UNK N   1      28.126  18.361   6.465  0.00  0.00     0.184 C 
HETATM    2  C   UNK N   1      27.240  19.510   6.003  0.00  0.00     0.167 C 
HETATM    3  C   UNK N   1      27.919  19.851   4.690  0.00  0.00     0.148 C 
HETATM    4  C   UNK N   1      28.263  17.580   5.174  0.00  0.00     0.113 C 
HETATM    5  N   UNK N   1      28.431  18.592   4.127  0.00  0.00    -0.412 N 
HETATM    6  H   UNK N   1      28.823  18.452   3.196  0.00  0.00     0.153 HD
ENDROOT
BRANCH   4   7
HETATM    7  C   UNK N   1      29.383  16.521   5.273  0.00  0.00     0.066 C 
BRANCH   7   8
HETATM    8  C   UNK N   1      30.756  16.862   5.796  0.00  0.00    -0.056 A 
HETATM    9  C   UNK N   1      31.698  17.352   4.885  0.00  0.00     0.010 A 
HETATM   10  C   UNK N   1      32.983  17.704   5.313  0.00  0.00     0.037 A 
HETATM   11  C   UNK N   1      33.342  17.565   6.657  0.00  0.00     0.068 A 
HETATM   12  C   UNK N   1      32.404  17.054   7.570  0.00  0.00     0.037 A 
HETATM   13  C   UNK N   1      31.123  16.706   7.139  0.00  0.00     0.010 A 
BRANCH  11  14
HETATM   14  O   UNK N   1      34.585  17.930   7.049  0.00  0.00    -0.356 OA
HETATM   15  C   UNK N   1      34.862  18.430   8.301  0.00  0.00     0.210 C 
ENDBRANCH  11  14
ENDBRANCH   7   8
ENDBRANCH   4   7
BRANCH   1  16
HETATM   16  O   UNK N   1      27.715  17.549   7.521  0.00  0.00    -0.311 OA
BRANCH  16  17
HETATM   17  C   UNK N   1      28.063  17.573   8.836  0.00  0.00     0.255 C 
HETATM   18  C   UNK N   1      29.102  18.540   9.286  0.00  0.00     0.126 C 
HETATM   19  O   UNK N   1      27.532  16.845   9.657  0.00  0.00    -0.266 OA
ENDBRANCH  16  17
ENDBRANCH   1  16
BRANCH   2  20
HETATM   20  O   UNK N   1      25.939  19.084   5.711  0.00  0.00    -0.391 OA
HETATM   21  H   UNK N   1      24.984  19.254   5.690  0.00  0.00     0.210 HD
ENDBRANCH   2  20
TORSDOF 6
ENDMDL
MODEL 2
REMARK VINA RESULT:      -5.9      3.702      6.751
REMARK  6 active torsions:
REMARK  status: ('A' for Active; 'I' for Inactive)
REMARK    1  A    between atoms: C_2  and  O_17 
REMARK    2  A    between atoms: C_3  and  O_19 
REMARK    3  A    between atoms: C_5  and  O_17 
REMARK    4  A    between atoms: C_7  and  O_16 
REMARK    5  A    between atoms: C_10  and  C_13 
REMARK    6  A    between atoms: C_14  and  C_13 
ROOT
HETATM    1  C   UNK N   1      34.546  15.275   9.131  0.00  0.00     0.184 C 
HETATM    2  C   UNK N   1      34.688  14.968  10.616  0.00  0.00     0.167 C 
HETATM    3  C   UNK N   1      35.423  16.216  11.071  0.00  0.00     0.148 C 
HETATM    4  C   UNK N   1      34.118  16.727   9.189  0.00  0.00     0.113 C 
HETATM    5  N   UNK N   1      34.936  17.330  10.244  0.00  0.00    -0.412 N 
HETATM    6  H   UNK N   1      35.130  18.322  10.378  0.00  0.00     0.153 HD
ENDROOT
BRANCH   4   7
HETATM    7  C   UNK N   1      34.209  17.396   7.799  0.00  0.00     0.066 C 
BRANCH   7   8
HETATM    8  C   UNK N   1      33.064  17.354   6.819  0.00  0.00    -0.056 A 
HETATM    9  C   UNK N   1      33.364  17.487   5.459  0.00  0.00     0.010 A 
HETATM   10  C   UNK N   1      32.346  17.438   4.500  0.00  0.00     0.037 A 
HETATM   11  C   UNK N   1      31.016  17.259   4.890  0.00  0.00     0.068 A 
HETATM   12  C   UNK N   1      30.710  17.144   6.257  0.00  0.00     0.037 A 
HETATM   13  C   UNK N   1      31.729  17.194   7.210  0.00  0.00     0.010 A 
BRANCH  11  14
HETATM   14  O   UNK N   1      30.053  17.195   3.942  0.00  0.00    -0.356 OA
HETATM   15  C   UNK N   1      30.079  16.291   2.903  0.00  0.00     0.210 C 
ENDBRANCH  11  14
ENDBRANCH   7   8
ENDBRANCH   4   7
BRANCH   1  16
HETATM   16  O   UNK N   1      33.687  14.511   8.344  0.00  0.00    -0.311 OA
BRANCH  16  17
HETATM   17  C   UNK N   1      33.945  13.740   7.253  0.00  0.00     0.255 C 
HETATM   18  C   UNK N   1      32.938  13.689   6.157  0.00  0.00     0.126 C 
HETATM   19  O   UNK N   1      34.983  13.112   7.138  0.00  0.00    -0.266 OA
ENDBRANCH  16  17
ENDBRANCH   1  16
BRANCH   2  20
HETATM   20  O   UNK N   1      33.449  14.942  11.267  0.00  0.00    -0.391 OA
HETATM   21  H   UNK N   1      32.561  15.310  11.398  0.00  0.00     0.210 HD
ENDBRANCH   2  20
TORSDOF 6
ENDMDL
MODEL 3
REMARK VINA RESULT:      -5.8      6.734      9.711
REMARK  6 active torsions:
REMARK  status: ('A' for Active; 'I' for Inactive)
REMARK    1  A    between atoms: C_2  and  O_17 
REMARK    2  A    between atoms: C_3  and  O_19 
REMARK    3  A    between atoms: C_5  and  O_17 
REMARK    4  A    between atoms: C_7  and  O_16 
REMARK    5  A    between atoms: C_10  and  C_13 
REMARK    6  A    between atoms: C_14  and  C_13 
ROOT
HETATM    1  C   UNK N   1      22.414  19.394   3.332  0.00  0.00     0.184 C 
HETATM    2  C   UNK N   1      21.352  20.063   2.470  0.00  0.00     0.167 C 
HETATM    3  C   UNK N   1      20.276  18.994   2.505  0.00  0.00     0.148 C 
HETATM    4  C   UNK N   1      21.560  18.867   4.466  0.00  0.00     0.113 C 
HETATM    5  N   UNK N   1      20.344  18.354   3.827  0.00  0.00    -0.412 N 
HETATM    6  H   UNK N   1      19.679  17.688   4.220  0.00  0.00     0.153 HD
ENDROOT
BRANCH   4   7
HETATM    7  C   UNK N   1      22.340  17.858   5.337  0.00  0.00     0.066 C 
BRANCH   7   8
HETATM    8  C   UNK N   1      21.648  16.977   6.346  0.00  0.00    -0.056 A 
HETATM    9  C   UNK N   1      22.062  15.643   6.442  0.00  0.00     0.010 A 
HETATM   10  C   UNK N   1      21.472  14.782   7.372  0.00  0.00     0.037 A 
HETATM   11  C   UNK N   1      20.457  15.242   8.215  0.00  0.00     0.068 A 
HETATM   12  C   UNK N   1      20.025  16.575   8.108  0.00  0.00     0.037 A 
HETATM   13  C   UNK N   1      20.618  17.431   7.179  0.00  0.00     0.010 A 
BRANCH  11  14
HETATM   14  O   UNK N   1      19.915  14.394   9.120  0.00  0.00    -0.356 OA
HETATM   15  C   UNK N   1      20.671  13.607   9.960  0.00  0.00     0.210 C 
ENDBRANCH  11  14
ENDBRANCH   7   8
ENDBRANCH   4   7
BRANCH   1  16
HETATM   16  O   UNK N   1      23.497  20.136   3.800  0.00  0.00    -0.311 OA
BRANCH  16  17
HETATM   17  C   UNK N   1      24.699  20.401   3.219  0.00  0.00     0.255 C 
HETATM   18  C   UNK N   1      25.944  20.106   3.982  0.00  0.00     0.126 C 
HETATM   19  O   UNK N   1      24.785  20.847   2.089  0.00  0.00    -0.266 OA
ENDBRANCH  16  17
ENDBRANCH   1  16
BRANCH   2  20
HETATM   20  O   UNK N   1      20.831  21.211   3.079  0.00  0.00    -0.391 OA
HETATM   21  H   UNK N   1      20.967  22.050   3.546  0.00  0.00     0.210 HD
ENDBRANCH   2  20
TORSDOF 6
ENDMDL
MODEL 4
REMARK VINA RESULT:      -5.7     15.529     17.367
REMARK  6 active torsions:
REMARK  status: ('A' for Active; 'I' for Inactive)
REMARK    1  A    between atoms: C_2  and  O_17 
REMARK    2  A    between atoms: C_3  and  O_19 
REMARK    3  A    between atoms: C_5  and  O_17 
REMARK    4  A    between atoms: C_7  and  O_16 
REMARK    5  A    between atoms: C_10  and  C_13 
REMARK    6  A    between atoms: C_14  and  C_13 
ROOT
HETATM    1  C   UNK N   1      25.644  24.022  -9.045  0.00  0.00     0.184 C 
HETATM    2  C   UNK N   1      25.502  22.553  -8.674  0.00  0.00     0.167 C 
HETATM    3  C   UNK N   1      26.503  22.472  -7.536  0.00  0.00     0.148 C 
HETATM    4  C   UNK N   1      25.653  24.656  -7.669  0.00  0.00     0.113 C 
HETATM    5  N   UNK N   1      26.471  23.766  -6.839  0.00  0.00    -0.412 N 
HETATM    6  H   UNK N   1      26.927  23.998  -5.957  0.00  0.00     0.153 HD
ENDROOT
BRANCH   4   7
HETATM    7  C   UNK N   1      26.110  26.130  -7.731  0.00  0.00     0.066 C 
BRANCH   7   8
HETATM    8  C   UNK N   1      26.111  27.014  -6.510  0.00  0.00    -0.056 A 
HETATM    9  C   UNK N   1      27.124  27.973  -6.398  0.00  0.00     0.010 A 
HETATM   10  C   UNK N   1      27.167  28.836  -5.298  0.00  0.00     0.037 A 
HETATM   11  C   UNK N   1      26.200  28.747  -4.293  0.00  0.00     0.068 A 
HETATM   12  C   UNK N   1      25.192  27.772  -4.393  0.00  0.00     0.037 A 
HETATM   13  C   UNK N   1      25.153  26.914  -5.493  0.00  0.00     0.010 A 
BRANCH  11  14
HETATM   14  O   UNK N   1      26.252  29.606  -3.249  0.00  0.00    -0.356 OA
HETATM   15  C   UNK N   1      27.420  30.192  -2.815  0.00  0.00     0.210 C 
ENDBRANCH  11  14
ENDBRANCH   7   8
ENDBRANCH   4   7
BRANCH   1  16
HETATM   16  O   UNK N   1      24.706  24.620  -9.885  0.00  0.00    -0.311 OA
BRANCH  16  17
HETATM   17  C   UNK N   1      24.841  25.109 -11.148  0.00  0.00     0.255 C 
HETATM   18  C   UNK N   1      24.928  26.583 -11.340  0.00  0.00     0.126 C 
HETATM   19  O   UNK N   1      24.918  24.376 -12.118  0.00  0.00    -0.266 OA
ENDBRANCH  16  17
ENDBRANCH   1  16
BRANCH   2  20
HETATM   20  O   UNK N   1      24.237  22.265  -8.147  0.00  0.00    -0.391 OA
HETATM   21  H   UNK N   1      23.479  21.665  -8.061  0.00  0.00     0.210 HD
ENDBRANCH   2  20
TORSDOF 6
ENDMDL
MODEL 5
REMARK VINA RESULT:      -5.5      5.398      8.628
REMARK  6 active torsions:
REMARK  status: ('A' for Active; 'I' for Inactive)
REMARK    1  A    between atoms: C_2  and  O_17 
REMARK    2  A    between atoms: C_3  and  O_19 
REMARK    3  A    between atoms: C_5  and  O_17 
REMARK    4  A    between atoms: C_7  and  O_16 
REMARK    5  A    between atoms: C_10  and  C_13 
REMARK    6  A    between atoms: C_14  and  C_13 
ROOT
HETATM    1  C   UNK N   1      35.964  14.155  11.482  0.00  0.00     0.184 C 
HETATM    2  C   UNK N   1      36.899  13.049  11.013  0.00  0.00     0.167 C 
HETATM    3  C   UNK N   1      36.733  13.186   9.510  0.00  0.00     0.148 C 
HETATM    4  C   UNK N   1      36.349  15.266  10.528  0.00  0.00     0.113 C 
HETATM    5  N   UNK N   1      36.527  14.615   9.227  0.00  0.00    -0.412 N 
HETATM    6  H   UNK N   1      36.512  15.061   8.311  0.00  0.00     0.153 HD
ENDROOT
BRANCH   4   7
HETATM    7  C   UNK N   1      35.324  16.422  10.568  0.00  0.00     0.066 C 
BRANCH   7   8
HETATM    8  C   UNK N   1      34.391  16.698   9.416  0.00  0.00    -0.056 A 
HETATM    9  C   UNK N   1      33.314  15.826   9.225  0.00  0.00     0.010 A 
HETATM   10  C   UNK N   1      32.403  16.039   8.185  0.00  0.00     0.037 A 
HETATM   11  C   UNK N   1      32.562  17.126   7.321  0.00  0.00     0.068 A 
HETATM   12  C   UNK N   1      33.654  17.992   7.498  0.00  0.00     0.037 A 
HETATM   13  C   UNK N   1      34.559  17.775   8.537  0.00  0.00     0.010 A 
BRANCH  11  14
HETATM   14  O   UNK N   1      31.655  17.322   6.335  0.00  0.00    -0.356 OA
HETATM   15  C   UNK N   1      30.304  17.127   6.506  0.00  0.00     0.210 C 
ENDBRANCH  11  14
ENDBRANCH   7   8
ENDBRANCH   4   7
BRANCH   1  16
HETATM   16  O   UNK N   1      35.998  14.575  12.810  0.00  0.00    -0.311 OA
BRANCH  16  17
HETATM   17  C   UNK N   1      35.774  13.881  13.959  0.00  0.00     0.255 C 
HETATM   18  C   UNK N   1      36.797  13.936  15.040  0.00  0.00     0.126 C 
HETATM   19  O   UNK N   1      34.753  13.240  14.137  0.00  0.00    -0.266 OA
ENDBRANCH  16  17
ENDBRANCH   1  16
BRANCH   2  20
HETATM   20  O   UNK N   1      38.236  13.327  11.321  0.00  0.00    -0.391 OA
HETATM   21  H   UNK N   1      39.022  13.887  11.222  0.00  0.00     0.210 HD
ENDBRANCH   2  20
TORSDOF 6
ENDMDL
MODEL 6
REMARK VINA RESULT:      -5.5     14.479     16.142
REMARK  6 active torsions:
REMARK  status: ('A' for Active; 'I' for Inactive)
REMARK    1  A    between atoms: C_2  and  O_17 
REMARK    2  A    between atoms: C_3  and  O_19 
REMARK    3  A    between atoms: C_5  and  O_17 
REMARK    4  A    between atoms: C_7  and  O_16 
REMARK    5  A    between atoms: C_10  and  C_13 
REMARK    6  A    between atoms: C_14  and  C_13 
ROOT
HETATM    1  C   UNK N   1      25.392  23.995  -8.544  0.00  0.00     0.184 C 
HETATM    2  C   UNK N   1      26.237  24.190  -9.795  0.00  0.00     0.167 C 
HETATM    3  C   UNK N   1      27.154  25.304  -9.320  0.00  0.00     0.148 C 
HETATM    4  C   UNK N   1      26.466  24.024  -7.476  0.00  0.00     0.113 C 
HETATM    5  N   UNK N   1      27.388  25.087  -7.884  0.00  0.00    -0.412 N 
HETATM    6  H   UNK N   1      28.058  25.578  -7.292  0.00  0.00     0.153 HD
ENDROOT
BRANCH   4   7
HETATM    7  C   UNK N   1      25.853  24.167  -6.065  0.00  0.00     0.066 C 
BRANCH   7   8
HETATM    8  C   UNK N   1      25.882  25.475  -5.315  0.00  0.00    -0.056 A 
HETATM    9  C   UNK N   1      26.745  25.578  -4.218  0.00  0.00     0.010 A 
HETATM   10  C   UNK N   1      26.831  26.772  -3.493  0.00  0.00     0.037 A 
HETATM   11  C   UNK N   1      26.052  27.875  -3.854  0.00  0.00     0.068 A 
HETATM   12  C   UNK N   1      25.171  27.767  -4.944  0.00  0.00     0.037 A 
HETATM   13  C   UNK N   1      25.089  26.575  -5.664  0.00  0.00     0.010 A 
BRANCH  11  14
HETATM   14  O   UNK N   1      26.168  29.024  -3.149  0.00  0.00    -0.356 OA
HETATM   15  C   UNK N   1      27.355  29.451  -2.596  0.00  0.00     0.210 C 
ENDBRANCH  11  14
ENDBRANCH   7   8
ENDBRANCH   4   7
BRANCH   1  16
HETATM   16  O   UNK N   1      24.574  22.873  -8.428  0.00  0.00    -0.311 OA
BRANCH  16  17
HETATM   17  C   UNK N   1      24.873  21.602  -8.045  0.00  0.00     0.255 C 
HETATM   18  C   UNK N   1      24.303  21.084  -6.771  0.00  0.00     0.126 C 
HETATM   19  O   UNK N   1      25.571  20.871  -8.726  0.00  0.00    -0.266 OA
ENDBRANCH  16  17
ENDBRANCH   1  16
BRANCH   2  20
HETATM   20  O   UNK N   1      27.034  23.072 -10.069  0.00  0.00    -0.391 OA
HETATM   21  H   UNK N   1      27.219  22.126  -9.962  0.00  0.00     0.210 HD
ENDBRANCH   2  20
TORSDOF 6
ENDMDL
MODEL 7
REMARK VINA RESULT:      -5.4      2.086      6.162
REMARK  6 active torsions:
REMARK  status: ('A' for Active; 'I' for Inactive)
REMARK    1  A    between atoms: C_2  and  O_17 
REMARK    2  A    between atoms: C_3  and  O_19 
REMARK    3  A    between atoms: C_5  and  O_17 
REMARK    4  A    between atoms: C_7  and  O_16 
REMARK    5  A    between atoms: C_10  and  C_13 
REMARK    6  A    between atoms: C_14  and  C_13 
ROOT
HETATM    1  C   UNK N   1      31.049  17.542   7.158  0.00  0.00     0.184 C 
HETATM    2  C   UNK N   1      31.014  17.669   8.675  0.00  0.00     0.167 C 
HETATM    3  C   UNK N   1      29.569  18.089   8.869  0.00  0.00     0.148 C 
HETATM    4  C   UNK N   1      29.748  16.806   6.912  0.00  0.00     0.113 C 
HETATM    5  N   UNK N   1      28.779  17.417   7.827  0.00  0.00    -0.412 N 
HETATM    6  H   UNK N   1      27.762  17.383   7.754  0.00  0.00     0.153 HD
ENDROOT
BRANCH   4   7
HETATM    7  C   UNK N   1      29.366  16.823   5.415  0.00  0.00     0.066 C 
BRANCH   7   8
HETATM    8  C   UNK N   1      28.276  17.719   4.883  0.00  0.00    -0.056 A 
HETATM    9  C   UNK N   1      28.551  19.086   4.772  0.00  0.00     0.010 A 
HETATM   10  C   UNK N   1      27.587  19.966   4.268  0.00  0.00     0.037 A 
HETATM   11  C   UNK N   1      26.335  19.488   3.872  0.00  0.00     0.068 A 
HETATM   12  C   UNK N   1      26.049  18.118   4.000  0.00  0.00     0.037 A 
HETATM   13  C   UNK N   1      27.014  17.245   4.503  0.00  0.00     0.010 A 
BRANCH  11  14
HETATM   14  O   UNK N   1      25.427  20.356   3.369  0.00  0.00    -0.356 OA
HETATM   15  C   UNK N   1      24.081  20.078   3.293  0.00  0.00     0.210 C 
ENDBRANCH  11  14
ENDBRANCH   7   8
ENDBRANCH   4   7
BRANCH   1  16
HETATM   16  O   UNK N   1      32.126  16.912   6.539  0.00  0.00    -0.311 OA
BRANCH  16  17
HETATM   17  C   UNK N   1      33.104  17.421   5.741  0.00  0.00     0.255 C 
HETATM   18  C   UNK N   1      32.823  17.604   4.291  0.00  0.00     0.126 C 
HETATM   19  O   UNK N   1      34.190  17.754   6.184  0.00  0.00    -0.266 OA
ENDBRANCH  16  17
ENDBRANCH   1  16
BRANCH   2  20
HETATM   20  O   UNK N   1      31.186  16.433   9.309  0.00  0.00    -0.391 OA
HETATM   21  H   UNK N   1      31.673  15.866   9.928  0.00  0.00     0.210 HD
ENDBRANCH   2  20
TORSDOF 6
ENDMDL
MODEL 8
REMARK VINA RESULT:      -5.4      1.844      3.122
REMARK  6 active torsions:
REMARK  status: ('A' for Active; 'I' for Inactive)
REMARK    1  A    between atoms: C_2  and  O_17 
REMARK    2  A    between atoms: C_3  and  O_19 
REMARK    3  A    between atoms: C_5  and  O_17 
REMARK    4  A    between atoms: C_7  and  O_16 
REMARK    5  A    between atoms: C_10  and  C_13 
REMARK    6  A    between atoms: C_14  and  C_13 
ROOT
HETATM    1  C   UNK N   1      28.106  17.469   5.321  0.00  0.00     0.184 C 
HETATM    2  C   UNK N   1      26.866  16.644   5.636  0.00  0.00     0.167 C 
HETATM    3  C   UNK N   1      27.330  15.281   5.159  0.00  0.00     0.148 C 
HETATM    4  C   UNK N   1      29.191  16.543   5.831  0.00  0.00     0.113 C 
HETATM    5  N   UNK N   1      28.774  15.198   5.425  0.00  0.00    -0.412 N 
HETATM    6  H   UNK N   1      29.366  14.372   5.342  0.00  0.00     0.153 HD
ENDROOT
BRANCH   4   7
HETATM    7  C   UNK N   1      30.588  16.992   5.346  0.00  0.00     0.066 C 
BRANCH   7   8
HETATM    8  C   UNK N   1      31.727  17.222   6.307  0.00  0.00    -0.056 A 
HETATM    9  C   UNK N   1      31.420  17.343   7.667  0.00  0.00     0.010 A 
HETATM   10  C   UNK N   1      32.435  17.539   8.609  0.00  0.00     0.037 A 
HETATM   11  C   UNK N   1      33.769  17.620   8.202  0.00  0.00     0.068 A 
HETATM   12  C   UNK N   1      34.079  17.518   6.835  0.00  0.00     0.037 A 
HETATM   13  C   UNK N   1      33.063  17.323   5.899  0.00  0.00     0.010 A 
BRANCH  11  14
HETATM   14  O   UNK N   1      34.735  17.790   9.136  0.00  0.00    -0.356 OA
HETATM   15  C   UNK N   1      35.087  16.814  10.039  0.00  0.00     0.210 C 
ENDBRANCH  11  14
ENDBRANCH   7   8
ENDBRANCH   4   7
BRANCH   1  16
HETATM   16  O   UNK N   1      28.235  18.755   5.841  0.00  0.00    -0.311 OA
BRANCH  16  17
HETATM   17  C   UNK N   1      27.732  19.939   5.396  0.00  0.00     0.255 C 
HETATM   18  C   UNK N   1      27.229  20.024   3.997  0.00  0.00     0.126 C 
HETATM   19  O   UNK N   1      27.659  20.920   6.116  0.00  0.00    -0.266 OA
ENDBRANCH  16  17
ENDBRANCH   1  16
BRANCH   2  20
HETATM   20  O   UNK N   1      26.631  16.556   7.013  0.00  0.00    -0.391 OA
HETATM   21  H   UNK N   1      26.364  16.970   7.849  0.00  0.00     0.210 HD
ENDBRANCH   2  20
TORSDOF 6
ENDMDL
MODEL 9
REMARK VINA RESULT:      -5.3     14.275     16.179
REMARK  6 active torsions:
REMARK  status: ('A' for Active; 'I' for Inactive)
REMARK    1  A    between atoms: C_2  and  O_17 
REMARK    2  A    between atoms: C_3  and  O_19 
REMARK    3  A    between atoms: C_5  and  O_17 
REMARK    4  A    between atoms: C_7  and  O_16 
REMARK    5  A    between atoms: C_10  and  C_13 
REMARK    6  A    between atoms: C_14  and  C_13 
ROOT
HETATM    1  C   UNK N   1      28.689  29.998  -3.449  0.00  0.00     0.184 C 
HETATM    2  C   UNK N   1      29.851  30.293  -2.510  0.00  0.00     0.167 C 
HETATM    3  C   UNK N   1      29.086  30.584  -1.232  0.00  0.00     0.148 C 
HETATM    4  C   UNK N   1      27.837  29.111  -2.566  0.00  0.00     0.113 C 
HETATM    5  N   UNK N   1      27.895  29.721  -1.234  0.00  0.00    -0.412 N 
HETATM    6  H   UNK N   1      27.242  29.576  -0.465  0.00  0.00     0.153 HD
ENDROOT
BRANCH   4   7
HETATM    7  C   UNK N   1      26.423  28.919  -3.158  0.00  0.00     0.066 C 
BRANCH   7   8
HETATM    8  C   UNK N   1      26.069  27.717  -3.997  0.00  0.00    -0.056 A 
HETATM    9  C   UNK N   1      26.607  26.480  -3.625  0.00  0.00     0.010 A 
HETATM   10  C   UNK N   1      26.300  25.325  -4.352  0.00  0.00     0.037 A 
HETATM   11  C   UNK N   1      25.455  25.394  -5.463  0.00  0.00     0.068 A 
HETATM   12  C   UNK N   1      24.929  26.639  -5.851  0.00  0.00     0.037 A 
HETATM   13  C   UNK N   1      25.237  27.788  -5.121  0.00  0.00     0.010 A 
BRANCH  11  14
HETATM   14  O   UNK N   1      25.158  24.259  -6.138  0.00  0.00    -0.356 OA
HETATM   15  C   UNK N   1      26.003  23.175  -6.194  0.00  0.00     0.210 C 
ENDBRANCH  11  14
ENDBRANCH   7   8
ENDBRANCH   4   7
BRANCH   1  16
HETATM   16  O   UNK N   1      28.932  29.415  -4.691  0.00  0.00    -0.311 OA
BRANCH  16  17
HETATM   17  C   UNK N   1      28.686  29.880  -5.946  0.00  0.00     0.255 C 
HETATM   18  C   UNK N   1      28.171  28.934  -6.973  0.00  0.00     0.126 C 
HETATM   19  O   UNK N   1      28.850  31.051  -6.243  0.00  0.00    -0.266 OA
ENDBRANCH  16  17
ENDBRANCH   1  16
BRANCH   2  20
HETATM   20  O   UNK N   1      30.642  29.160  -2.283  0.00  0.00    -0.391 OA
HETATM   21  H   UNK N   1      30.874  28.393  -1.737  0.00  0.00     0.210 HD
ENDBRANCH   2  20
TORSDOF 6
ENDMDL
