MODEL 1
REMARK VINA RESULT:      -6.4      0.000      0.000
REMARK  2 active torsions:
REMARK  status: ('A' for Active; 'I' for Inactive)
REMARK    1  A    between atoms: C_1  and  S_14 
REMARK    2  A    between atoms: C_6  and  N_11 
ROOT
HETATM    1  S   UNK N   1      33.963  17.772   8.342  0.00  0.00     0.130 S 
HETATM    2  O   UNK N   1      35.042  16.702   8.561  0.00  0.00    -0.598 OA
HETATM    3  O   UNK N   1      34.701  19.116   8.253  0.00  0.00    -0.598 OA
HETATM    4  O   UNK N   1      34.599  17.614   6.752  0.00  0.00    -0.292 OA
HETATM    5  H   UNK N   1      35.016  17.419   5.898  0.00  0.00     0.232 HD
ENDROOT
BRANCH   1   6
HETATM    6  C   UNK N   1      32.544  17.533   7.247  0.00  0.00     0.083 A 
HETATM    7  C   UNK N   1      32.794  17.200   5.910  0.00  0.00     0.026 A 
HETATM    8  C   UNK N   1      31.746  17.023   5.016  0.00  0.00     0.003 A 
HETATM    9  C   UNK N   1      30.432  17.192   5.440  0.00  0.00     0.014 A 
HETATM   10  C   UNK N   1      30.130  17.544   6.764  0.00  0.00     0.002 A 
HETATM   11  C   UNK N   1      28.781  17.739   7.201  0.00  0.00     0.040 A 
HETATM   12  C   UNK N   1      31.208  17.718   7.681  0.00  0.00    -0.000 A 
HETATM   13  C   UNK N   1      28.569  18.100   8.545  0.00  0.00     0.030 A 
HETATM   14  C   UNK N   1      29.628  18.264   9.434  0.00  0.00     0.003 A 
HETATM   15  C   UNK N   1      30.938  18.076   9.006  0.00  0.00     0.014 A 
BRANCH  11  16
HETATM   16  N   UNK N   1      27.629  17.593   6.343  0.00  0.00    -0.389 N 
HETATM   17  C   UNK N   1      26.954  16.323   6.247  0.00  0.00     0.149 C 
HETATM   18  C   UNK N   1      27.091  18.672   5.551  0.00  0.00     0.149 C 
ENDBRANCH  11  16
ENDBRANCH   1   6
TORSDOF 2
ENDMDL
MODEL 2
REMARK VINA RESULT:      -6.2      1.553      3.309
REMARK  2 active torsions:
REMARK  status: ('A' for Active; 'I' for Inactive)
REMARK    1  A    between atoms: C_1  and  S_14 
REMARK    2  A    between atoms: C_6  and  N_11 
ROOT
HETATM    1  S   UNK N   1      34.360  17.725   7.805  0.00  0.00     0.130 S 
HETATM    2  O   UNK N   1      34.907  19.044   8.370  0.00  0.00    -0.598 OA
HETATM    3  O   UNK N   1      35.026  16.601   8.612  0.00  0.00    -0.598 OA
HETATM    4  O   UNK N   1      33.444  17.868   9.254  0.00  0.00    -0.292 OA
HETATM    5  H   UNK N   1      32.970  18.069  10.076  0.00  0.00     0.232 HD
ENDROOT
BRANCH   1   6
HETATM    6  C   UNK N   1      32.628  17.492   7.338  0.00  0.00     0.083 A 
HETATM    7  C   UNK N   1      31.672  17.454   8.360  0.00  0.00     0.026 A 
HETATM    8  C   UNK N   1      30.328  17.259   8.066  0.00  0.00     0.003 A 
HETATM    9  C   UNK N   1      29.921  17.083   6.748  0.00  0.00     0.014 A 
HETATM   10  C   UNK N   1      30.843  17.094   5.690  0.00  0.00     0.002 A 
HETATM   11  C   UNK N   1      30.433  16.894   4.334  0.00  0.00     0.040 A 
HETATM   12  C   UNK N   1      32.220  17.303   5.995  0.00  0.00    -0.000 A 
HETATM   13  C   UNK N   1      31.426  16.913   3.336  0.00  0.00     0.030 A 
HETATM   14  C   UNK N   1      32.768  17.119   3.643  0.00  0.00     0.003 A 
HETATM   15  C   UNK N   1      33.164  17.312   4.961  0.00  0.00     0.014 A 
BRANCH  11  16
HETATM   16  N   UNK N   1      29.065  16.668   3.932  0.00  0.00    -0.389 N 
HETATM   17  C   UNK N   1      28.626  15.344   3.571  0.00  0.00     0.149 C 
HETATM   18  C   UNK N   1      28.075  17.716   3.870  0.00  0.00     0.149 C 
ENDBRANCH  11  16
ENDBRANCH   1   6
TORSDOF 2
ENDMDL
MODEL 3
REMARK VINA RESULT:      -6.1      7.593      9.393
REMARK  2 active torsions:
REMARK  status: ('A' for Active; 'I' for Inactive)
REMARK    1  A    between atoms: C_1  and  S_14 
REMARK    2  A    between atoms: C_6  and  N_11 
ROOT
HETATM    1  S   UNK N   1      21.227  19.978   2.958  0.00  0.00     0.130 S 
HETATM    2  O   UNK N   1      20.321  20.791   3.894  0.00  0.00    -0.598 OA
HETATM    3  O   UNK N   1      20.791  20.327   1.527  0.00  0.00    -0.598 OA
HETATM    4  O   UNK N   1      21.945  21.536   2.841  0.00  0.00    -0.292 OA
HETATM    5  H   UNK N   1      22.279  22.446   2.876  0.00  0.00     0.232 HD
ENDROOT
BRANCH   1   6
HETATM    6  C   UNK N   1      22.996  19.746   3.251  0.00  0.00     0.083 A 
HETATM    7  C   UNK N   1      23.882  20.671   2.686  0.00  0.00     0.026 A 
HETATM    8  C   UNK N   1      25.254  20.535   2.859  0.00  0.00     0.003 A 
HETATM    9  C   UNK N   1      25.762  19.464   3.586  0.00  0.00     0.014 A 
HETATM   10  C   UNK N   1      24.917  18.500   4.156  0.00  0.00     0.002 A 
HETATM   11  C   UNK N   1      25.435  17.385   4.888  0.00  0.00     0.040 A 
HETATM   12  C   UNK N   1      23.509  18.647   3.982  0.00  0.00    -0.000 A 
HETATM   13  C   UNK N   1      24.515  16.460   5.418  0.00  0.00     0.030 A 
HETATM   14  C   UNK N   1      23.142  16.614   5.246  0.00  0.00     0.003 A 
HETATM   15  C   UNK N   1      22.641  17.697   4.533  0.00  0.00     0.014 A 
BRANCH  11  16
HETATM   16  N   UNK N   1      26.843  17.151   5.106  0.00  0.00    -0.389 N 
HETATM   17  C   UNK N   1      27.597  16.351   4.174  0.00  0.00     0.149 C 
HETATM   18  C   UNK N   1      27.568  17.685   6.233  0.00  0.00     0.149 C 
ENDBRANCH  11  16
ENDBRANCH   1   6
TORSDOF 2
ENDMDL
MODEL 4
REMARK VINA RESULT:      -5.9     14.953     16.697
REMARK  2 active torsions:
REMARK  status: ('A' for Active; 'I' for Inactive)
REMARK    1  A    between atoms: C_1  and  S_14 
REMARK    2  A    between atoms: C_6  and  N_11 
ROOT
HETATM    1  S   UNK N   1      25.511  22.273  -7.475  0.00  0.00     0.130 S 
HETATM    2  O   UNK N   1      24.200  21.598  -7.045  0.00  0.00    -0.598 OA
HETATM    3  O   UNK N   1      25.899  21.641  -8.820  0.00  0.00    -0.598 OA
HETATM    4  O   UNK N   1      24.376  23.085  -8.480  0.00  0.00    -0.292 OA
HETATM    5  H   UNK N   1      23.646  23.492  -8.973  0.00  0.00     0.232 HD
ENDROOT
BRANCH   1   6
HETATM    6  C   UNK N   1      25.825  24.042  -7.271  0.00  0.00     0.083 A 
HETATM    7  C   UNK N   1      25.772  24.854  -8.410  0.00  0.00     0.026 A 
HETATM    8  C   UNK N   1      26.023  26.218  -8.321  0.00  0.00     0.003 A 
HETATM    9  C   UNK N   1      26.347  26.788  -7.095  0.00  0.00     0.014 A 
HETATM   10  C   UNK N   1      26.431  26.014  -5.927  0.00  0.00     0.002 A 
HETATM   11  C   UNK N   1      26.783  26.591  -4.667  0.00  0.00     0.040 A 
HETATM   12  C   UNK N   1      26.165  24.616  -6.022  0.00  0.00    -0.000 A 
HETATM   13  C   UNK N   1      26.853  25.739  -3.548  0.00  0.00     0.030 A 
HETATM   14  C   UNK N   1      26.589  24.376  -3.649  0.00  0.00     0.003 A 
HETATM   15  C   UNK N   1      26.249  23.817  -4.876  0.00  0.00     0.014 A 
BRANCH  11  16
HETATM   16  N   UNK N   1      27.077  27.992  -4.478  0.00  0.00    -0.389 N 
HETATM   17  C   UNK N   1      26.048  28.892  -4.019  0.00  0.00     0.149 C 
HETATM   18  C   UNK N   1      28.376  28.569  -4.724  0.00  0.00     0.149 C 
ENDBRANCH  11  16
ENDBRANCH   1   6
TORSDOF 2
ENDMDL
MODEL 5
REMARK VINA RESULT:      -5.8     11.456     12.868
REMARK  2 active torsions:
REMARK  status: ('A' for Active; 'I' for Inactive)
REMARK    1  A    between atoms: C_1  and  S_14 
REMARK    2  A    between atoms: C_6  and  N_11 
ROOT
HETATM    1  S   UNK N   1      35.360  13.364  14.202  0.00  0.00     0.130 S 
HETATM    2  O   UNK N   1      36.637  14.188  13.980  0.00  0.00    -0.598 OA
HETATM    3  O   UNK N   1      34.684  13.240  12.828  0.00  0.00    -0.598 OA
HETATM    4  O   UNK N   1      36.399  12.183  13.507  0.00  0.00    -0.292 OA
HETATM    5  H   UNK N   1      37.080  11.599  13.136  0.00  0.00     0.232 HD
ENDROOT
BRANCH   1   6
HETATM    6  C   UNK N   1      35.292  11.922  15.291  0.00  0.00     0.083 A 
HETATM    7  C   UNK N   1      35.222  10.655  14.700  0.00  0.00     0.026 A 
HETATM    8  C   UNK N   1      35.147   9.511  15.484  0.00  0.00     0.003 A 
HETATM    9  C   UNK N   1      35.125   9.616  16.870  0.00  0.00     0.014 A 
HETATM   10  C   UNK N   1      35.174  10.864  17.510  0.00  0.00     0.002 A 
HETATM   11  C   UNK N   1      35.132  10.979  18.936  0.00  0.00     0.040 A 
HETATM   12  C   UNK N   1      35.258  12.036  16.702  0.00  0.00    -0.000 A 
HETATM   13  C   UNK N   1      35.177  12.271  19.494  0.00  0.00     0.030 A 
HETATM   14  C   UNK N   1      35.262  13.409  18.697  0.00  0.00     0.003 A 
HETATM   15  C   UNK N   1      35.301  13.294  17.312  0.00  0.00     0.014 A 
BRANCH  11  16
HETATM   16  N   UNK N   1      35.039   9.850  19.831  0.00  0.00    -0.389 N 
HETATM   17  C   UNK N   1      36.232   9.151  20.240  0.00  0.00     0.149 C 
HETATM   18  C   UNK N   1      33.790   9.363  20.363  0.00  0.00     0.149 C 
ENDBRANCH  11  16
ENDBRANCH   1   6
TORSDOF 2
ENDMDL
MODEL 6
REMARK VINA RESULT:      -5.7      7.605      9.369
REMARK  2 active torsions:
REMARK  status: ('A' for Active; 'I' for Inactive)
REMARK    1  A    between atoms: C_1  and  S_14 
REMARK    2  A    between atoms: C_6  and  N_11 
ROOT
HETATM    1  S   UNK N   1      21.847  20.519   2.675  0.00  0.00     0.130 S 
HETATM    2  O   UNK N   1      21.606  20.493   1.159  0.00  0.00    -0.598 OA
HETATM    3  O   UNK N   1      20.500  20.875   3.320  0.00  0.00    -0.598 OA
HETATM    4  O   UNK N   1      21.063  19.000   2.491  0.00  0.00    -0.292 OA
HETATM    5  H   UNK N   1      20.640  18.156   2.263  0.00  0.00     0.232 HD
ENDROOT
BRANCH   1   6
HETATM    6  C   UNK N   1      22.880  19.306   3.532  0.00  0.00     0.083 A 
HETATM    7  C   UNK N   1      22.242  18.239   4.176  0.00  0.00     0.026 A 
HETATM    8  C   UNK N   1      22.979  17.286   4.868  0.00  0.00     0.003 A 
HETATM    9  C   UNK N   1      24.364  17.394   4.939  0.00  0.00     0.014 A 
HETATM   10  C   UNK N   1      25.048  18.454   4.326  0.00  0.00     0.002 A 
HETATM   11  C   UNK N   1      26.471  18.580   4.413  0.00  0.00     0.040 A 
HETATM   12  C   UNK N   1      24.289  19.426   3.611  0.00  0.00    -0.000 A 
HETATM   13  C   UNK N   1      27.075  19.681   3.775  0.00  0.00     0.030 A 
HETATM   14  C   UNK N   1      26.325  20.623   3.077  0.00  0.00     0.003 A 
HETATM   15  C   UNK N   1      24.943  20.499   2.995  0.00  0.00     0.014 A 
BRANCH  11  16
HETATM   16  N   UNK N   1      27.319  17.650   5.121  0.00  0.00    -0.389 N 
HETATM   17  C   UNK N   1      27.826  16.479   4.451  0.00  0.00     0.149 C 
HETATM   18  C   UNK N   1      27.707  17.825   6.499  0.00  0.00     0.149 C 
ENDBRANCH  11  16
ENDBRANCH   1   6
TORSDOF 2
ENDMDL
MODEL 7
REMARK VINA RESULT:      -5.6      4.136      5.923
REMARK  2 active torsions:
REMARK  status: ('A' for Active; 'I' for Inactive)
REMARK    1  A    between atoms: C_1  and  S_14 
REMARK    2  A    between atoms: C_6  and  N_11 
ROOT
HETATM    1  S   UNK N   1      27.793  17.606   5.177  0.00  0.00     0.130 S 
HETATM    2  O   UNK N   1      26.408  16.976   5.386  0.00  0.00    -0.598 OA
HETATM    3  O   UNK N   1      27.545  19.007   4.596  0.00  0.00    -0.598 OA
HETATM    4  O   UNK N   1      27.283  18.398   6.616  0.00  0.00    -0.292 OA
HETATM    5  H   UNK N   1      26.903  18.757   7.434  0.00  0.00     0.232 HD
ENDROOT
BRANCH   1   6
HETATM    6  C   UNK N   1      29.148  17.430   6.361  0.00  0.00     0.083 A 
HETATM    7  C   UNK N   1      28.826  17.365   7.722  0.00  0.00     0.026 A 
HETATM    8  C   UNK N   1      29.824  17.249   8.682  0.00  0.00     0.003 A 
HETATM    9  C   UNK N   1      31.160  17.212   8.297  0.00  0.00     0.014 A 
HETATM   10  C   UNK N   1      31.535  17.293   6.947  0.00  0.00     0.002 A 
HETATM   11  C   UNK N   1      32.908  17.275   6.547  0.00  0.00     0.040 A 
HETATM   12  C   UNK N   1      30.507  17.404   5.965  0.00  0.00    -0.000 A 
HETATM   13  C   UNK N   1      33.195  17.370   5.171  0.00  0.00     0.030 A 
HETATM   14  C   UNK N   1      32.185  17.475   4.219  0.00  0.00     0.003 A 
HETATM   15  C   UNK N   1      30.851  17.493   4.611  0.00  0.00     0.014 A 
BRANCH  11  16
HETATM   16  N   UNK N   1      34.014  17.174   7.469  0.00  0.00    -0.389 N 
HETATM   17  C   UNK N   1      34.522  18.354   8.122  0.00  0.00     0.149 C 
HETATM   18  C   UNK N   1      34.662  15.927   7.793  0.00  0.00     0.149 C 
ENDBRANCH  11  16
ENDBRANCH   1   6
TORSDOF 2
ENDMDL
MODEL 8
REMARK VINA RESULT:      -5.6      4.364      5.405
REMARK  2 active torsions:
REMARK  status: ('A' for Active; 'I' for Inactive)
REMARK    1  A    between atoms: C_1  and  S_14 
REMARK    2  A    between atoms: C_6  and  N_11 
ROOT
HETATM    1  S   UNK N   1      26.778  18.935   5.031  0.00  0.00     0.130 S 
HETATM    2  O   UNK N   1      26.531  20.447   5.136  0.00  0.00    -0.598 OA
HETATM    3  O   UNK N   1      26.034  18.464   3.772  0.00  0.00    -0.598 OA
HETATM    4  O   UNK N   1      27.872  19.531   3.845  0.00  0.00    -0.292 OA
HETATM    5  H   UNK N   1      28.469  19.982   3.227  0.00  0.00     0.232 HD
ENDROOT
BRANCH   1   6
HETATM    6  C   UNK N   1      28.377  18.168   5.383  0.00  0.00     0.083 A 
HETATM    7  C   UNK N   1      29.079  17.593   4.316  0.00  0.00     0.026 A 
HETATM    8  C   UNK N   1      30.304  16.972   4.526  0.00  0.00     0.003 A 
HETATM    9  C   UNK N   1      30.838  16.900   5.809  0.00  0.00     0.014 A 
HETATM   10  C   UNK N   1      30.164  17.444   6.913  0.00  0.00     0.002 A 
HETATM   11  C   UNK N   1      30.700  17.356   8.237  0.00  0.00     0.040 A 
HETATM   12  C   UNK N   1      28.911  18.088   6.692  0.00  0.00    -0.000 A 
HETATM   13  C   UNK N   1      29.953  17.921   9.289  0.00  0.00     0.030 A 
HETATM   14  C   UNK N   1      28.732  18.550   9.063  0.00  0.00     0.003 A 
HETATM   15  C   UNK N   1      28.213  18.633   7.775  0.00  0.00     0.014 A 
BRANCH  11  16
HETATM   16  N   UNK N   1      31.954  16.717   8.556  0.00  0.00    -0.389 N 
HETATM   17  C   UNK N   1      33.177  17.480   8.549  0.00  0.00     0.149 C 
HETATM   18  C   UNK N   1      32.067  15.320   8.896  0.00  0.00     0.149 C 
ENDBRANCH  11  16
ENDBRANCH   1   6
TORSDOF 2
ENDMDL
MODEL 9
REMARK VINA RESULT:      -5.6     14.002     15.559
REMARK  2 active torsions:
REMARK  status: ('A' for Active; 'I' for Inactive)
REMARK    1  A    between atoms: C_1  and  S_14 
REMARK    2  A    between atoms: C_6  and  N_11 
ROOT
HETATM    1  S   UNK N   1      25.363  22.360  -8.230  0.00  0.00     0.130 S 
HETATM    2  O   UNK N   1      24.597  23.603  -8.705  0.00  0.00    -0.598 OA
HETATM    3  O   UNK N   1      25.318  21.356  -9.392  0.00  0.00    -0.598 OA
HETATM    4  O   UNK N   1      26.531  23.097  -9.256  0.00  0.00    -0.292 OA
HETATM    5  H   UNK N   1      27.115  23.615  -9.831  0.00  0.00     0.232 HD
ENDROOT
BRANCH   1   6
HETATM    6  C   UNK N   1      26.896  22.450  -7.274  0.00  0.00     0.083 A 
HETATM    7  C   UNK N   1      27.997  21.714  -7.727  0.00  0.00     0.026 A 
HETATM    8  C   UNK N   1      29.196  21.727  -7.025  0.00  0.00     0.003 A 
HETATM    9  C   UNK N   1      29.307  22.463  -5.850  0.00  0.00     0.014 A 
HETATM   10  C   UNK N   1      28.227  23.202  -5.345  0.00  0.00     0.002 A 
HETATM   11  C   UNK N   1      28.330  23.945  -4.126  0.00  0.00     0.040 A 
HETATM   12  C   UNK N   1      27.001  23.192  -6.072  0.00  0.00    -0.000 A 
HETATM   13  C   UNK N   1      27.193  24.651  -3.687  0.00  0.00     0.030 A 
HETATM   14  C   UNK N   1      26.001  24.638  -4.406  0.00  0.00     0.003 A 
HETATM   15  C   UNK N   1      25.904  23.914  -5.589  0.00  0.00     0.014 A 
BRANCH  11  16
HETATM   16  N   UNK N   1      29.526  24.006  -3.320  0.00  0.00    -0.389 N 
HETATM   17  C   UNK N   1      30.481  25.067  -3.522  0.00  0.00     0.149 C 
HETATM   18  C   UNK N   1      29.836  23.045  -2.291  0.00  0.00     0.149 C 
ENDBRANCH  11  16
ENDBRANCH   1   6
TORSDOF 2
ENDMDL
