MODEL 1
REMARK VINA RESULT:      -6.4      0.000      0.000
REMARK  10 active torsions:
REMARK  status: ('A' for Active; 'I' for Inactive)
REMARK    1  A    between atoms: C_1  and  S_4 
REMARK    2  A    between atoms: S_4  and  C_5 
REMARK    3  A    between atoms: C_5  and  C_6 
REMARK    4  A    between atoms: C_6  and  C_7 
REMARK    5  A    between atoms: C_7  and  N_8 
REMARK    6  A    between atoms: C_7  and  C_9 
REMARK    7  A    between atoms: C_9  and  O_10 
REMARK    8  A    between atoms: C_9  and  C_11 
REMARK       I    between atoms: C_11  and  N_13 
REMARK    9  A    between atoms: N_13  and  N_14 
REMARK       I    between atoms: N_14  and  C_15 
REMARK   10  A    between atoms: C_15  and  C_17 
ROOT
HETATM    1  C   UNK N   1      34.894  15.340  10.499  0.00  0.00     0.267 C 
HETATM    2  O   UNK N   1      34.223  14.471  11.031  0.00  0.00    -0.269 OA
HETATM    3  N   UNK N   1      34.316  16.533  10.218  0.00  0.00    -0.265 N 
HETATM    4  H   UNK N   1      33.349  16.638  10.365  0.00  0.00     0.190 HD
ENDROOT
BRANCH   1   5
HETATM    5  C   UNK N   1      36.345  15.062  10.165  0.00  0.00     0.233 C 
BRANCH   5   6
HETATM    6  C   UNK N   1      36.726  13.611  10.537  0.00  0.00     0.112 C 
BRANCH   6   7
HETATM    7  C   UNK N   1      37.663  12.961   9.517  0.00  0.00     0.038 C 
BRANCH   7   8
HETATM    8  C   UNK N   1      37.564  13.563   8.126  0.00  0.00     0.076 C 
BRANCH   8   9
HETATM    9  S   UNK N   1      36.380  12.607   7.149  0.00  0.00    -0.165 SA
BRANCH   9  10
HETATM   10  C   UNK N   1      35.432  14.107   6.779  0.00  0.00     0.039 C 
HETATM   11  C   UNK N   1      34.005  13.947   7.259  0.00  0.00     0.021 C 
HETATM   12  C   UNK N   1      35.467  14.395   5.293  0.00  0.00     0.021 C 
ENDBRANCH   9  10
ENDBRANCH   8   9
ENDBRANCH   7   8
ENDBRANCH   6   7
BRANCH   6  13
HETATM   13  N   UNK N   1      37.327  13.552  11.863  0.00  0.00    -0.423 N 
HETATM   14  H   UNK N   1      37.070  14.040  12.721  0.00  0.00     0.150 HD
HETATM   15  H   UNK N   1      38.130  12.927  11.946  0.00  0.00     0.150 HD
ENDBRANCH   6  13
ENDBRANCH   5   6
BRANCH   5  16
HETATM   16  O   UNK N   1      37.153  15.976  10.847  0.00  0.00    -0.384 OA
HETATM   17  H   UNK N   1      38.068  16.224  11.050  0.00  0.00     0.210 HD
ENDBRANCH   5  16
ENDBRANCH   1   5
BRANCH   3  18
HETATM   18  N   UNK N   1      35.034  17.601   9.735  0.00  0.00    -0.263 N 
HETATM   19  C   UNK N   1      34.661  18.290   8.623  0.00  0.00     0.270 C 
HETATM   20  O   UNK N   1      35.255  19.321   8.351  0.00  0.00    -0.266 OA
HETATM   21  H   UNK N   1      35.848  17.880  10.213  0.00  0.00     0.190 HD
BRANCH  19  22
HETATM   22  C   UNK N   1      33.562  17.831   7.723  0.00  0.00     0.035 A 
HETATM   23  C   UNK N   1      32.253  17.731   8.222  0.00  0.00     0.017 A 
HETATM   24  C   UNK N   1      31.205  17.327   7.388  0.00  0.00     0.003 A 
HETATM   25  C   UNK N   1      31.451  17.047   6.041  0.00  0.00     0.024 A 
HETATM   26  C   UNK N   1      32.746  17.160   5.532  0.00  0.00     0.035 A 
HETATM   27  C   UNK N   1      33.793  17.544   6.369  0.00  0.00     0.041 A 
HETATM   28 Cl   UNK N   1      33.057  16.846   3.839  0.00  0.00    -0.084 Cl
ENDBRANCH  19  22
ENDBRANCH   3  18
TORSDOF 10
ENDMDL
MODEL 2
REMARK VINA RESULT:      -6.3      1.546      1.976
REMARK  10 active torsions:
REMARK  status: ('A' for Active; 'I' for Inactive)
REMARK    1  A    between atoms: C_1  and  S_4 
REMARK    2  A    between atoms: S_4  and  C_5 
REMARK    3  A    between atoms: C_5  and  C_6 
REMARK    4  A    between atoms: C_6  and  C_7 
REMARK    5  A    between atoms: C_7  and  N_8 
REMARK    6  A    between atoms: C_7  and  C_9 
REMARK    7  A    between atoms: C_9  and  O_10 
REMARK    8  A    between atoms: C_9  and  C_11 
REMARK       I    between atoms: C_11  and  N_13 
REMARK    9  A    between atoms: N_13  and  N_14 
REMARK       I    between atoms: N_14  and  C_15 
REMARK   10  A    between atoms: C_15  and  C_17 
ROOT
HETATM    1  C   UNK N   1      34.719  15.459  10.708  0.00  0.00     0.267 C 
HETATM    2  O   UNK N   1      34.038  14.762  11.443  0.00  0.00    -0.269 OA
HETATM    3  N   UNK N   1      34.179  16.590  10.193  0.00  0.00    -0.265 N 
HETATM    4  H   UNK N   1      33.225  16.774  10.349  0.00  0.00     0.190 HD
ENDROOT
BRANCH   1   5
HETATM    5  C   UNK N   1      36.139  15.041  10.391  0.00  0.00     0.233 C 
BRANCH   5   6
HETATM    6  C   UNK N   1      36.416  13.607  10.898  0.00  0.00     0.112 C 
BRANCH   6   7
HETATM    7  C   UNK N   1      36.242  12.546   9.808  0.00  0.00     0.038 C 
BRANCH   7   8
HETATM    8  C   UNK N   1      36.446  13.078   8.400  0.00  0.00     0.076 C 
BRANCH   8   9
HETATM    9  S   UNK N   1      35.393  12.151   7.259  0.00  0.00    -0.165 SA
BRANCH   9  10
HETATM   10  C   UNK N   1      34.521  13.668   6.786  0.00  0.00     0.039 C 
HETATM   11  C   UNK N   1      35.474  14.844   6.829  0.00  0.00     0.021 C 
HETATM   12  C   UNK N   1      33.340  13.903   7.704  0.00  0.00     0.021 C 
ENDBRANCH   9  10
ENDBRANCH   8   9
ENDBRANCH   7   8
ENDBRANCH   6   7
BRANCH   6  13
HETATM   13  N   UNK N   1      37.751  13.505  11.474  0.00  0.00    -0.423 N 
HETATM   14  H   UNK N   1      38.188  12.735  11.981  0.00  0.00     0.150 HD
HETATM   15  H   UNK N   1      38.338  14.330  11.351  0.00  0.00     0.150 HD
ENDBRANCH   6  13
ENDBRANCH   5   6
BRANCH   5  16
HETATM   16  O   UNK N   1      37.024  15.951  10.975  0.00  0.00    -0.384 OA
HETATM   17  H   UNK N   1      37.442  16.821  10.877  0.00  0.00     0.210 HD
ENDBRANCH   5  16
ENDBRANCH   1   5
BRANCH   3  18
HETATM   18  N   UNK N   1      34.917  17.489   9.461  0.00  0.00    -0.263 N 
HETATM   19  C   UNK N   1      34.408  18.151   8.388  0.00  0.00     0.270 C 
HETATM   20  O   UNK N   1      35.068  19.049   7.891  0.00  0.00    -0.266 OA
HETATM   21  H   UNK N   1      35.850  17.661   9.724  0.00  0.00     0.190 HD
BRANCH  19  22
HETATM   22  C   UNK N   1      33.078  17.820   7.795  0.00  0.00     0.035 A 
HETATM   23  C   UNK N   1      33.004  17.366   6.468  0.00  0.00     0.017 A 
HETATM   24  C   UNK N   1      31.770  17.027   5.903  0.00  0.00     0.003 A 
HETATM   25  C   UNK N   1      30.603  17.112   6.667  0.00  0.00     0.024 A 
HETATM   26  C   UNK N   1      30.669  17.545   7.992  0.00  0.00     0.035 A 
HETATM   27  C   UNK N   1      31.897  17.901   8.548  0.00  0.00     0.041 A 
HETATM   28 Cl   UNK N   1      29.219  17.619   8.969  0.00  0.00    -0.084 Cl
ENDBRANCH  19  22
ENDBRANCH   3  18
TORSDOF 10
ENDMDL
MODEL 3
REMARK VINA RESULT:      -6.2      2.463      3.408
REMARK  10 active torsions:
REMARK  status: ('A' for Active; 'I' for Inactive)
REMARK    1  A    between atoms: C_1  and  S_4 
REMARK    2  A    between atoms: S_4  and  C_5 
REMARK    3  A    between atoms: C_5  and  C_6 
REMARK    4  A    between atoms: C_6  and  C_7 
REMARK    5  A    between atoms: C_7  and  N_8 
REMARK    6  A    between atoms: C_7  and  C_9 
REMARK    7  A    between atoms: C_9  and  O_10 
REMARK    8  A    between atoms: C_9  and  C_11 
REMARK       I    between atoms: C_11  and  N_13 
REMARK    9  A    between atoms: N_13  and  N_14 
REMARK       I    between atoms: N_14  and  C_15 
REMARK   10  A    between atoms: C_15  and  C_17 
ROOT
HETATM    1  C   UNK N   1      34.728  15.398  10.980  0.00  0.00     0.267 C 
HETATM    2  O   UNK N   1      33.972  14.562  11.448  0.00  0.00    -0.269 OA
HETATM    3  N   UNK N   1      34.215  16.386  10.207  0.00  0.00    -0.265 N 
HETATM    4  H   UNK N   1      33.262  16.353   9.967  0.00  0.00     0.190 HD
ENDROOT
BRANCH   1   5
HETATM    5  C   UNK N   1      36.212  15.307  11.270  0.00  0.00     0.233 C 
BRANCH   5   6
HETATM    6  C   UNK N   1      36.818  14.033  10.638  0.00  0.00     0.112 C 
BRANCH   6   7
HETATM    7  C   UNK N   1      37.249  12.998  11.680  0.00  0.00     0.038 C 
BRANCH   7   8
HETATM    8  C   UNK N   1      36.264  11.854  11.849  0.00  0.00     0.076 C 
BRANCH   8   9
HETATM    9  S   UNK N   1      36.075  11.490  13.610  0.00  0.00    -0.165 SA
BRANCH   9  10
HETATM   10  C   UNK N   1      34.294  11.231  13.394  0.00  0.00     0.039 C 
HETATM   11  C   UNK N   1      33.678  10.773  14.699  0.00  0.00     0.021 C 
HETATM   12  C   UNK N   1      34.041  10.217  12.299  0.00  0.00     0.021 C 
ENDBRANCH   9  10
ENDBRANCH   8   9
ENDBRANCH   7   8
ENDBRANCH   6   7
BRANCH   6  13
HETATM   13  N   UNK N   1      35.888  13.423   9.696  0.00  0.00    -0.423 N 
HETATM   14  H   UNK N   1      36.019  13.175   8.716  0.00  0.00     0.150 HD
HETATM   15  H   UNK N   1      34.965  13.212  10.076  0.00  0.00     0.150 HD
ENDBRANCH   6  13
ENDBRANCH   5   6
BRANCH   5  16
HETATM   16  O   UNK N   1      36.407  15.312  12.654  0.00  0.00    -0.384 OA
HETATM   17  H   UNK N   1      36.196  14.856  13.484  0.00  0.00     0.210 HD
ENDBRANCH   5  16
ENDBRANCH   1   5
BRANCH   3  18
HETATM   18  N   UNK N   1      34.980  17.431   9.746  0.00  0.00    -0.263 N 
HETATM   19  C   UNK N   1      34.636  18.162   8.653  0.00  0.00     0.270 C 
HETATM   20  O   UNK N   1      35.275  19.171   8.403  0.00  0.00    -0.266 OA
HETATM   21  H   UNK N   1      35.808  17.659  10.227  0.00  0.00     0.190 HD
BRANCH  19  22
HETATM   22  C   UNK N   1      33.513  17.777   7.748  0.00  0.00     0.035 A 
HETATM   23  C   UNK N   1      32.205  17.707   8.255  0.00  0.00     0.017 A 
HETATM   24  C   UNK N   1      31.136  17.373   7.417  0.00  0.00     0.003 A 
HETATM   25  C   UNK N   1      31.361  17.132   6.058  0.00  0.00     0.024 A 
HETATM   26  C   UNK N   1      32.655  17.216   5.541  0.00  0.00     0.035 A 
HETATM   27  C   UNK N   1      33.722  17.531   6.382  0.00  0.00     0.041 A 
HETATM   28 Cl   UNK N   1      32.941  16.954   3.835  0.00  0.00    -0.084 Cl
ENDBRANCH  19  22
ENDBRANCH   3  18
TORSDOF 10
ENDMDL
MODEL 4
REMARK VINA RESULT:      -6.1      2.331      3.650
REMARK  10 active torsions:
REMARK  status: ('A' for Active; 'I' for Inactive)
REMARK    1  A    between atoms: C_1  and  S_4 
REMARK    2  A    between atoms: S_4  and  C_5 
REMARK    3  A    between atoms: C_5  and  C_6 
REMARK    4  A    between atoms: C_6  and  C_7 
REMARK    5  A    between atoms: C_7  and  N_8 
REMARK    6  A    between atoms: C_7  and  C_9 
REMARK    7  A    between atoms: C_9  and  O_10 
REMARK    8  A    between atoms: C_9  and  C_11 
REMARK       I    between atoms: C_11  and  N_13 
REMARK    9  A    between atoms: N_13  and  N_14 
REMARK       I    between atoms: N_14  and  C_15 
REMARK   10  A    between atoms: C_15  and  C_17 
ROOT
HETATM    1  C   UNK N   1      34.782  15.370  10.797  0.00  0.00     0.267 C 
HETATM    2  O   UNK N   1      34.052  14.610  11.412  0.00  0.00    -0.269 OA
HETATM    3  N   UNK N   1      34.259  16.510  10.286  0.00  0.00    -0.265 N 
HETATM    4  H   UNK N   1      33.287  16.654  10.343  0.00  0.00     0.190 HD
ENDROOT
BRANCH   1   5
HETATM    5  C   UNK N   1      36.244  15.017  10.619  0.00  0.00     0.233 C 
BRANCH   5   6
HETATM    6  C   UNK N   1      36.610  13.761  11.441  0.00  0.00     0.112 C 
BRANCH   6   7
HETATM    7  C   UNK N   1      37.847  13.037  10.903  0.00  0.00     0.038 C 
BRANCH   7   8
HETATM    8  C   UNK N   1      37.547  11.667  10.318  0.00  0.00     0.076 C 
BRANCH   8   9
HETATM    9  S   UNK N   1      36.351  10.820  11.377  0.00  0.00    -0.165 SA
BRANCH   9  10
HETATM   10  C   UNK N   1      37.655  10.404  12.565  0.00  0.00     0.039 C 
HETATM   11  C   UNK N   1      38.133   8.987  12.331  0.00  0.00     0.021 C 
HETATM   12  C   UNK N   1      37.146  10.570  13.982  0.00  0.00     0.021 C 
ENDBRANCH   9  10
ENDBRANCH   8   9
ENDBRANCH   7   8
ENDBRANCH   6   7
BRANCH   6  13
HETATM   13  N   UNK N   1      36.809  14.094  12.845  0.00  0.00    -0.423 N 
HETATM   14  H   UNK N   1      36.247  13.852  13.662  0.00  0.00     0.150 HD
HETATM   15  H   UNK N   1      37.637  14.656  13.043  0.00  0.00     0.150 HD
ENDBRANCH   6  13
ENDBRANCH   5   6
BRANCH   5  16
HETATM   16  O   UNK N   1      37.026  16.108  11.008  0.00  0.00    -0.384 OA
HETATM   17  H   UNK N   1      37.698  16.744  10.715  0.00  0.00     0.210 HD
ENDBRANCH   5  16
ENDBRANCH   1   5
BRANCH   3  18
HETATM   18  N   UNK N   1      35.037  17.473   9.690  0.00  0.00    -0.263 N 
HETATM   19  C   UNK N   1      34.629  18.171   8.597  0.00  0.00     0.270 C 
HETATM   20  O   UNK N   1      35.303  19.117   8.224  0.00  0.00    -0.266 OA
HETATM   21  H   UNK N   1      35.924  17.667  10.070  0.00  0.00     0.190 HD
BRANCH  19  22
HETATM   22  C   UNK N   1      33.394  17.820   7.834  0.00  0.00     0.035 A 
HETATM   23  C   UNK N   1      33.500  17.387   6.502  0.00  0.00     0.017 A 
HETATM   24  C   UNK N   1      32.357  17.031   5.780  0.00  0.00     0.003 A 
HETATM   25  C   UNK N   1      31.100  17.077   6.390  0.00  0.00     0.024 A 
HETATM   26  C   UNK N   1      30.986  17.490   7.718  0.00  0.00     0.035 A 
HETATM   27  C   UNK N   1      32.125  17.863   8.432  0.00  0.00     0.041 A 
HETATM   28 Cl   UNK N   1      29.422  17.516   8.502  0.00  0.00    -0.084 Cl
ENDBRANCH  19  22
ENDBRANCH   3  18
TORSDOF 10
ENDMDL
MODEL 5
REMARK VINA RESULT:      -6.1      1.615      2.045
REMARK  10 active torsions:
REMARK  status: ('A' for Active; 'I' for Inactive)
REMARK    1  A    between atoms: C_1  and  S_4 
REMARK    2  A    between atoms: S_4  and  C_5 
REMARK    3  A    between atoms: C_5  and  C_6 
REMARK    4  A    between atoms: C_6  and  C_7 
REMARK    5  A    between atoms: C_7  and  N_8 
REMARK    6  A    between atoms: C_7  and  C_9 
REMARK    7  A    between atoms: C_9  and  O_10 
REMARK    8  A    between atoms: C_9  and  C_11 
REMARK       I    between atoms: C_11  and  N_13 
REMARK    9  A    between atoms: N_13  and  N_14 
REMARK       I    between atoms: N_14  and  C_15 
REMARK   10  A    between atoms: C_15  and  C_17 
ROOT
HETATM    1  C   UNK N   1      34.812  15.409  10.774  0.00  0.00     0.267 C 
HETATM    2  O   UNK N   1      34.149  14.680  11.494  0.00  0.00    -0.269 OA
HETATM    3  N   UNK N   1      34.230  16.512  10.245  0.00  0.00    -0.265 N 
HETATM    4  H   UNK N   1      33.265  16.650  10.379  0.00  0.00     0.190 HD
ENDROOT
BRANCH   1   5
HETATM    5  C   UNK N   1      36.258  15.060  10.489  0.00  0.00     0.233 C 
BRANCH   5   6
HETATM    6  C   UNK N   1      36.649  13.732  11.177  0.00  0.00     0.112 C 
BRANCH   6   7
HETATM    7  C   UNK N   1      37.847  13.048  10.514  0.00  0.00     0.038 C 
BRANCH   7   8
HETATM    8  C   UNK N   1      37.523  12.412   9.173  0.00  0.00     0.076 C 
BRANCH   8   9
HETATM    9  S   UNK N   1      38.306  13.373   7.857  0.00  0.00    -0.165 SA
BRANCH   9  10
HETATM   10  C   UNK N   1      36.833  13.200   6.815  0.00  0.00     0.039 C 
HETATM   11  C   UNK N   1      37.244  12.966   5.377  0.00  0.00     0.021 C 
HETATM   12  C   UNK N   1      35.963  14.434   6.929  0.00  0.00     0.021 C 
ENDBRANCH   9  10
ENDBRANCH   8   9
ENDBRANCH   7   8
ENDBRANCH   6   7
BRANCH   6  13
HETATM   13  N   UNK N   1      36.923  13.938  12.593  0.00  0.00    -0.423 N 
HETATM   14  H   UNK N   1      37.764  13.737  13.133  0.00  0.00     0.150 HD
HETATM   15  H   UNK N   1      36.155  14.346  13.126  0.00  0.00     0.150 HD
ENDBRANCH   6  13
ENDBRANCH   5   6
BRANCH   5  16
HETATM   16  O   UNK N   1      37.075  16.105  10.930  0.00  0.00    -0.384 OA
HETATM   17  H   UNK N   1      37.215  17.064  10.902  0.00  0.00     0.210 HD
ENDBRANCH   5  16
ENDBRANCH   1   5
BRANCH   3  18
HETATM   18  N   UNK N   1      34.940  17.445   9.527  0.00  0.00    -0.263 N 
HETATM   19  C   UNK N   1      34.427  18.072   8.435  0.00  0.00     0.270 C 
HETATM   20  O   UNK N   1      35.053  19.001   7.950  0.00  0.00    -0.266 OA
HETATM   21  H   UNK N   1      35.854  17.670   9.816  0.00  0.00     0.190 HD
BRANCH  19  22
HETATM   22  C   UNK N   1      33.136  17.665   7.805  0.00  0.00     0.035 A 
HETATM   23  C   UNK N   1      33.148  16.956   6.593  0.00  0.00     0.017 A 
HETATM   24  C   UNK N   1      31.950  16.544   6.001  0.00  0.00     0.003 A 
HETATM   25  C   UNK N   1      30.730  16.812   6.628  0.00  0.00     0.024 A 
HETATM   26  C   UNK N   1      30.709  17.502   7.842  0.00  0.00     0.035 A 
HETATM   27  C   UNK N   1      31.904  17.928   8.422  0.00  0.00     0.041 A 
HETATM   28 Cl   UNK N   1      29.190  17.810   8.654  0.00  0.00    -0.084 Cl
ENDBRANCH  19  22
ENDBRANCH   3  18
TORSDOF 10
ENDMDL
MODEL 6
REMARK VINA RESULT:      -5.9      5.104      8.005
REMARK  10 active torsions:
REMARK  status: ('A' for Active; 'I' for Inactive)
REMARK    1  A    between atoms: C_1  and  S_4 
REMARK    2  A    between atoms: S_4  and  C_5 
REMARK    3  A    between atoms: C_5  and  C_6 
REMARK    4  A    between atoms: C_6  and  C_7 
REMARK    5  A    between atoms: C_7  and  N_8 
REMARK    6  A    between atoms: C_7  and  C_9 
REMARK    7  A    between atoms: C_9  and  O_10 
REMARK    8  A    between atoms: C_9  and  C_11 
REMARK       I    between atoms: C_11  and  N_13 
REMARK    9  A    between atoms: N_13  and  N_14 
REMARK       I    between atoms: N_14  and  C_15 
REMARK   10  A    between atoms: C_15  and  C_17 
ROOT
HETATM    1  C   UNK N   1      35.467  14.401  12.483  0.00  0.00     0.267 C 
HETATM    2  O   UNK N   1      36.111  15.364  12.865  0.00  0.00    -0.269 OA
HETATM    3  N   UNK N   1      35.408  13.299  13.269  0.00  0.00    -0.265 N 
HETATM    4  H   UNK N   1      35.960  13.267  14.083  0.00  0.00     0.190 HD
ENDROOT
BRANCH   1   5
HETATM    5  C   UNK N   1      34.757  14.462  11.146  0.00  0.00     0.233 C 
BRANCH   5   6
HETATM    6  C   UNK N   1      35.393  15.537  10.235  0.00  0.00     0.112 C 
BRANCH   6   7
HETATM    7  C   UNK N   1      35.241  15.220   8.746  0.00  0.00     0.038 C 
BRANCH   7   8
HETATM    8  C   UNK N   1      34.610  16.345   7.943  0.00  0.00     0.076 C 
BRANCH   8   9
HETATM    9  S   UNK N   1      34.526  15.855   6.204  0.00  0.00    -0.165 SA
BRANCH   9  10
HETATM   10  C   UNK N   1      32.892  16.623   6.038  0.00  0.00     0.039 C 
HETATM   11  C   UNK N   1      32.844  17.464   4.780  0.00  0.00     0.021 C 
HETATM   12  C   UNK N   1      32.583  17.466   7.257  0.00  0.00     0.021 C 
ENDBRANCH   9  10
ENDBRANCH   8   9
ENDBRANCH   7   8
ENDBRANCH   6   7
BRANCH   6  13
HETATM   13  N   UNK N   1      34.839  16.855  10.516  0.00  0.00    -0.423 N 
HETATM   14  H   UNK N   1      33.923  17.116  10.882  0.00  0.00     0.150 HD
HETATM   15  H   UNK N   1      35.462  17.637  10.314  0.00  0.00     0.150 HD
ENDBRANCH   6  13
ENDBRANCH   5   6
BRANCH   5  16
HETATM   16  O   UNK N   1      33.403  14.735  11.361  0.00  0.00    -0.384 OA
HETATM   17  H   UNK N   1      32.690  15.372  11.201  0.00  0.00     0.210 HD
ENDBRANCH   5  16
ENDBRANCH   1   5
BRANCH   3  18
HETATM   18  N   UNK N   1      34.606  12.224  12.968  0.00  0.00    -0.263 N 
HETATM   19  C   UNK N   1      34.098  11.401  13.924  0.00  0.00     0.270 C 
HETATM   20  O   UNK N   1      33.267  10.571  13.595  0.00  0.00    -0.266 OA
HETATM   21  H   UNK N   1      34.389  12.044  12.025  0.00  0.00     0.190 HD
BRANCH  19  22
HETATM   22  C   UNK N   1      34.521  11.471  15.354  0.00  0.00     0.035 A 
HETATM   23  C   UNK N   1      34.843  10.290  16.042  0.00  0.00     0.017 A 
HETATM   24  C   UNK N   1      35.265  10.338  17.374  0.00  0.00     0.003 A 
HETATM   25  C   UNK N   1      35.397  11.568  18.023  0.00  0.00     0.024 A 
HETATM   26  C   UNK N   1      35.096  12.750  17.343  0.00  0.00     0.035 A 
HETATM   27  C   UNK N   1      34.657  12.699  16.020  0.00  0.00     0.041 A 
HETATM   28 Cl   UNK N   1      35.293  14.298  18.135  0.00  0.00    -0.084 Cl
ENDBRANCH  19  22
ENDBRANCH   3  18
TORSDOF 10
ENDMDL
MODEL 7
REMARK VINA RESULT:      -5.9      3.431      4.925
REMARK  10 active torsions:
REMARK  status: ('A' for Active; 'I' for Inactive)
REMARK    1  A    between atoms: C_1  and  S_4 
REMARK    2  A    between atoms: S_4  and  C_5 
REMARK    3  A    between atoms: C_5  and  C_6 
REMARK    4  A    between atoms: C_6  and  C_7 
REMARK    5  A    between atoms: C_7  and  N_8 
REMARK    6  A    between atoms: C_7  and  C_9 
REMARK    7  A    between atoms: C_9  and  O_10 
REMARK    8  A    between atoms: C_9  and  C_11 
REMARK       I    between atoms: C_11  and  N_13 
REMARK    9  A    between atoms: N_13  and  N_14 
REMARK       I    between atoms: N_14  and  C_15 
REMARK   10  A    between atoms: C_15  and  C_17 
ROOT
HETATM    1  C   UNK N   1      33.862  14.399   9.017  0.00  0.00     0.267 C 
HETATM    2  O   UNK N   1      33.240  13.362   8.851  0.00  0.00    -0.269 OA
HETATM    3  N   UNK N   1      34.234  15.121   7.932  0.00  0.00    -0.265 N 
HETATM    4  H   UNK N   1      34.074  14.746   7.036  0.00  0.00     0.190 HD
ENDROOT
BRANCH   1   5
HETATM    5  C   UNK N   1      34.204  14.846  10.423  0.00  0.00     0.233 C 
BRANCH   5   6
HETATM    6  C   UNK N   1      35.134  13.823  11.114  0.00  0.00     0.112 C 
BRANCH   6   7
HETATM    7  C   UNK N   1      35.635  14.301  12.479  0.00  0.00     0.038 C 
BRANCH   7   8
HETATM    8  C   UNK N   1      35.353  13.326  13.609  0.00  0.00     0.076 C 
BRANCH   8   9
HETATM    9  S   UNK N   1      36.463  13.684  14.991  0.00  0.00    -0.165 SA
BRANCH   9  10
HETATM   10  C   UNK N   1      35.424  12.713  16.115  0.00  0.00     0.039 C 
HETATM   11  C   UNK N   1      35.181  13.489  17.392  0.00  0.00     0.021 C 
HETATM   12  C   UNK N   1      36.078  11.381  16.414  0.00  0.00     0.021 C 
ENDBRANCH   9  10
ENDBRANCH   8   9
ENDBRANCH   7   8
ENDBRANCH   6   7
BRANCH   6  13
HETATM   13  N   UNK N   1      34.475  12.531  11.258  0.00  0.00    -0.423 N 
HETATM   14  H   UNK N   1      33.487  12.310  11.379  0.00  0.00     0.150 HD
HETATM   15  H   UNK N   1      35.098  11.724  11.234  0.00  0.00     0.150 HD
ENDBRANCH   6  13
ENDBRANCH   5   6
BRANCH   5  16
HETATM   16  O   UNK N   1      33.021  15.009  11.150  0.00  0.00    -0.384 OA
HETATM   17  H   UNK N   1      32.122  15.372  11.125  0.00  0.00     0.210 HD
ENDBRANCH   5  16
ENDBRANCH   1   5
BRANCH   3  18
HETATM   18  N   UNK N   1      34.826  16.356   8.039  0.00  0.00    -0.263 N 
HETATM   19  C   UNK N   1      34.291  17.474   7.479  0.00  0.00     0.270 C 
HETATM   20  O   UNK N   1      34.785  18.556   7.753  0.00  0.00    -0.266 OA
HETATM   21  H   UNK N   1      35.668  16.436   8.541  0.00  0.00     0.190 HD
BRANCH  19  22
HETATM   22  C   UNK N   1      33.130  17.428   6.541  0.00  0.00     0.035 A 
HETATM   23  C   UNK N   1      33.351  17.523   5.157  0.00  0.00     0.017 A 
HETATM   24  C   UNK N   1      32.279  17.457   4.262  0.00  0.00     0.003 A 
HETATM   25  C   UNK N   1      30.979  17.267   4.739  0.00  0.00     0.024 A 
HETATM   26  C   UNK N   1      30.751  17.154   6.112  0.00  0.00     0.035 A 
HETATM   27  C   UNK N   1      31.819  17.239   7.005  0.00  0.00     0.041 A 
HETATM   28 Cl   UNK N   1      29.132  16.879   6.717  0.00  0.00    -0.084 Cl
ENDBRANCH  19  22
ENDBRANCH   3  18
TORSDOF 10
ENDMDL
MODEL 8
REMARK VINA RESULT:      -5.8      1.576      2.244
REMARK  10 active torsions:
REMARK  status: ('A' for Active; 'I' for Inactive)
REMARK    1  A    between atoms: C_1  and  S_4 
REMARK    2  A    between atoms: S_4  and  C_5 
REMARK    3  A    between atoms: C_5  and  C_6 
REMARK    4  A    between atoms: C_6  and  C_7 
REMARK    5  A    between atoms: C_7  and  N_8 
REMARK    6  A    between atoms: C_7  and  C_9 
REMARK    7  A    between atoms: C_9  and  O_10 
REMARK    8  A    between atoms: C_9  and  C_11 
REMARK       I    between atoms: C_11  and  N_13 
REMARK    9  A    between atoms: N_13  and  N_14 
REMARK       I    between atoms: N_14  and  C_15 
REMARK   10  A    between atoms: C_15  and  C_17 
ROOT
HETATM    1  C   UNK N   1      34.912  15.249  10.377  0.00  0.00     0.267 C 
HETATM    2  O   UNK N   1      34.267  14.340  10.873  0.00  0.00    -0.269 OA
HETATM    3  N   UNK N   1      34.286  16.418  10.096  0.00  0.00    -0.265 N 
HETATM    4  H   UNK N   1      33.311  16.474  10.214  0.00  0.00     0.190 HD
ENDROOT
BRANCH   1   5
HETATM    5  C   UNK N   1      36.384  15.047  10.085  0.00  0.00     0.233 C 
BRANCH   5   6
HETATM    6  C   UNK N   1      36.808  13.591  10.384  0.00  0.00     0.112 C 
BRANCH   6   7
HETATM    7  C   UNK N   1      37.721  13.004   9.305  0.00  0.00     0.038 C 
BRANCH   7   8
HETATM    8  C   UNK N   1      39.135  12.727   9.785  0.00  0.00     0.076 C 
BRANCH   8   9
HETATM    9  S   UNK N   1      39.847  11.393   8.792  0.00  0.00    -0.165 SA
BRANCH   9  10
HETATM   10  C   UNK N   1      39.776  12.425   7.304  0.00  0.00     0.039 C 
HETATM   11  C   UNK N   1      39.245  11.616   6.140  0.00  0.00     0.021 C 
HETATM   12  C   UNK N   1      41.149  12.981   6.986  0.00  0.00     0.021 C 
ENDBRANCH   9  10
ENDBRANCH   8   9
ENDBRANCH   7   8
ENDBRANCH   6   7
BRANCH   6  13
HETATM   13  N   UNK N   1      37.459  13.492  11.684  0.00  0.00    -0.423 N 
HETATM   14  H   UNK N   1      37.191  12.958  12.511  0.00  0.00     0.150 HD
HETATM   15  H   UNK N   1      38.313  14.041  11.782  0.00  0.00     0.150 HD
ENDBRANCH   6  13
ENDBRANCH   5   6
BRANCH   5  16
HETATM   16  O   UNK N   1      37.129  15.947  10.853  0.00  0.00    -0.384 OA
HETATM   17  H   UNK N   1      37.173  16.859  11.181  0.00  0.00     0.210 HD
ENDBRANCH   5  16
ENDBRANCH   1   5
BRANCH   3  18
HETATM   18  N   UNK N   1      34.966  17.528   9.654  0.00  0.00    -0.263 N 
HETATM   19  C   UNK N   1      34.561  18.252   8.577  0.00  0.00     0.270 C 
HETATM   20  O   UNK N   1      35.120  19.311   8.344  0.00  0.00    -0.266 OA
HETATM   21  H   UNK N   1      35.776  17.810  10.136  0.00  0.00     0.190 HD
BRANCH  19  22
HETATM   22  C   UNK N   1      33.467  17.799   7.668  0.00  0.00     0.035 A 
HETATM   23  C   UNK N   1      32.154  17.700   8.157  0.00  0.00     0.017 A 
HETATM   24  C   UNK N   1      31.111  17.302   7.314  0.00  0.00     0.003 A 
HETATM   25  C   UNK N   1      31.366  17.025   5.968  0.00  0.00     0.024 A 
HETATM   26  C   UNK N   1      32.665  17.136   5.468  0.00  0.00     0.035 A 
HETATM   27  C   UNK N   1      33.707  17.515   6.315  0.00  0.00     0.041 A 
HETATM   28 Cl   UNK N   1      32.988  16.826   3.777  0.00  0.00    -0.084 Cl
ENDBRANCH  19  22
ENDBRANCH   3  18
TORSDOF 10
ENDMDL
MODEL 9
REMARK VINA RESULT:      -5.6      4.956      6.843
REMARK  10 active torsions:
REMARK  status: ('A' for Active; 'I' for Inactive)
REMARK    1  A    between atoms: C_1  and  S_4 
REMARK    2  A    between atoms: S_4  and  C_5 
REMARK    3  A    between atoms: C_5  and  C_6 
REMARK    4  A    between atoms: C_6  and  C_7 
REMARK    5  A    between atoms: C_7  and  N_8 
REMARK    6  A    between atoms: C_7  and  C_9 
REMARK    7  A    between atoms: C_9  and  O_10 
REMARK    8  A    between atoms: C_9  and  C_11 
REMARK       I    between atoms: C_11  and  N_13 
REMARK    9  A    between atoms: N_13  and  N_14 
REMARK       I    between atoms: N_14  and  C_15 
REMARK   10  A    between atoms: C_15  and  C_17 
ROOT
HETATM    1  C   UNK N   1      28.163  18.071   8.959  0.00  0.00     0.267 C 
HETATM    2  O   UNK N   1      27.747  17.087   9.548  0.00  0.00    -0.269 OA
HETATM    3  N   UNK N   1      27.310  18.776   8.177  0.00  0.00    -0.265 N 
HETATM    4  H   UNK N   1      26.403  18.426   8.030  0.00  0.00     0.190 HD
ENDROOT
BRANCH   1   5
HETATM    5  C   UNK N   1      29.615  18.474   9.114  0.00  0.00     0.233 C 
BRANCH   5   6
HETATM    6  C   UNK N   1      30.553  17.341   8.639  0.00  0.00     0.112 C 
BRANCH   6   7
HETATM    7  C   UNK N   1      30.387  17.015   7.152  0.00  0.00     0.038 C 
BRANCH   7   8
HETATM    8  C   UNK N   1      31.677  17.116   6.357  0.00  0.00     0.076 C 
BRANCH   8   9
HETATM    9  S   UNK N   1      32.072  15.493   5.662  0.00  0.00    -0.165 SA
BRANCH   9  10
HETATM   10  C   UNK N   1      32.174  16.200   3.996  0.00  0.00     0.039 C 
HETATM   11  C   UNK N   1      33.341  15.591   3.248  0.00  0.00     0.021 C 
HETATM   12  C   UNK N   1      32.317  17.706   4.073  0.00  0.00     0.021 C 
ENDBRANCH   9  10
ENDBRANCH   8   9
ENDBRANCH   7   8
ENDBRANCH   6   7
BRANCH   6  13
HETATM   13  N   UNK N   1      31.946  17.663   8.917  0.00  0.00    -0.423 N 
HETATM   14  H   UNK N   1      32.722  17.826   8.275  0.00  0.00     0.150 HD
HETATM   15  H   UNK N   1      32.182  17.738   9.907  0.00  0.00     0.150 HD
ENDBRANCH   6  13
ENDBRANCH   5   6
BRANCH   5  16
HETATM   16  O   UNK N   1      29.860  18.789  10.453  0.00  0.00    -0.384 OA
HETATM   17  H   UNK N   1      29.489  19.200  11.250  0.00  0.00     0.210 HD
ENDBRANCH   5  16
ENDBRANCH   1   5
BRANCH   3  18
HETATM   18  N   UNK N   1      27.669  19.962   7.582  0.00  0.00    -0.263 N 
HETATM   19  C   UNK N   1      27.484  20.200   6.257  0.00  0.00     0.270 C 
HETATM   20  O   UNK N   1      27.676  21.330   5.835  0.00  0.00    -0.266 OA
HETATM   21  H   UNK N   1      28.073  20.667   8.138  0.00  0.00     0.190 HD
BRANCH  19  22
HETATM   22  C   UNK N   1      27.063  19.135   5.299  0.00  0.00     0.035 A 
HETATM   23  C   UNK N   1      25.703  18.989   4.977  0.00  0.00     0.017 A 
HETATM   24  C   UNK N   1      25.292  18.014   4.063  0.00  0.00     0.003 A 
HETATM   25  C   UNK N   1      26.237  17.194   3.441  0.00  0.00     0.024 A 
HETATM   26  C   UNK N   1      27.593  17.343   3.741  0.00  0.00     0.035 A 
HETATM   27  C   UNK N   1      27.999  18.303   4.667  0.00  0.00     0.041 A 
HETATM   28 Cl   UNK N   1      28.787  16.347   2.940  0.00  0.00    -0.084 Cl
ENDBRANCH  19  22
ENDBRANCH   3  18
TORSDOF 10
ENDMDL
