REMARK  10 active torsions:
REMARK  status: ('A' for Active; 'I' for Inactive)
REMARK    1  A    between atoms: C_1  and  S_4 
REMARK    2  A    between atoms: S_4  and  C_5 
REMARK    3  A    between atoms: C_5  and  C_6 
REMARK    4  A    between atoms: C_6  and  C_7 
REMARK    5  A    between atoms: C_7  and  N_8 
REMARK    6  A    between atoms: C_7  and  C_9 
REMARK    7  A    between atoms: C_9  and  O_10 
REMARK    8  A    between atoms: C_9  and  C_11 
REMARK       I    between atoms: C_11  and  N_13 
REMARK    9  A    between atoms: N_13  and  N_14 
REMARK       I    between atoms: N_14  and  C_15 
REMARK   10  A    between atoms: C_15  and  C_17 
ROOT
HETATM    1  C   UNK N   1       0.034  -0.165  -1.160  0.00  0.00     0.267 C 
HETATM    2  O   UNK N   1      -0.112  -1.195  -1.798  0.00  0.00    -0.269 OA
HETATM    3  N   UNK N   1       1.290   0.267  -0.892  0.00  0.00    -0.265 N 
HETATM    4  H   UNK N   1       2.051  -0.306  -1.138  0.00  0.00     0.190 HD
ENDROOT
BRANCH   1   5
HETATM    5  C   UNK N   1      -1.186   0.596  -0.684  0.00  0.00     0.233 C 
BRANCH   5   6
HETATM    6  C   UNK N   1      -2.078  -0.298   0.207  0.00  0.00     0.112 C 
BRANCH   6   7
HETATM    7  C   UNK N   1      -3.177   0.487   0.927  0.00  0.00     0.038 C 
BRANCH   7   8
HETATM    8  C   UNK N   1      -4.105   1.240  -0.011  0.00  0.00     0.076 C 
BRANCH   8   9
HETATM    9  S   UNK N   1      -5.746   1.348   0.741  0.00  0.00    -0.165 SA
BRANCH   9  10
HETATM   10  C   UNK N   1      -6.341  -0.016  -0.294  0.00  0.00     0.039 C 
HETATM   11  C   UNK N   1      -7.724   0.302  -0.821  0.00  0.00     0.021 C 
HETATM   12  C   UNK N   1      -6.354  -1.307   0.497  0.00  0.00     0.021 C 
ENDBRANCH   9  10
ENDBRANCH   8   9
ENDBRANCH   7   8
ENDBRANCH   6   7
BRANCH   6  13
HETATM   13  N   UNK N   1      -2.674  -1.379  -0.567  0.00  0.00    -0.423 N 
HETATM   14  H   UNK N   1      -3.538  -1.397  -1.109  0.00  0.00     0.150 HD
HETATM   15  H   UNK N   1      -2.146  -2.252  -0.567  0.00  0.00     0.150 HD
ENDBRANCH   6  13
ENDBRANCH   5   6
BRANCH   5  16
HETATM   16  O   UNK N   1      -1.899   1.055  -1.795  0.00  0.00    -0.384 OA
HETATM   17  H   UNK N   1      -1.869   1.643  -2.566  0.00  0.00     0.210 HD
ENDBRANCH   5  16
ENDBRANCH   1   5
BRANCH   3  18
HETATM   18  N   UNK N   1       1.538   1.477  -0.289  0.00  0.00    -0.263 N 
HETATM   19  C   UNK N   1       2.773   1.834   0.153  0.00  0.00     0.270 C 
HETATM   20  O   UNK N   1       2.948   2.982   0.528  0.00  0.00    -0.266 OA
HETATM   21  H   UNK N   1       0.793   2.110  -0.174  0.00  0.00     0.190 HD
BRANCH  19  22
HETATM   22  C   UNK N   1       3.918   0.877   0.202  0.00  0.00     0.035 A 
HETATM   23  C   UNK N   1       5.212   1.355   0.466  0.00  0.00     0.017 A 
HETATM   24  C   UNK N   1       6.293   0.471   0.541  0.00  0.00     0.003 A 
HETATM   25  C   UNK N   1       6.087  -0.902   0.380  0.00  0.00     0.024 A 
HETATM   26  C   UNK N   1       4.802  -1.389   0.134  0.00  0.00     0.035 A 
HETATM   27  C   UNK N   1       3.728  -0.504   0.041  0.00  0.00     0.041 A 
HETATM   28 Cl   UNK N   1       4.528  -3.109  -0.032  0.00  0.00    -0.084 Cl
ENDBRANCH  19  22
ENDBRANCH   3  18
TORSDOF 10
