MODEL 1
REMARK VINA RESULT:      -5.8      0.000      0.000
REMARK  13 active torsions:
REMARK  status: ('A' for Active; 'I' for Inactive)
REMARK    1  A    between atoms: C_1  and  O_2 
REMARK    2  A    between atoms: O_2  and  C_13 
REMARK    3  A    between atoms: C_3  and  O_4 
REMARK    4  A    between atoms: C_5  and  N_12 
REMARK    5  A    between atoms: C_6  and  O_7 
REMARK    6  A    between atoms: C_8  and  C_10 
REMARK    7  A    between atoms: C_10  and  O_11 
REMARK    8  A    between atoms: C_13  and  C_14 
REMARK    9  A    between atoms: C_14  and  C_15 
REMARK   10  A    between atoms: C_15  and  C_16 
REMARK   11  A    between atoms: C_16  and  C_17 
REMARK   12  A    between atoms: C_17  and  C_18 
REMARK   13  A    between atoms: C_18  and  C_19 
ROOT
HETATM    1  C   UNK N   1      22.067  19.484   3.539  0.00  0.00     0.291 C 
HETATM    2  C   UNK N   1      21.240  20.593   2.789  0.00  0.00     0.198 C 
HETATM    3  C   UNK N   1      20.992  20.092   1.367  0.00  0.00     0.139 C 
HETATM    4  C   UNK N   1      20.125  18.813   1.433  0.00  0.00     0.174 C 
HETATM    5  C   UNK N   1      20.391  18.033   2.750  0.00  0.00     0.179 C 
HETATM    6  O   UNK N   1      21.746  18.150   3.131  0.00  0.00    -0.349 OA
ENDROOT
BRANCH   1   7
HETATM    7  O   UNK N   1      23.447  19.662   3.266  0.00  0.00    -0.359 OA
BRANCH   7   8
HETATM    8  C   UNK N   1      24.197  18.980   4.240  0.00  0.00     0.171 C 
BRANCH   8   9
HETATM    9  C   UNK N   1      25.158  18.008   3.585  0.00  0.00     0.026 C 
BRANCH   9  10
HETATM   10  C   UNK N   1      26.573  18.269   4.060  0.00  0.00     0.002 C 
BRANCH  10  11
HETATM   11  C   UNK N   1      26.959  19.699   3.737  0.00  0.00     0.000 C 
BRANCH  11  12
HETATM   12  C   UNK N   1      27.919  20.230   4.786  0.00  0.00     0.000 C 
BRANCH  12  13
HETATM   13  C   UNK N   1      27.225  21.240   5.680  0.00  0.00    -0.000 C 
BRANCH  13  14
HETATM   14  C   UNK N   1      26.881  20.589   7.002  0.00  0.00    -0.005 C 
HETATM   15  C   UNK N   1      27.907  19.524   7.322  0.00  0.00     0.005 C 
ENDBRANCH  13  14
ENDBRANCH  12  13
ENDBRANCH  11  12
ENDBRANCH  10  11
ENDBRANCH   9  10
ENDBRANCH   8   9
ENDBRANCH   7   8
ENDBRANCH   1   7
BRANCH   2  16
HETATM   16  O   UNK N   1      21.913  21.816   2.795  0.00  0.00    -0.388 OA
HETATM   17  H   UNK N   1      22.834  21.867   2.496  0.00  0.00     0.210 HD
ENDBRANCH   2  16
BRANCH   3  18
HETATM   18  N   UNK N   1      20.341  21.099   0.541  0.00  0.00    -0.421 N 
HETATM   19  H   UNK N   1      19.952  20.855  -0.369  0.00  0.00     0.150 HD
HETATM   20  H   UNK N   1      20.272  22.060   0.878  0.00  0.00     0.150 HD
ENDBRANCH   3  18
BRANCH   5  21
HETATM   21  C   UNK N   1      19.991  16.567   2.631  0.00  0.00     0.198 C 
BRANCH  21  22
HETATM   22  O   UNK N   1      19.244  16.174   3.743  0.00  0.00    -0.398 OA
HETATM   23  H   UNK N   1      19.253  15.266   4.086  0.00  0.00     0.209 HD
ENDBRANCH  21  22
ENDBRANCH   5  21
BRANCH   4  24
HETATM   24  O   UNK N   1      20.391  18.036   0.300  0.00  0.00    -0.391 OA
HETATM   25  H   UNK N   1      20.802  17.854  -0.559  0.00  0.00     0.210 HD
ENDBRANCH   4  24
TORSDOF 13
ENDMDL
MODEL 2
REMARK VINA RESULT:      -5.6     14.225     17.581
REMARK  13 active torsions:
REMARK  status: ('A' for Active; 'I' for Inactive)
REMARK    1  A    between atoms: C_1  and  O_2 
REMARK    2  A    between atoms: O_2  and  C_13 
REMARK    3  A    between atoms: C_3  and  O_4 
REMARK    4  A    between atoms: C_5  and  N_12 
REMARK    5  A    between atoms: C_6  and  O_7 
REMARK    6  A    between atoms: C_8  and  C_10 
REMARK    7  A    between atoms: C_10  and  O_11 
REMARK    8  A    between atoms: C_13  and  C_14 
REMARK    9  A    between atoms: C_14  and  C_15 
REMARK   10  A    between atoms: C_15  and  C_16 
REMARK   11  A    between atoms: C_16  and  C_17 
REMARK   12  A    between atoms: C_17  and  C_18 
REMARK   13  A    between atoms: C_18  and  C_19 
ROOT
HETATM    1  C   UNK N   1      34.733  13.298  11.489  0.00  0.00     0.291 C 
HETATM    2  C   UNK N   1      34.166  14.556  10.733  0.00  0.00     0.198 C 
HETATM    3  C   UNK N   1      35.241  15.641  10.786  0.00  0.00     0.139 C 
HETATM    4  C   UNK N   1      36.489  15.146  10.018  0.00  0.00     0.174 C 
HETATM    5  C   UNK N   1      36.606  13.598  10.097  0.00  0.00     0.179 C 
HETATM    6  O   UNK N   1      36.147  13.128  11.347  0.00  0.00    -0.349 OA
ENDROOT
BRANCH   1   7
HETATM    7  O   UNK N   1      34.487  13.435  12.879  0.00  0.00    -0.359 OA
BRANCH   7   8
HETATM    8  C   UNK N   1      35.711  13.373  13.568  0.00  0.00     0.171 C 
BRANCH   8   9
HETATM    9  C   UNK N   1      35.475  13.340  15.065  0.00  0.00     0.026 C 
BRANCH   9  10
HETATM   10  C   UNK N   1      36.171  12.142  15.680  0.00  0.00     0.002 C 
BRANCH  10  11
HETATM   11  C   UNK N   1      35.473  11.759  16.970  0.00  0.00     0.000 C 
BRANCH  11  12
HETATM   12  C   UNK N   1      35.112  13.006  17.757  0.00  0.00     0.000 C 
BRANCH  12  13
HETATM   13  C   UNK N   1      35.223  12.745  19.247  0.00  0.00    -0.000 C 
BRANCH  13  14
HETATM   14  C   UNK N   1      35.647  11.310  19.476  0.00  0.00    -0.005 C 
HETATM   15  C   UNK N   1      34.749  10.678  20.517  0.00  0.00     0.005 C 
ENDBRANCH  13  14
ENDBRANCH  12  13
ENDBRANCH  11  12
ENDBRANCH  10  11
ENDBRANCH   9  10
ENDBRANCH   8   9
ENDBRANCH   7   8
ENDBRANCH   1   7
BRANCH   2  16
HETATM   16  O   UNK N   1      32.967  14.990  11.302  0.00  0.00    -0.388 OA
HETATM   17  H   UNK N   1      32.789  15.938  11.399  0.00  0.00     0.210 HD
ENDBRANCH   2  16
BRANCH   3  18
HETATM   18  N   UNK N   1      34.771  16.899  10.223  0.00  0.00    -0.421 N 
HETATM   19  H   UNK N   1      35.078  17.205   9.301  0.00  0.00     0.150 HD
HETATM   20  H   UNK N   1      34.127  17.482  10.759  0.00  0.00     0.150 HD
ENDBRANCH   3  18
BRANCH   5  21
HETATM   21  C   UNK N   1      38.031  13.124   9.834  0.00  0.00     0.198 C 
BRANCH  21  22
HETATM   22  O   UNK N   1      38.832  13.341  10.956  0.00  0.00    -0.398 OA
HETATM   23  H   UNK N   1      38.797  14.161  11.475  0.00  0.00     0.209 HD
ENDBRANCH  21  22
ENDBRANCH   5  21
BRANCH   4  24
HETATM   24  O   UNK N   1      37.617  15.786  10.543  0.00  0.00    -0.391 OA
HETATM   25  H   UNK N   1      38.420  15.840  11.083  0.00  0.00     0.210 HD
ENDBRANCH   4  24
TORSDOF 13
ENDMDL
MODEL 3
REMARK VINA RESULT:      -5.5     14.246     17.104
REMARK  13 active torsions:
REMARK  status: ('A' for Active; 'I' for Inactive)
REMARK    1  A    between atoms: C_1  and  O_2 
REMARK    2  A    between atoms: O_2  and  C_13 
REMARK    3  A    between atoms: C_3  and  O_4 
REMARK    4  A    between atoms: C_5  and  N_12 
REMARK    5  A    between atoms: C_6  and  O_7 
REMARK    6  A    between atoms: C_8  and  C_10 
REMARK    7  A    between atoms: C_10  and  O_11 
REMARK    8  A    between atoms: C_13  and  C_14 
REMARK    9  A    between atoms: C_14  and  C_15 
REMARK   10  A    between atoms: C_15  and  C_16 
REMARK   11  A    between atoms: C_16  and  C_17 
REMARK   12  A    between atoms: C_17  and  C_18 
REMARK   13  A    between atoms: C_18  and  C_19 
ROOT
HETATM    1  C   UNK N   1      36.881  13.599  11.730  0.00  0.00     0.291 C 
HETATM    2  C   UNK N   1      36.125  12.681  10.701  0.00  0.00     0.198 C 
HETATM    3  C   UNK N   1      34.635  13.001  10.815  0.00  0.00     0.139 C 
HETATM    4  C   UNK N   1      34.407  14.472  10.398  0.00  0.00     0.174 C 
HETATM    5  C   UNK N   1      35.657  15.338  10.722  0.00  0.00     0.179 C 
HETATM    6  O   UNK N   1      36.280  14.886  11.907  0.00  0.00    -0.349 OA
ENDROOT
BRANCH   1   7
HETATM    7  O   UNK N   1      36.875  12.979  13.005  0.00  0.00    -0.359 OA
BRANCH   7   8
HETATM    8  C   UNK N   1      36.454  13.915  13.967  0.00  0.00     0.171 C 
BRANCH   8   9
HETATM    9  C   UNK N   1      36.822  13.445  15.360  0.00  0.00     0.026 C 
BRANCH   9  10
HETATM   10  C   UNK N   1      35.586  13.386  16.236  0.00  0.00     0.002 C 
BRANCH  10  11
HETATM   11  C   UNK N   1      35.530  12.045  16.942  0.00  0.00     0.000 C 
BRANCH  11  12
HETATM   12  C   UNK N   1      35.751  10.921  15.946  0.00  0.00     0.000 C 
BRANCH  12  13
HETATM   13  C   UNK N   1      34.480  10.114  15.766  0.00  0.00    -0.000 C 
BRANCH  13  14
HETATM   14  C   UNK N   1      33.593  10.793  14.745  0.00  0.00    -0.005 C 
HETATM   15  C   UNK N   1      34.019  10.383  13.353  0.00  0.00     0.005 C 
ENDBRANCH  13  14
ENDBRANCH  12  13
ENDBRANCH  11  12
ENDBRANCH  10  11
ENDBRANCH   9  10
ENDBRANCH   8   9
ENDBRANCH   7   8
ENDBRANCH   1   7
BRANCH   2  16
HETATM   16  O   UNK N   1      36.383  11.330  10.943  0.00  0.00    -0.388 OA
HETATM   17  H   UNK N   1      36.491  10.714  10.202  0.00  0.00     0.210 HD
ENDBRANCH   2  16
BRANCH   3  18
HETATM   18  N   UNK N   1      33.824  12.114   9.992  0.00  0.00    -0.421 N 
HETATM   19  H   UNK N   1      33.027  11.618  10.389  0.00  0.00     0.150 HD
HETATM   20  H   UNK N   1      34.057  11.988   9.007  0.00  0.00     0.150 HD
ENDBRANCH   3  18
BRANCH   5  21
HETATM   21  C   UNK N   1      35.309  16.818  10.828  0.00  0.00     0.198 C 
BRANCH  21  22
HETATM   22  O   UNK N   1      34.345  17.161   9.879  0.00  0.00    -0.398 OA
HETATM   23  H   UNK N   1      33.586  17.731  10.084  0.00  0.00     0.209 HD
ENDBRANCH  21  22
ENDBRANCH   5  21
BRANCH   4  24
HETATM   24  O   UNK N   1      33.260  14.945  11.045  0.00  0.00    -0.391 OA
HETATM   25  H   UNK N   1      32.454  14.852  11.576  0.00  0.00     0.210 HD
ENDBRANCH   4  24
TORSDOF 13
ENDMDL
MODEL 4
REMARK VINA RESULT:      -5.5      4.866      6.468
REMARK  13 active torsions:
REMARK  status: ('A' for Active; 'I' for Inactive)
REMARK    1  A    between atoms: C_1  and  O_2 
REMARK    2  A    between atoms: O_2  and  C_13 
REMARK    3  A    between atoms: C_3  and  O_4 
REMARK    4  A    between atoms: C_5  and  N_12 
REMARK    5  A    between atoms: C_6  and  O_7 
REMARK    6  A    between atoms: C_8  and  C_10 
REMARK    7  A    between atoms: C_10  and  O_11 
REMARK    8  A    between atoms: C_13  and  C_14 
REMARK    9  A    between atoms: C_14  and  C_15 
REMARK   10  A    between atoms: C_15  and  C_16 
REMARK   11  A    between atoms: C_16  and  C_17 
REMARK   12  A    between atoms: C_17  and  C_18 
REMARK   13  A    between atoms: C_18  and  C_19 
ROOT
HETATM    1  C   UNK N   1      21.882  18.100   4.714  0.00  0.00     0.291 C 
HETATM    2  C   UNK N   1      20.915  18.094   3.473  0.00  0.00     0.198 C 
HETATM    3  C   UNK N   1      20.677  19.550   3.075  0.00  0.00     0.139 C 
HETATM    4  C   UNK N   1      22.021  20.173   2.630  0.00  0.00     0.174 C 
HETATM    5  C   UNK N   1      23.211  19.508   3.377  0.00  0.00     0.179 C 
HETATM    6  O   UNK N   1      22.839  19.164   4.696  0.00  0.00    -0.349 OA
ENDROOT
BRANCH   1   7
HETATM    7  O   UNK N   1      21.122  18.270   5.900  0.00  0.00    -0.359 OA
BRANCH   7   8
HETATM    8  C   UNK N   1      21.323  17.156   6.735  0.00  0.00     0.171 C 
BRANCH   8   9
HETATM    9  C   UNK N   1      19.996  16.631   7.247  0.00  0.00     0.026 C 
BRANCH   9  10
HETATM   10  C   UNK N   1      20.154  16.094   8.656  0.00  0.00     0.002 C 
BRANCH  10  11
HETATM   11  C   UNK N   1      21.203  15.000   8.666  0.00  0.00     0.000 C 
BRANCH  11  12
HETATM   12  C   UNK N   1      20.917  14.014   9.784  0.00  0.00     0.000 C 
BRANCH  12  13
HETATM   13  C   UNK N   1      22.106  13.097  10.001  0.00  0.00    -0.000 C 
BRANCH  13  14
HETATM   14  C   UNK N   1      21.813  12.158  11.152  0.00  0.00    -0.005 C 
HETATM   15  C   UNK N   1      23.058  11.990  11.995  0.00  0.00     0.005 C 
ENDBRANCH  13  14
ENDBRANCH  12  13
ENDBRANCH  11  12
ENDBRANCH  10  11
ENDBRANCH   9  10
ENDBRANCH   8   9
ENDBRANCH   7   8
ENDBRANCH   1   7
BRANCH   2  16
HETATM   16  O   UNK N   1      19.719  17.436   3.767  0.00  0.00    -0.388 OA
HETATM   17  H   UNK N   1      19.065  17.852   4.350  0.00  0.00     0.210 HD
ENDBRANCH   2  16
BRANCH   3  18
HETATM   18  N   UNK N   1      19.691  19.668   2.010  0.00  0.00    -0.421 N 
HETATM   19  H   UNK N   1      18.755  20.024   2.202  0.00  0.00     0.150 HD
HETATM   20  H   UNK N   1      19.940  19.390   1.060  0.00  0.00     0.150 HD
ENDBRANCH   3  18
BRANCH   5  21
HETATM   21  C   UNK N   1      24.446  20.401   3.382  0.00  0.00     0.198 C 
BRANCH  21  22
HETATM   22  O   UNK N   1      24.700  20.889   2.099  0.00  0.00    -0.398 OA
HETATM   23  H   UNK N   1      24.004  20.990   1.430  0.00  0.00     0.209 HD
ENDBRANCH  21  22
ENDBRANCH   5  21
BRANCH   4  24
HETATM   24  O   UNK N   1      21.966  21.553   2.852  0.00  0.00    -0.391 OA
HETATM   25  H   UNK N   1      22.221  22.380   3.290  0.00  0.00     0.210 HD
ENDBRANCH   4  24
TORSDOF 13
ENDMDL
MODEL 5
REMARK VINA RESULT:      -5.4      8.370     12.042
REMARK  13 active torsions:
REMARK  status: ('A' for Active; 'I' for Inactive)
REMARK    1  A    between atoms: C_1  and  O_2 
REMARK    2  A    between atoms: O_2  and  C_13 
REMARK    3  A    between atoms: C_3  and  O_4 
REMARK    4  A    between atoms: C_5  and  N_12 
REMARK    5  A    between atoms: C_6  and  O_7 
REMARK    6  A    between atoms: C_8  and  C_10 
REMARK    7  A    between atoms: C_10  and  O_11 
REMARK    8  A    between atoms: C_13  and  C_14 
REMARK    9  A    between atoms: C_14  and  C_15 
REMARK   10  A    between atoms: C_15  and  C_16 
REMARK   11  A    between atoms: C_16  and  C_17 
REMARK   12  A    between atoms: C_17  and  C_18 
REMARK   13  A    between atoms: C_18  and  C_19 
ROOT
HETATM    1  C   UNK N   1      32.984  15.999   7.434  0.00  0.00     0.291 C 
HETATM    2  C   UNK N   1      34.069  17.119   7.218  0.00  0.00     0.198 C 
HETATM    3  C   UNK N   1      34.312  17.784   8.572  0.00  0.00     0.139 C 
HETATM    4  C   UNK N   1      34.897  16.734   9.546  0.00  0.00     0.174 C 
HETATM    5  C   UNK N   1      34.385  15.309   9.194  0.00  0.00     0.179 C 
HETATM    6  O   UNK N   1      33.058  15.363   8.714  0.00  0.00    -0.349 OA
ENDROOT
BRANCH   1   7
HETATM    7  O   UNK N   1      31.692  16.576   7.351  0.00  0.00    -0.359 OA
BRANCH   7   8
HETATM    8  C   UNK N   1      31.139  16.648   8.643  0.00  0.00     0.171 C 
BRANCH   8   9
HETATM    9  C   UNK N   1      30.658  18.056   8.935  0.00  0.00     0.026 C 
BRANCH   9  10
HETATM   10  C   UNK N   1      29.348  18.014   9.696  0.00  0.00     0.002 C 
BRANCH  10  11
HETATM   11  C   UNK N   1      28.194  17.973   8.714  0.00  0.00     0.000 C 
BRANCH  11  12
HETATM   12  C   UNK N   1      28.221  19.203   7.825  0.00  0.00     0.000 C 
BRANCH  12  13
HETATM   13  C   UNK N   1      27.864  18.836   6.398  0.00  0.00    -0.000 C 
BRANCH  13  14
HETATM   14  C   UNK N   1      26.938  19.887   5.825  0.00  0.00    -0.005 C 
HETATM   15  C   UNK N   1      27.464  21.264   6.164  0.00  0.00     0.005 C 
ENDBRANCH  13  14
ENDBRANCH  12  13
ENDBRANCH  11  12
ENDBRANCH  10  11
ENDBRANCH   9  10
ENDBRANCH   8   9
ENDBRANCH   7   8
ENDBRANCH   1   7
BRANCH   2  16
HETATM   16  O   UNK N   1      33.657  18.043   6.256  0.00  0.00    -0.388 OA
HETATM   17  H   UNK N   1      33.388  18.936   6.522  0.00  0.00     0.210 HD
ENDBRANCH   2  16
BRANCH   3  18
HETATM   18  N   UNK N   1      35.210  18.925   8.464  0.00  0.00    -0.421 N 
HETATM   19  H   UNK N   1      35.834  19.172   9.231  0.00  0.00     0.150 HD
HETATM   20  H   UNK N   1      35.216  19.482   7.609  0.00  0.00     0.150 HD
ENDBRANCH   3  18
BRANCH   5  21
HETATM   21  C   UNK N   1      34.490  14.361  10.382  0.00  0.00     0.198 C 
BRANCH  21  22
HETATM   22  O   UNK N   1      33.513  14.661  11.333  0.00  0.00    -0.398 OA
HETATM   23  H   UNK N   1      32.680  15.106  11.107  0.00  0.00     0.209 HD
ENDBRANCH  21  22
ENDBRANCH   5  21
BRANCH   4  24
HETATM   24  O   UNK N   1      34.562  17.105  10.853  0.00  0.00    -0.391 OA
HETATM   25  H   UNK N   1      34.428  16.947  11.800  0.00  0.00     0.210 HD
ENDBRANCH   4  24
TORSDOF 13
ENDMDL
MODEL 6
REMARK VINA RESULT:      -5.4     11.181     14.488
REMARK  13 active torsions:
REMARK  status: ('A' for Active; 'I' for Inactive)
REMARK    1  A    between atoms: C_1  and  O_2 
REMARK    2  A    between atoms: O_2  and  C_13 
REMARK    3  A    between atoms: C_3  and  O_4 
REMARK    4  A    between atoms: C_5  and  N_12 
REMARK    5  A    between atoms: C_6  and  O_7 
REMARK    6  A    between atoms: C_8  and  C_10 
REMARK    7  A    between atoms: C_10  and  O_11 
REMARK    8  A    between atoms: C_13  and  C_14 
REMARK    9  A    between atoms: C_14  and  C_15 
REMARK   10  A    between atoms: C_15  and  C_16 
REMARK   11  A    between atoms: C_16  and  C_17 
REMARK   12  A    between atoms: C_17  and  C_18 
REMARK   13  A    between atoms: C_18  and  C_19 
ROOT
HETATM    1  C   UNK N   1      35.313  14.599   9.774  0.00  0.00     0.291 C 
HETATM    2  C   UNK N   1      36.405  14.830  10.882  0.00  0.00     0.198 C 
HETATM    3  C   UNK N   1      35.789  14.423  12.220  0.00  0.00     0.139 C 
HETATM    4  C   UNK N   1      35.463  12.912  12.180  0.00  0.00     0.174 C 
HETATM    5  C   UNK N   1      35.131  12.457  10.731  0.00  0.00     0.179 C 
HETATM    6  O   UNK N   1      34.456  13.482  10.032  0.00  0.00    -0.349 OA
ENDROOT
BRANCH   1   7
HETATM    7  O   UNK N   1      34.471  15.737   9.700  0.00  0.00    -0.359 OA
BRANCH   7   8
HETATM    8  C   UNK N   1      34.331  16.116   8.352  0.00  0.00     0.171 C 
BRANCH   8   9
HETATM    9  C   UNK N   1      34.402  17.624   8.216  0.00  0.00     0.026 C 
BRANCH   9  10
HETATM   10  C   UNK N   1      33.021  18.191   7.953  0.00  0.00     0.002 C 
BRANCH  10  11
HETATM   11  C   UNK N   1      32.083  17.072   7.548  0.00  0.00     0.000 C 
BRANCH  11  12
HETATM   12  C   UNK N   1      30.662  17.404   7.967  0.00  0.00     0.000 C 
BRANCH  12  13
HETATM   13  C   UNK N   1      30.650  18.596   8.905  0.00  0.00    -0.000 C 
BRANCH  13  14
HETATM   14  C   UNK N   1      29.503  18.455   9.883  0.00  0.00    -0.005 C 
HETATM   15  C   UNK N   1      28.294  17.895   9.166  0.00  0.00     0.005 C 
ENDBRANCH  13  14
ENDBRANCH  12  13
ENDBRANCH  11  12
ENDBRANCH  10  11
ENDBRANCH   9  10
ENDBRANCH   8   9
ENDBRANCH   7   8
ENDBRANCH   1   7
BRANCH   2  16
HETATM   16  O   UNK N   1      36.838  16.157  10.896  0.00  0.00    -0.388 OA
HETATM   17  H   UNK N   1      36.661  16.720  11.666  0.00  0.00     0.210 HD
ENDBRANCH   2  16
BRANCH   3  18
HETATM   18  N   UNK N   1      36.675  14.717  13.338  0.00  0.00    -0.421 N 
HETATM   19  H   UNK N   1      37.143  13.965  13.843  0.00  0.00     0.150 HD
HETATM   20  H   UNK N   1      36.829  15.686  13.618  0.00  0.00     0.150 HD
ENDBRANCH   3  18
BRANCH   5  21
HETATM   21  C   UNK N   1      34.318  11.168  10.715  0.00  0.00     0.198 C 
BRANCH  21  22
HETATM   22  O   UNK N   1      33.143  11.343   9.982  0.00  0.00    -0.398 OA
HETATM   23  H   UNK N   1      32.632  12.168   9.999  0.00  0.00     0.209 HD
ENDBRANCH  21  22
ENDBRANCH   5  21
BRANCH   4  24
HETATM   24  O   UNK N   1      34.407  12.661  13.064  0.00  0.00    -0.391 OA
HETATM   25  H   UNK N   1      33.854  12.102  13.630  0.00  0.00     0.210 HD
ENDBRANCH   4  24
TORSDOF 13
ENDMDL
MODEL 7
REMARK VINA RESULT:      -5.4      2.025      2.711
REMARK  13 active torsions:
REMARK  status: ('A' for Active; 'I' for Inactive)
REMARK    1  A    between atoms: C_1  and  O_2 
REMARK    2  A    between atoms: O_2  and  C_13 
REMARK    3  A    between atoms: C_3  and  O_4 
REMARK    4  A    between atoms: C_5  and  N_12 
REMARK    5  A    between atoms: C_6  and  O_7 
REMARK    6  A    between atoms: C_8  and  C_10 
REMARK    7  A    between atoms: C_10  and  O_11 
REMARK    8  A    between atoms: C_13  and  C_14 
REMARK    9  A    between atoms: C_14  and  C_15 
REMARK   10  A    between atoms: C_15  and  C_16 
REMARK   11  A    between atoms: C_16  and  C_17 
REMARK   12  A    between atoms: C_17  and  C_18 
REMARK   13  A    between atoms: C_18  and  C_19 
ROOT
HETATM    1  C   UNK N   1      21.534  20.350   3.134  0.00  0.00     0.291 C 
HETATM    2  C   UNK N   1      20.357  19.790   2.252  0.00  0.00     0.198 C 
HETATM    3  C   UNK N   1      20.535  18.275   2.167  0.00  0.00     0.139 C 
HETATM    4  C   UNK N   1      20.396  17.675   3.586  0.00  0.00     0.174 C 
HETATM    5  C   UNK N   1      20.867  18.691   4.663  0.00  0.00     0.179 C 
HETATM    6  O   UNK N   1      21.946  19.463   4.179  0.00  0.00    -0.349 OA
ENDROOT
BRANCH   1   7
HETATM    7  O   UNK N   1      22.674  20.559   2.316  0.00  0.00    -0.359 OA
BRANCH   7   8
HETATM    8  C   UNK N   1      23.822  20.569   3.128  0.00  0.00     0.171 C 
BRANCH   8   9
HETATM    9  C   UNK N   1      25.074  20.500   2.276  0.00  0.00     0.026 C 
BRANCH   9  10
HETATM   10  C   UNK N   1      26.309  20.544   3.154  0.00  0.00     0.002 C 
BRANCH  10  11
HETATM   11  C   UNK N   1      25.897  20.463   4.611  0.00  0.00     0.000 C 
BRANCH  11  12
HETATM   12  C   UNK N   1      27.051  19.947   5.451  0.00  0.00     0.000 C 
BRANCH  12  13
HETATM   13  C   UNK N   1      28.259  19.664   4.579  0.00  0.00    -0.000 C 
BRANCH  13  14
HETATM   14  C   UNK N   1      28.775  18.271   4.872  0.00  0.00    -0.005 C 
HETATM   15  C   UNK N   1      27.795  17.247   4.343  0.00  0.00     0.005 C 
ENDBRANCH  13  14
ENDBRANCH  12  13
ENDBRANCH  11  12
ENDBRANCH  10  11
ENDBRANCH   9  10
ENDBRANCH   8   9
ENDBRANCH   7   8
ENDBRANCH   1   7
BRANCH   2  16
HETATM   16  O   UNK N   1      20.347  20.381   0.987  0.00  0.00    -0.388 OA
HETATM   17  H   UNK N   1      21.177  20.673   0.580  0.00  0.00     0.210 HD
ENDBRANCH   2  16
BRANCH   3  18
HETATM   18  N   UNK N   1      19.567  17.664   1.266  0.00  0.00    -0.421 N 
HETATM   19  H   UNK N   1      18.567  17.736   1.449  0.00  0.00     0.150 HD
HETATM   20  H   UNK N   1      19.894  17.159   0.442  0.00  0.00     0.150 HD
ENDBRANCH   3  18
BRANCH   5  21
HETATM   21  C   UNK N   1      21.244  17.999   5.968  0.00  0.00     0.198 C 
BRANCH  21  22
HETATM   22  O   UNK N   1      20.957  18.823   7.057  0.00  0.00    -0.398 OA
HETATM   23  H   UNK N   1      21.398  19.676   7.201  0.00  0.00     0.209 HD
ENDBRANCH  21  22
ENDBRANCH   5  21
BRANCH   4  24
HETATM   24  O   UNK N   1      21.123  16.481   3.636  0.00  0.00    -0.391 OA
HETATM   25  H   UNK N   1      21.438  15.632   3.288  0.00  0.00     0.210 HD
ENDBRANCH   4  24
TORSDOF 13
ENDMDL
MODEL 8
REMARK VINA RESULT:      -5.2      7.114      9.218
REMARK  13 active torsions:
REMARK  status: ('A' for Active; 'I' for Inactive)
REMARK    1  A    between atoms: C_1  and  O_2 
REMARK    2  A    between atoms: O_2  and  C_13 
REMARK    3  A    between atoms: C_3  and  O_4 
REMARK    4  A    between atoms: C_5  and  N_12 
REMARK    5  A    between atoms: C_6  and  O_7 
REMARK    6  A    between atoms: C_8  and  C_10 
REMARK    7  A    between atoms: C_10  and  O_11 
REMARK    8  A    between atoms: C_13  and  C_14 
REMARK    9  A    between atoms: C_14  and  C_15 
REMARK   10  A    between atoms: C_15  and  C_16 
REMARK   11  A    between atoms: C_16  and  C_17 
REMARK   12  A    between atoms: C_17  and  C_18 
REMARK   13  A    between atoms: C_18  and  C_19 
ROOT
HETATM    1  C   UNK N   1      21.513  13.917   8.758  0.00  0.00     0.291 C 
HETATM    2  C   UNK N   1      20.707  13.742  10.098  0.00  0.00     0.198 C 
HETATM    3  C   UNK N   1      21.012  12.343  10.632  0.00  0.00     0.139 C 
HETATM    4  C   UNK N   1      22.520  12.255  10.968  0.00  0.00     0.174 C 
HETATM    5  C   UNK N   1      23.347  13.189  10.040  0.00  0.00     0.179 C 
HETATM    6  O   UNK N   1      22.774  13.240   8.750  0.00  0.00    -0.349 OA
ENDROOT
BRANCH   1   7
HETATM    7  O   UNK N   1      20.763  13.374   7.685  0.00  0.00    -0.359 OA
BRANCH   7   8
HETATM    8  C   UNK N   1      21.008  14.133   6.526  0.00  0.00     0.171 C 
BRANCH   8   9
HETATM    9  C   UNK N   1      21.089  15.608   6.866  0.00  0.00     0.026 C 
BRANCH   9  10
HETATM   10  C   UNK N   1      22.369  16.203   6.313  0.00  0.00     0.002 C 
BRANCH  10  11
HETATM   11  C   UNK N   1      22.081  17.574   5.734  0.00  0.00     0.000 C 
BRANCH  11  12
HETATM   12  C   UNK N   1      20.886  17.504   4.800  0.00  0.00     0.000 C 
BRANCH  12  13
HETATM   13  C   UNK N   1      21.276  17.945   3.403  0.00  0.00    -0.000 C 
BRANCH  13  14
HETATM   14  C   UNK N   1      21.722  19.391   3.437  0.00  0.00    -0.005 C 
HETATM   15  C   UNK N   1      20.518  20.294   3.285  0.00  0.00     0.005 C 
ENDBRANCH  13  14
ENDBRANCH  12  13
ENDBRANCH  11  12
ENDBRANCH  10  11
ENDBRANCH   9  10
ENDBRANCH   8   9
ENDBRANCH   7   8
ENDBRANCH   1   7
BRANCH   2  16
HETATM   16  O   UNK N   1      19.338  13.929   9.893  0.00  0.00    -0.388 OA
HETATM   17  H   UNK N   1      18.757  13.164   9.760  0.00  0.00     0.210 HD
ENDBRANCH   2  16
BRANCH   3  18
HETATM   18  N   UNK N   1      20.216  12.026  11.810  0.00  0.00    -0.421 N 
HETATM   19  H   UNK N   1      20.665  11.789  12.694  0.00  0.00     0.150 HD
HETATM   20  H   UNK N   1      19.198  12.041  11.749  0.00  0.00     0.150 HD
ENDBRANCH   3  18
BRANCH   5  21
HETATM   21  C   UNK N   1      24.807  12.761   9.963  0.00  0.00     0.198 C 
BRANCH  21  22
HETATM   22  O   UNK N   1      25.361  12.687  11.242  0.00  0.00    -0.398 OA
HETATM   23  H   UNK N   1      25.024  13.205  11.991  0.00  0.00     0.209 HD
ENDBRANCH  21  22
ENDBRANCH   5  21
BRANCH   4  24
HETATM   24  O   UNK N   1      22.921  10.919  10.862  0.00  0.00    -0.391 OA
HETATM   25  H   UNK N   1      23.123  10.036  11.207  0.00  0.00     0.210 HD
ENDBRANCH   4  24
TORSDOF 13
ENDMDL
MODEL 9
REMARK VINA RESULT:      -5.2      4.284      6.396
REMARK  13 active torsions:
REMARK  status: ('A' for Active; 'I' for Inactive)
REMARK    1  A    between atoms: C_1  and  O_2 
REMARK    2  A    between atoms: O_2  and  C_13 
REMARK    3  A    between atoms: C_3  and  O_4 
REMARK    4  A    between atoms: C_5  and  N_12 
REMARK    5  A    between atoms: C_6  and  O_7 
REMARK    6  A    between atoms: C_8  and  C_10 
REMARK    7  A    between atoms: C_10  and  O_11 
REMARK    8  A    between atoms: C_13  and  C_14 
REMARK    9  A    between atoms: C_14  and  C_15 
REMARK   10  A    between atoms: C_15  and  C_16 
REMARK   11  A    between atoms: C_16  and  C_17 
REMARK   12  A    between atoms: C_17  and  C_18 
REMARK   13  A    between atoms: C_18  and  C_19 
ROOT
HETATM    1  C   UNK N   1      21.629  17.991   3.947  0.00  0.00     0.291 C 
HETATM    2  C   UNK N   1      20.826  18.338   2.639  0.00  0.00     0.198 C 
HETATM    3  C   UNK N   1      20.745  19.861   2.547  0.00  0.00     0.139 C 
HETATM    4  C   UNK N   1      22.175  20.430   2.394  0.00  0.00     0.174 C 
HETATM    5  C   UNK N   1      23.212  19.511   3.099  0.00  0.00     0.179 C 
HETATM    6  O   UNK N   1      22.656  18.937   4.263  0.00  0.00    -0.349 OA
ENDROOT
BRANCH   1   7
HETATM    7  O   UNK N   1      20.743  17.981   5.053  0.00  0.00    -0.359 OA
BRANCH   7   8
HETATM    8  C   UNK N   1      21.115  16.945   5.929  0.00  0.00     0.171 C 
BRANCH   8   9
HETATM    9  C   UNK N   1      20.764  17.307   7.358  0.00  0.00     0.026 C 
BRANCH   9  10
HETATM   10  C   UNK N   1      20.641  16.053   8.201  0.00  0.00     0.002 C 
BRANCH  10  11
HETATM   11  C   UNK N   1      19.398  16.144   9.064  0.00  0.00     0.000 C 
BRANCH  11  12
HETATM   12  C   UNK N   1      18.803  17.538   8.977  0.00  0.00     0.000 C 
BRANCH  12  13
HETATM   13  C   UNK N   1      17.504  17.611   9.757  0.00  0.00    -0.000 C 
BRANCH  13  14
HETATM   14  C   UNK N   1      17.664  18.576  10.911  0.00  0.00    -0.005 C 
HETATM   15  C   UNK N   1      18.885  19.440  10.682  0.00  0.00     0.005 C 
ENDBRANCH  13  14
ENDBRANCH  12  13
ENDBRANCH  11  12
ENDBRANCH  10  11
ENDBRANCH   9  10
ENDBRANCH   8   9
ENDBRANCH   7   8
ENDBRANCH   1   7
BRANCH   2  16
HETATM   16  O   UNK N   1      19.559  17.753   2.653  0.00  0.00    -0.388 OA
HETATM   17  H   UNK N   1      19.202  17.385   3.477  0.00  0.00     0.210 HD
ENDBRANCH   2  16
BRANCH   3  18
HETATM   18  N   UNK N   1      19.910  20.294   1.435  0.00  0.00    -0.421 N 
HETATM   19  H   UNK N   1      19.551  19.621   0.759  0.00  0.00     0.150 HD
HETATM   20  H   UNK N   1      19.682  21.283   1.332  0.00  0.00     0.150 HD
ENDBRANCH   3  18
BRANCH   5  21
HETATM   21  C   UNK N   1      24.498  20.259   3.430  0.00  0.00     0.198 C 
BRANCH  21  22
HETATM   22  O   UNK N   1      24.960  20.954   2.311  0.00  0.00    -0.398 OA
HETATM   23  H   UNK N   1      25.054  21.920   2.295  0.00  0.00     0.209 HD
ENDBRANCH  21  22
ENDBRANCH   5  21
BRANCH   4  24
HETATM   24  O   UNK N   1      22.193  21.732   2.906  0.00  0.00    -0.391 OA
HETATM   25  H   UNK N   1      21.924  22.662   2.939  0.00  0.00     0.210 HD
ENDBRANCH   4  24
TORSDOF 13
ENDMDL
