REMARK  13 active torsions:
REMARK  status: ('A' for Active; 'I' for Inactive)
REMARK    1  A    between atoms: C_1  and  O_2 
REMARK    2  A    between atoms: O_2  and  C_13 
REMARK    3  A    between atoms: C_3  and  O_4 
REMARK    4  A    between atoms: C_5  and  N_12 
REMARK    5  A    between atoms: C_6  and  O_7 
REMARK    6  A    between atoms: C_8  and  C_10 
REMARK    7  A    between atoms: C_10  and  O_11 
REMARK    8  A    between atoms: C_13  and  C_14 
REMARK    9  A    between atoms: C_14  and  C_15 
REMARK   10  A    between atoms: C_15  and  C_16 
REMARK   11  A    between atoms: C_16  and  C_17 
REMARK   12  A    between atoms: C_17  and  C_18 
REMARK   13  A    between atoms: C_18  and  C_19 
ROOT
HETATM    1  C   UNK N   1      -1.909   0.818  -0.427  0.00  0.00     0.291 C 
HETATM    2  C   UNK N   1      -1.757  -0.691  -0.846  0.00  0.00     0.198 C 
HETATM    3  C   UNK N   1      -2.503  -1.528   0.192  0.00  0.00     0.139 C 
HETATM    4  C   UNK N   1      -4.006  -1.167   0.138  0.00  0.00     0.174 C 
HETATM    5  C   UNK N   1      -4.203   0.310  -0.304  0.00  0.00     0.179 C 
HETATM    6  O   UNK N   1      -3.161   1.121   0.197  0.00  0.00    -0.349 OA
ENDROOT
BRANCH   1   7
HETATM    7  O   UNK N   1      -0.904   1.146   0.518  0.00  0.00    -0.359 OA
BRANCH   7   8
HETATM    8  C   UNK N   1       0.191   1.714  -0.158  0.00  0.00     0.171 C 
BRANCH   8   9
HETATM    9  C   UNK N   1       1.357   1.908   0.791  0.00  0.00     0.026 C 
BRANCH   9  10
HETATM   10  C   UNK N   1       1.828   0.569   1.323  0.00  0.00     0.002 C 
BRANCH  10  11
HETATM   11  C   UNK N   1       3.105   0.761   2.117  0.00  0.00     0.000 C 
BRANCH  11  12
HETATM   12  C   UNK N   1       4.242  -0.009   1.470  0.00  0.00     0.000 C 
BRANCH  12  13
HETATM   13  C   UNK N   1       4.714   0.696   0.213  0.00  0.00    -0.000 C 
BRANCH  13  14
HETATM   14  C   UNK N   1       5.790  -0.133  -0.455  0.00  0.00    -0.005 C 
HETATM   15  C   UNK N   1       6.305   0.597  -1.676  0.00  0.00     0.005 C 
ENDBRANCH  13  14
ENDBRANCH  12  13
ENDBRANCH  11  12
ENDBRANCH  10  11
ENDBRANCH   9  10
ENDBRANCH   8   9
ENDBRANCH   7   8
ENDBRANCH   1   7
BRANCH   2  16
HETATM   16  O   UNK N   1      -0.413  -1.058  -0.936  0.00  0.00    -0.388 OA
HETATM   17  H   UNK N   1      -0.167  -1.994  -0.999  0.00  0.00     0.210 HD
ENDBRANCH   2  16
BRANCH   3  18
HETATM   18  N   UNK N   1      -2.321  -2.956  -0.029  0.00  0.00    -0.421 N 
HETATM   19  H   UNK N   1      -3.123  -3.566  -0.184  0.00  0.00     0.150 HD
HETATM   20  H   UNK N   1      -1.380  -3.350  -0.029  0.00  0.00     0.150 HD
ENDBRANCH   3  18
BRANCH   5  21
HETATM   21  C   UNK N   1      -5.561   0.853   0.125  0.00  0.00     0.198 C 
BRANCH  21  22
HETATM   22  O   UNK N   1      -5.701   2.184  -0.271  0.00  0.00    -0.398 OA
HETATM   23  H   UNK N   1      -4.948   2.731  -0.547  0.00  0.00     0.209 HD
ENDBRANCH  21  22
ENDBRANCH   5  21
BRANCH   4  24
HETATM   24  O   UNK N   1      -4.569  -1.419   1.394  0.00  0.00    -0.391 OA
HETATM   25  H   UNK N   1      -4.915  -1.168   2.264  0.00  0.00     0.210 HD
ENDBRANCH   4  24
TORSDOF 13
