REMARK  8 active torsions:
REMARK  status: ('A' for Active; 'I' for Inactive)
REMARK    1  A    between atoms: O_1  and  C_2 
REMARK    2  A    between atoms: C_2  and  C_3 
REMARK    3  A    between atoms: C_3  and  C_4 
REMARK    4  A    between atoms: C_3  and  N_7 
REMARK       I    between atoms: N_7  and  C_8 
REMARK    5  A    between atoms: N_16  and  C_17 
REMARK    6  A    between atoms: C_20  and  N_23 
REMARK    7  A    between atoms: N_23  and  C_24 
REMARK    8  A    between atoms: C_26  and  N_27 
ROOT
HETATM    1  N   UNK N   1       1.961  -0.769  -0.451  0.00  0.00    -0.219 N 
HETATM    2  C   UNK N   1       0.716  -0.121  -0.247  0.00  0.00     0.681 A 
HETATM    3  N   UNK N   1      -0.453  -0.822  -0.129  0.00  0.00    -0.174 N 
ATOM      4  HN  UNK N   1      -0.461  -1.842  -0.160  1.00  0.00     0.186 HD
HETATM    5  C   UNK N   1      -1.604  -0.118   0.031  0.00  0.00     0.155 A 
HETATM    6  C   UNK N   1      -1.630   1.230   0.093  0.00  0.00     0.123 A 
HETATM    7  N   UNK N   1      -2.898   1.655   0.242  0.00  0.00    -0.346 N 
ATOM      8  HN  UNK N   1      -3.230   2.616   0.326  1.00  0.00     0.167 HD
HETATM    9  C   UNK N   1      -3.639   0.510   0.253  0.00  0.00     0.185 A 
HETATM   10  N   UNK N   1      -2.852  -0.594   0.123  0.00  0.00    -0.323 N 
HETATM   11  C   UNK N   1      -0.453   1.954  -0.020  0.00  0.00     0.152 A 
HETATM   12  N   UNK N   1       0.699   1.245  -0.207  0.00  0.00    -0.174 N 
ATOM     13  HN  UNK N   1       1.576   1.753  -0.320  1.00  0.00     0.186 HD
HETATM   14  H   UNK N   1       2.647  -0.245  -0.924  0.00  0.00     0.178 HD
ENDROOT
BRANCH  11  15
HETATM   15  N   UNK N   1      -0.441   3.377   0.002  0.00  0.00    -0.340 N 
HETATM   16  H   UNK N   1      -1.304   3.849   0.028  0.00  0.00     0.167 HD
BRANCH  15  17
HETATM   17  C   UNK N   1       0.754   4.157  -0.013  0.00  0.00     0.037 A 
HETATM   18  C   UNK N   1       0.687   5.513  -0.348  0.00  0.00     0.058 A 
HETATM   19  C   UNK N   1       1.855   6.284  -0.406  0.00  0.00     0.029 A 
HETATM   20  C   UNK N   1       3.095   5.704  -0.120  0.00  0.00     0.052 A 
HETATM   21  C   UNK N   1       3.168   4.355   0.230  0.00  0.00     0.038 A 
HETATM   22 Cl   UNK N   1       4.714   3.617   0.590  0.00  0.00    -0.084 Cl
HETATM   23  C   UNK N   1       2.006   3.588   0.280  0.00  0.00     0.053 A 
BRANCH  19  24
HETATM   24  N   UNK N   1       1.785   7.642  -0.770  0.00  0.00    -0.399 N 
HETATM   25  H   UNK N   1       2.583   8.160  -1.024  0.00  0.00     0.156 HD
HETATM   26  H   UNK N   1       0.908   8.090  -0.770  0.00  0.00     0.156 HD
ENDBRANCH  19  24
ENDBRANCH  15  17
ENDBRANCH  11  15
BRANCH  10  27
HETATM   27  C   UNK N   1      -3.269  -1.998   0.048  0.00  0.00     0.084 C 
HETATM   28  C   UNK N   1      -4.782  -2.148   0.028  0.00  0.00     0.032 C 
HETATM   29  C   UNK N   1      -2.710  -2.783   1.218  0.00  0.00     0.032 C 
ENDBRANCH  10  27
BRANCH   1  30
HETATM   30  C   UNK N   1       2.349  -2.106  -0.049  0.00  0.00     0.126 C 
BRANCH  30  31
HETATM   31  C   UNK N   1       3.795  -2.290  -0.493  0.00  0.00     0.190 C 
BRANCH  31  32
HETATM   32  O   UNK N   1       4.322  -3.478   0.017  0.00  0.00    -0.399 OA
HETATM   33  H   UNK N   1       3.790  -4.208   0.371  0.00  0.00     0.209 HD
ENDBRANCH  31  32
ENDBRANCH  30  31
BRANCH  30  34
HETATM   34  C   UNK N   1       1.494  -3.240  -0.647  0.00  0.00     0.003 C 
HETATM   35  C   UNK N   1       1.215  -3.077  -2.132  0.00  0.00     0.011 C 
HETATM   36  C   UNK N   1       0.224  -3.531   0.127  0.00  0.00     0.011 C 
ENDBRANCH  30  34
ENDBRANCH   1  30
TORSDOF 8
