MODEL 1
REMARK VINA RESULT:      -6.1      0.000      0.000
REMARK  5 active torsions:
REMARK  status: ('A' for Active; 'I' for Inactive)
REMARK       I    between atoms: C_2  and  N_4 
REMARK    1  A    between atoms: C_5  and  N_4 
REMARK    2  A    between atoms: C_5  and  C_6 
REMARK    3  A    between atoms: C_5  and  C_8 
REMARK    4  A    between atoms: C_6  and  C_7 
REMARK    5  A    between atoms: C_8  and  C_13 
ROOT
HETATM    1  C   UNK N   1      26.003  24.801  -5.673  0.00  0.00     0.168 C 
ENDROOT
BRANCH   1   2
HETATM    2  N   UNK N   1      25.218  23.648  -6.071  0.00  0.00    -0.349 N 
HETATM    3  C   UNK N   1      25.707  22.621  -6.811  0.00  0.00     0.214 C 
HETATM    4  C   UNK N   1      24.820  21.474  -7.148  0.00  0.00     0.117 C 
HETATM    5  O   UNK N   1      26.868  22.618  -7.191  0.00  0.00    -0.274 OA
HETATM    6  H   UNK N   1      24.276  23.608  -5.789  0.00  0.00     0.163 HD
ENDBRANCH   1   2
BRANCH   1   7
HETATM    7  C   UNK N   1      26.692  24.546  -4.347  0.00  0.00     0.255 C 
HETATM    8  O   UNK N   1      26.021  24.200  -3.385  0.00  0.00    -0.286 OA
BRANCH   7   9
HETATM    9  C   UNK N   1      28.179  24.722  -4.174  0.00  0.00     0.453 C 
HETATM   10  F   UNK N   1      28.690  23.852  -3.226  0.00  0.00    -0.163 F 
HETATM   11  F   UNK N   1      28.453  26.019  -3.782  0.00  0.00    -0.163 F 
HETATM   12  F   UNK N   1      28.802  24.473  -5.383  0.00  0.00    -0.163 F 
ENDBRANCH   7   9
ENDBRANCH   1   7
BRANCH   1  13
HETATM   13  C   UNK N   1      25.077  26.017  -5.573  0.00  0.00     0.072 C 
BRANCH  13  14
HETATM   14  C   UNK N   1      25.842  27.288  -5.368  0.00  0.00    -0.056 A 
HETATM   15  C   UNK N   1      26.801  27.691  -6.305  0.00  0.00     0.007 A 
HETATM   16  C   UNK N   1      27.526  28.870  -6.103  0.00  0.00     0.001 A 
HETATM   17  C   UNK N   1      27.296  29.646  -4.961  0.00  0.00     0.000 A 
HETATM   18  C   UNK N   1      26.337  29.246  -4.027  0.00  0.00     0.001 A 
HETATM   19  C   UNK N   1      25.609  28.070  -4.230  0.00  0.00     0.007 A 
ENDBRANCH  13  14
ENDBRANCH   1  13
TORSDOF 5
ENDMDL
MODEL 2
REMARK VINA RESULT:      -5.6     15.637     17.085
REMARK  5 active torsions:
REMARK  status: ('A' for Active; 'I' for Inactive)
REMARK       I    between atoms: C_2  and  N_4 
REMARK    1  A    between atoms: C_5  and  N_4 
REMARK    2  A    between atoms: C_5  and  C_6 
REMARK    3  A    between atoms: C_5  and  C_8 
REMARK    4  A    between atoms: C_6  and  C_7 
REMARK    5  A    between atoms: C_8  and  C_13 
ROOT
HETATM    1  C   UNK N   1      32.887  17.139   8.279  0.00  0.00     0.168 C 
ENDROOT
BRANCH   1   2
HETATM    2  N   UNK N   1      33.638  16.790   9.470  0.00  0.00    -0.349 N 
HETATM    3  C   UNK N   1      33.957  15.519   9.817  0.00  0.00     0.214 C 
HETATM    4  C   UNK N   1      34.749  15.272  11.053  0.00  0.00     0.117 C 
HETATM    5  O   UNK N   1      33.614  14.573   9.122  0.00  0.00    -0.274 OA
HETATM    6  H   UNK N   1      33.934  17.520  10.061  0.00  0.00     0.163 HD
ENDBRANCH   1   2
BRANCH   1   7
HETATM    7  C   UNK N   1      33.825  17.500   7.143  0.00  0.00     0.255 C 
HETATM    8  O   UNK N   1      34.721  18.306   7.345  0.00  0.00    -0.286 OA
BRANCH   7   9
HETATM    9  C   UNK N   1      33.674  16.907   5.766  0.00  0.00     0.453 C 
HETATM   10  F   UNK N   1      34.798  16.190   5.392  0.00  0.00    -0.163 F 
HETATM   11  F   UNK N   1      33.460  17.914   4.844  0.00  0.00    -0.163 F 
HETATM   12  F   UNK N   1      32.586  16.054   5.763  0.00  0.00    -0.163 F 
ENDBRANCH   7   9
ENDBRANCH   1   7
BRANCH   1  13
HETATM   13  C   UNK N   1      31.961  18.313   8.606  0.00  0.00     0.072 C 
BRANCH  13  14
HETATM   14  C   UNK N   1      30.517  17.949   8.447  0.00  0.00    -0.056 A 
HETATM   15  C   UNK N   1      30.068  17.349   7.264  0.00  0.00     0.007 A 
HETATM   16  C   UNK N   1      28.716  17.025   7.112  0.00  0.00     0.001 A 
HETATM   17  C   UNK N   1      27.810  17.305   8.139  0.00  0.00     0.000 A 
HETATM   18  C   UNK N   1      28.256  17.902   9.322  0.00  0.00     0.001 A 
HETATM   19  C   UNK N   1      29.608  18.222   9.477  0.00  0.00     0.007 A 
ENDBRANCH  13  14
ENDBRANCH   1  13
TORSDOF 5
ENDMDL
MODEL 3
REMARK VINA RESULT:      -5.6     15.531     17.519
REMARK  5 active torsions:
REMARK  status: ('A' for Active; 'I' for Inactive)
REMARK       I    between atoms: C_2  and  N_4 
REMARK    1  A    between atoms: C_5  and  N_4 
REMARK    2  A    between atoms: C_5  and  C_6 
REMARK    3  A    between atoms: C_5  and  C_8 
REMARK    4  A    between atoms: C_6  and  C_7 
REMARK    5  A    between atoms: C_8  and  C_13 
ROOT
HETATM    1  C   UNK N   1      33.405  17.072   8.369  0.00  0.00     0.168 C 
ENDROOT
BRANCH   1   2
HETATM    2  N   UNK N   1      32.318  17.884   8.881  0.00  0.00    -0.349 N 
HETATM    3  C   UNK N   1      31.020  17.722   8.523  0.00  0.00     0.214 C 
HETATM    4  C   UNK N   1      29.978  18.599   9.124  0.00  0.00     0.117 C 
HETATM    5  O   UNK N   1      30.692  16.857   7.724  0.00  0.00    -0.274 OA
HETATM    6  H   UNK N   1      32.535  18.595   9.527  0.00  0.00     0.163 HD
ENDBRANCH   1   2
BRANCH   1   7
HETATM    7  C   UNK N   1      34.431  16.808   9.454  0.00  0.00     0.255 C 
HETATM    8  O   UNK N   1      35.253  17.673   9.719  0.00  0.00    -0.286 OA
BRANCH   7   9
HETATM    9  C   UNK N   1      34.479  15.502  10.205  0.00  0.00     0.453 C 
HETATM   10  F   UNK N   1      34.834  15.687  11.530  0.00  0.00    -0.163 F 
HETATM   11  F   UNK N   1      35.396  14.655   9.612  0.00  0.00    -0.163 F 
HETATM   12  F   UNK N   1      33.228  14.914  10.162  0.00  0.00    -0.163 F 
ENDBRANCH   7   9
ENDBRANCH   1   7
BRANCH   1  13
HETATM   13  C   UNK N   1      34.049  17.798   7.185  0.00  0.00     0.072 C 
BRANCH  13  14
HETATM   14  C   UNK N   1      33.777  17.104   5.886  0.00  0.00    -0.056 A 
HETATM   15  C   UNK N   1      34.289  15.822   5.653  0.00  0.00     0.007 A 
HETATM   16  C   UNK N   1      34.048  15.182   4.433  0.00  0.00     0.001 A 
HETATM   17  C   UNK N   1      33.298  15.825   3.442  0.00  0.00     0.000 A 
HETATM   18  C   UNK N   1      32.784  17.103   3.675  0.00  0.00     0.001 A 
HETATM   19  C   UNK N   1      33.021  17.742   4.895  0.00  0.00     0.007 A 
ENDBRANCH  13  14
ENDBRANCH   1  13
TORSDOF 5
ENDMDL
MODEL 4
REMARK VINA RESULT:      -5.5      1.977      2.492
REMARK  5 active torsions:
REMARK  status: ('A' for Active; 'I' for Inactive)
REMARK       I    between atoms: C_2  and  N_4 
REMARK    1  A    between atoms: C_5  and  N_4 
REMARK    2  A    between atoms: C_5  and  C_6 
REMARK    3  A    between atoms: C_5  and  C_8 
REMARK    4  A    between atoms: C_6  and  C_7 
REMARK    5  A    between atoms: C_8  and  C_13 
ROOT
HETATM    1  C   UNK N   1      25.990  25.492  -6.561  0.00  0.00     0.168 C 
ENDROOT
BRANCH   1   2
HETATM    2  N   UNK N   1      25.368  25.157  -7.827  0.00  0.00    -0.349 N 
HETATM    3  C   UNK N   1      25.792  25.629  -9.026  0.00  0.00     0.214 C 
HETATM    4  C   UNK N   1      25.093  25.205 -10.270  0.00  0.00     0.117 C 
HETATM    5  O   UNK N   1      26.749  26.385  -9.100  0.00  0.00    -0.274 OA
HETATM    6  H   UNK N   1      24.592  24.551  -7.816  0.00  0.00     0.163 HD
ENDBRANCH   1   2
BRANCH   1   7
HETATM    7  C   UNK N   1      26.177  24.250  -5.712  0.00  0.00     0.255 C 
HETATM    8  O   UNK N   1      25.441  23.290  -5.891  0.00  0.00    -0.286 OA
BRANCH   7   9
HETATM    9  C   UNK N   1      27.234  24.168  -4.640  0.00  0.00     0.453 C 
HETATM   10  F   UNK N   1      28.138  23.151  -4.890  0.00  0.00    -0.163 F 
HETATM   11  F   UNK N   1      26.638  23.943  -3.413  0.00  0.00    -0.163 F 
HETATM   12  F   UNK N   1      27.920  25.368  -4.596  0.00  0.00    -0.163 F 
ENDBRANCH   7   9
ENDBRANCH   1   7
BRANCH   1  13
HETATM   13  C   UNK N   1      25.110  26.513  -5.834  0.00  0.00     0.072 C 
BRANCH  13  14
HETATM   14  C   UNK N   1      25.904  27.679  -5.330  0.00  0.00    -0.056 A 
HETATM   15  C   UNK N   1      25.595  28.259  -4.093  0.00  0.00     0.007 A 
HETATM   16  C   UNK N   1      26.327  29.358  -3.632  0.00  0.00     0.001 A 
HETATM   17  C   UNK N   1      27.365  29.882  -4.409  0.00  0.00     0.000 A 
HETATM   18  C   UNK N   1      27.677  29.303  -5.642  0.00  0.00     0.001 A 
HETATM   19  C   UNK N   1      26.948  28.202  -6.102  0.00  0.00     0.007 A 
ENDBRANCH  13  14
ENDBRANCH   1  13
TORSDOF 5
ENDMDL
MODEL 5
REMARK VINA RESULT:      -5.5     14.539     16.019
REMARK  5 active torsions:
REMARK  status: ('A' for Active; 'I' for Inactive)
REMARK       I    between atoms: C_2  and  N_4 
REMARK    1  A    between atoms: C_5  and  N_4 
REMARK    2  A    between atoms: C_5  and  C_6 
REMARK    3  A    between atoms: C_5  and  C_8 
REMARK    4  A    between atoms: C_6  and  C_7 
REMARK    5  A    between atoms: C_8  and  C_13 
ROOT
HETATM    1  C   UNK N   1      32.663  17.027   6.448  0.00  0.00     0.168 C 
ENDROOT
BRANCH   1   2
HETATM    2  N   UNK N   1      32.877  16.323   5.199  0.00  0.00    -0.349 N 
HETATM    3  C   UNK N   1      32.599  16.847   3.979  0.00  0.00     0.214 C 
HETATM    4  C   UNK N   1      32.876  16.044   2.756  0.00  0.00     0.117 C 
HETATM    5  O   UNK N   1      32.138  17.973   3.869  0.00  0.00    -0.274 OA
HETATM    6  H   UNK N   1      33.247  15.411   5.238  0.00  0.00     0.163 HD
ENDBRANCH   1   2
BRANCH   1   7
HETATM    7  C   UNK N   1      33.975  17.223   7.183  0.00  0.00     0.255 C 
HETATM    8  O   UNK N   1      34.961  16.602   6.815  0.00  0.00    -0.286 OA
BRANCH   7   9
HETATM    9  C   UNK N   1      34.095  18.148   8.367  0.00  0.00     0.453 C 
HETATM   10  F   UNK N   1      35.284  18.856   8.344  0.00  0.00    -0.163 F 
HETATM   11  F   UNK N   1      34.034  17.418   9.539  0.00  0.00    -0.163 F 
HETATM   12  F   UNK N   1      33.045  19.048   8.340  0.00  0.00    -0.163 F 
ENDBRANCH   7   9
ENDBRANCH   1   7
BRANCH   1  13
HETATM   13  C   UNK N   1      31.681  16.224   7.305  0.00  0.00     0.072 C 
BRANCH  13  14
HETATM   14  C   UNK N   1      30.512  17.052   7.743  0.00  0.00    -0.056 A 
HETATM   15  C   UNK N   1      30.346  17.377   9.094  0.00  0.00     0.007 A 
HETATM   16  C   UNK N   1      29.245  18.136   9.503  0.00  0.00     0.001 A 
HETATM   17  C   UNK N   1      28.304  18.567   8.561  0.00  0.00     0.000 A 
HETATM   18  C   UNK N   1      28.470  18.246   7.211  0.00  0.00     0.001 A 
HETATM   19  C   UNK N   1      29.572  17.491   6.801  0.00  0.00     0.007 A 
ENDBRANCH  13  14
ENDBRANCH   1  13
TORSDOF 5
ENDMDL
MODEL 6
REMARK VINA RESULT:      -5.3     23.012     25.193
REMARK  5 active torsions:
REMARK  status: ('A' for Active; 'I' for Inactive)
REMARK       I    between atoms: C_2  and  N_4 
REMARK    1  A    between atoms: C_5  and  N_4 
REMARK    2  A    between atoms: C_5  and  C_6 
REMARK    3  A    between atoms: C_5  and  C_8 
REMARK    4  A    between atoms: C_6  and  C_7 
REMARK    5  A    between atoms: C_8  and  C_13 
ROOT
HETATM    1  C   UNK N   1      36.112  13.490  13.940  0.00  0.00     0.168 C 
ENDROOT
BRANCH   1   2
HETATM    2  N   UNK N   1      36.414  14.581  13.034  0.00  0.00    -0.349 N 
HETATM    3  C   UNK N   1      35.584  14.993  12.043  0.00  0.00     0.214 C 
HETATM    4  C   UNK N   1      35.982  16.138  11.180  0.00  0.00     0.117 C 
HETATM    5  O   UNK N   1      34.506  14.445  11.859  0.00  0.00    -0.274 OA
HETATM    6  H   UNK N   1      37.272  15.052  13.144  0.00  0.00     0.163 HD
ENDBRANCH   1   2
BRANCH   1   7
HETATM    7  C   UNK N   1      36.427  13.882  15.371  0.00  0.00     0.255 C 
HETATM    8  O   UNK N   1      37.382  14.612  15.592  0.00  0.00    -0.286 OA
BRANCH   7   9
HETATM    9  C   UNK N   1      35.606  13.383  16.533  0.00  0.00     0.453 C 
HETATM   10  F   UNK N   1      35.996  12.115  16.927  0.00  0.00    -0.163 F 
HETATM   11  F   UNK N   1      34.270  13.349  16.180  0.00  0.00    -0.163 F 
HETATM   12  F   UNK N   1      35.770  14.247  17.600  0.00  0.00    -0.163 F 
ENDBRANCH   7   9
ENDBRANCH   1   7
BRANCH   1  13
HETATM   13  C   UNK N   1      36.931  12.264  13.526  0.00  0.00     0.072 C 
BRANCH  13  14
HETATM   14  C   UNK N   1      36.063  11.164  12.997  0.00  0.00    -0.056 A 
HETATM   15  C   UNK N   1      34.680  11.193  13.213  0.00  0.00     0.007 A 
HETATM   16  C   UNK N   1      33.874  10.156  12.732  0.00  0.00     0.001 A 
HETATM   17  C   UNK N   1      34.450   9.086  12.039  0.00  0.00     0.000 A 
HETATM   18  C   UNK N   1      35.830   9.057  11.820  0.00  0.00     0.001 A 
HETATM   19  C   UNK N   1      36.636  10.095  12.297  0.00  0.00     0.007 A 
ENDBRANCH  13  14
ENDBRANCH   1  13
TORSDOF 5
ENDMDL
MODEL 7
REMARK VINA RESULT:      -5.2     11.756     13.310
REMARK  5 active torsions:
REMARK  status: ('A' for Active; 'I' for Inactive)
REMARK       I    between atoms: C_2  and  N_4 
REMARK    1  A    between atoms: C_5  and  N_4 
REMARK    2  A    between atoms: C_5  and  C_6 
REMARK    3  A    between atoms: C_5  and  C_8 
REMARK    4  A    between atoms: C_6  and  C_7 
REMARK    5  A    between atoms: C_8  and  C_13 
ROOT
HETATM    1  C   UNK N   1      21.693  17.892   4.580  0.00  0.00     0.168 C 
ENDROOT
BRANCH   1   2
HETATM    2  N   UNK N   1      21.289  17.079   5.711  0.00  0.00    -0.349 N 
HETATM    3  C   UNK N   1      20.923  17.587   6.914  0.00  0.00     0.214 C 
HETATM    4  C   UNK N   1      20.506  16.663   8.004  0.00  0.00     0.117 C 
HETATM    5  O   UNK N   1      20.918  18.793   7.111  0.00  0.00    -0.274 OA
HETATM    6  H   UNK N   1      21.279  16.101   5.599  0.00  0.00     0.163 HD
ENDBRANCH   1   2
BRANCH   1   7
HETATM    7  C   UNK N   1      20.569  17.994   3.567  0.00  0.00     0.255 C 
HETATM    8  O   UNK N   1      19.992  16.976   3.214  0.00  0.00    -0.286 OA
BRANCH   7   9
HETATM    9  C   UNK N   1      20.152  19.314   2.969  0.00  0.00     0.453 C 
HETATM   10  F   UNK N   1      20.813  19.567   1.779  0.00  0.00    -0.163 F 
HETATM   11  F   UNK N   1      20.425  20.336   3.857  0.00  0.00    -0.163 F 
HETATM   12  F   UNK N   1      18.792  19.282   2.720  0.00  0.00    -0.163 F 
ENDBRANCH   7   9
ENDBRANCH   1   7
BRANCH   1  13
HETATM   13  C   UNK N   1      22.936  17.266   3.942  0.00  0.00     0.072 C 
BRANCH  13  14
HETATM   14  C   UNK N   1      24.056  18.252   3.814  0.00  0.00    -0.056 A 
HETATM   15  C   UNK N   1      25.383  17.836   3.984  0.00  0.00     0.007 A 
HETATM   16  C   UNK N   1      26.426  18.761   3.881  0.00  0.00     0.001 A 
HETATM   17  C   UNK N   1      26.146  20.105   3.613  0.00  0.00     0.000 A 
HETATM   18  C   UNK N   1      24.823  20.521   3.440  0.00  0.00     0.001 A 
HETATM   19  C   UNK N   1      23.779  19.597   3.539  0.00  0.00     0.007 A 
ENDBRANCH  13  14
ENDBRANCH   1  13
TORSDOF 5
ENDMDL
MODEL 8
REMARK VINA RESULT:      -5.1      2.605      4.768
REMARK  5 active torsions:
REMARK  status: ('A' for Active; 'I' for Inactive)
REMARK       I    between atoms: C_2  and  N_4 
REMARK    1  A    between atoms: C_5  and  N_4 
REMARK    2  A    between atoms: C_5  and  C_6 
REMARK    3  A    between atoms: C_5  and  C_8 
REMARK    4  A    between atoms: C_6  and  C_7 
REMARK    5  A    between atoms: C_8  and  C_13 
ROOT
HETATM    1  C   UNK N   1      26.970  25.023  -4.998  0.00  0.00     0.168 C 
ENDROOT
BRANCH   1   2
HETATM    2  N   UNK N   1      26.606  25.027  -6.401  0.00  0.00    -0.349 N 
HETATM    3  C   UNK N   1      25.841  24.071  -6.986  0.00  0.00     0.214 C 
HETATM    4  C   UNK N   1      25.509  24.181  -8.433  0.00  0.00     0.117 C 
HETATM    5  O   UNK N   1      25.408  23.130  -6.338  0.00  0.00    -0.274 OA
HETATM    6  H   UNK N   1      26.933  25.766  -6.963  0.00  0.00     0.163 HD
ENDBRANCH   1   2
BRANCH   1   7
HETATM    7  C   UNK N   1      26.254  26.136  -4.258  0.00  0.00     0.255 C 
HETATM    8  O   UNK N   1      26.269  26.144  -3.035  0.00  0.00    -0.286 OA
BRANCH   7   9
HETATM    9  C   UNK N   1      25.508  27.226  -4.984  0.00  0.00     0.453 C 
HETATM   10  F   UNK N   1      25.151  28.257  -4.132  0.00  0.00    -0.163 F 
HETATM   11  F   UNK N   1      24.363  26.706  -5.558  0.00  0.00    -0.163 F 
HETATM   12  F   UNK N   1      26.320  27.737  -5.980  0.00  0.00    -0.163 F 
ENDBRANCH   7   9
ENDBRANCH   1   7
BRANCH   1  13
HETATM   13  C   UNK N   1      28.487  25.190  -4.881  0.00  0.00     0.072 C 
BRANCH  13  14
HETATM   14  C   UNK N   1      29.157  23.928  -4.432  0.00  0.00    -0.056 A 
HETATM   15  C   UNK N   1      29.400  22.895  -5.346  0.00  0.00     0.007 A 
HETATM   16  C   UNK N   1      30.011  21.712  -4.920  0.00  0.00     0.001 A 
HETATM   17  C   UNK N   1      30.375  21.555  -3.579  0.00  0.00     0.000 A 
HETATM   18  C   UNK N   1      30.135  22.586  -2.665  0.00  0.00     0.001 A 
HETATM   19  C   UNK N   1      29.529  23.771  -3.091  0.00  0.00     0.007 A 
ENDBRANCH  13  14
ENDBRANCH   1  13
TORSDOF 5
ENDMDL
MODEL 9
REMARK VINA RESULT:      -5.0     25.461     27.525
REMARK  5 active torsions:
REMARK  status: ('A' for Active; 'I' for Inactive)
REMARK       I    between atoms: C_2  and  N_4 
REMARK    1  A    between atoms: C_5  and  N_4 
REMARK    2  A    between atoms: C_5  and  C_6 
REMARK    3  A    between atoms: C_5  and  C_8 
REMARK    4  A    between atoms: C_6  and  C_7 
REMARK    5  A    between atoms: C_8  and  C_13 
ROOT
HETATM    1  C   UNK N   1      35.665  11.274  17.059  0.00  0.00     0.168 C 
ENDROOT
BRANCH   1   2
HETATM    2  N   UNK N   1      35.708  11.244  18.508  0.00  0.00    -0.349 N 
HETATM    3  C   UNK N   1      36.371  10.302  19.224  0.00  0.00     0.214 C 
HETATM    4  C   UNK N   1      36.367  10.374  20.711  0.00  0.00     0.117 C 
HETATM    5  O   UNK N   1      36.983   9.403  18.666  0.00  0.00    -0.274 OA
HETATM    6  H   UNK N   1      35.228  11.948  19.001  0.00  0.00     0.163 HD
ENDBRANCH   1   2
BRANCH   1   7
HETATM    7  C   UNK N   1      35.504  12.697  16.559  0.00  0.00     0.255 C 
HETATM    8  O   UNK N   1      34.667  13.419  17.080  0.00  0.00    -0.286 OA
BRANCH   7   9
HETATM    9  C   UNK N   1      36.334  13.243  15.425  0.00  0.00     0.453 C 
HETATM   10  F   UNK N   1      37.094  14.328  15.825  0.00  0.00    -0.163 F 
HETATM   11  F   UNK N   1      35.509  13.634  14.388  0.00  0.00    -0.163 F 
HETATM   12  F   UNK N   1      37.185  12.250  14.976  0.00  0.00    -0.163 F 
ENDBRANCH   7   9
ENDBRANCH   1   7
BRANCH   1  13
HETATM   13  C   UNK N   1      34.501  10.402  16.581  0.00  0.00     0.072 C 
BRANCH  13  14
HETATM   14  C   UNK N   1      34.621  10.053  15.129  0.00  0.00    -0.056 A 
HETATM   15  C   UNK N   1      33.788  10.668  14.186  0.00  0.00     0.007 A 
HETATM   16  C   UNK N   1      33.891  10.329  12.833  0.00  0.00     0.001 A 
HETATM   17  C   UNK N   1      34.823   9.371  12.421  0.00  0.00     0.000 A 
HETATM   18  C   UNK N   1      35.657   8.758  13.361  0.00  0.00     0.001 A 
HETATM   19  C   UNK N   1      35.558   9.099  14.713  0.00  0.00     0.007 A 
ENDBRANCH  13  14
ENDBRANCH   1  13
TORSDOF 5
ENDMDL
