MODEL 1
REMARK VINA RESULT:      -5.2      0.000      0.000
REMARK  4 active torsions:
REMARK  status: ('A' for Active; 'I' for Inactive)
REMARK    1  A    between atoms: C_3  and  C_7 
REMARK    2  A    between atoms: C_7  and  O_8 
REMARK    3  A    between atoms: C_7  and  C_9 
REMARK    4  A    between atoms: C_9  and  O_12 
ROOT
HETATM    1  C   UNK N   1      33.382  17.102   8.362  0.00  0.00     0.166 C 
HETATM    2  C   UNK N   1      33.743  15.697   7.905  0.00  0.00     0.063 C 
ENDROOT
BRANCH   1   3
HETATM    3  C   UNK N   1      31.903  17.330   8.092  0.00  0.00    -0.014 A 
HETATM    4  C   UNK N   1      31.241  16.608   7.084  0.00  0.00     0.011 A 
HETATM    5  C   UNK N   1      29.874  16.797   6.859  0.00  0.00     0.001 A 
HETATM    6  C   UNK N   1      29.151  17.696   7.646  0.00  0.00     0.000 A 
HETATM    7  C   UNK N   1      29.797  18.417   8.654  0.00  0.00     0.001 A 
HETATM    8  C   UNK N   1      31.166  18.237   8.874  0.00  0.00     0.011 A 
ENDBRANCH   1   3
BRANCH   1   9
HETATM    9  O   UNK N   1      33.637  17.192   9.735  0.00  0.00    -0.374 OA
HETATM   10  H   UNK N   1      33.065  16.730  10.366  0.00  0.00     0.211 HD
ENDBRANCH   1   9
BRANCH   1  11
HETATM   11  C   UNK N   1      34.280  18.090   7.649  0.00  0.00     0.180 C 
HETATM   12  O   UNK N   1      34.413  18.022   6.436  0.00  0.00    -0.648 OA
BRANCH  11  13
HETATM   13  O   UNK N   1      34.941  19.048   8.330  0.00  0.00    -0.774 OA
HETATM   14  H   UNK N   1      34.857  19.797   8.886  0.00  0.00     0.167 HD
ENDBRANCH  11  13
ENDBRANCH   1  11
TORSDOF 4
ENDMDL
MODEL 2
REMARK VINA RESULT:      -5.1      8.184      9.626
REMARK  4 active torsions:
REMARK  status: ('A' for Active; 'I' for Inactive)
REMARK    1  A    between atoms: C_3  and  C_7 
REMARK    2  A    between atoms: C_7  and  O_8 
REMARK    3  A    between atoms: C_7  and  C_9 
REMARK    4  A    between atoms: C_9  and  O_12 
ROOT
HETATM    1  C   UNK N   1      36.511  12.893  14.491  0.00  0.00     0.166 C 
HETATM    2  C   UNK N   1      35.559  11.728  14.716  0.00  0.00     0.063 C 
ENDROOT
BRANCH   1   3
HETATM    3  C   UNK N   1      36.424  13.823  15.691  0.00  0.00    -0.014 A 
HETATM    4  C   UNK N   1      35.578  13.519  16.771  0.00  0.00     0.011 A 
HETATM    5  C   UNK N   1      35.523  14.360  17.887  0.00  0.00     0.001 A 
HETATM    6  C   UNK N   1      36.322  15.504  17.942  0.00  0.00     0.000 A 
HETATM    7  C   UNK N   1      37.171  15.815  16.876  0.00  0.00     0.001 A 
HETATM    8  C   UNK N   1      37.219  14.981  15.755  0.00  0.00     0.011 A 
ENDBRANCH   1   3
BRANCH   1   9
HETATM    9  O   UNK N   1      37.807  12.378  14.377  0.00  0.00    -0.374 OA
HETATM   10  H   UNK N   1      38.105  11.676  14.976  0.00  0.00     0.211 HD
ENDBRANCH   1   9
BRANCH   1  11
HETATM   11  C   UNK N   1      36.154  13.566  13.183  0.00  0.00     0.180 C 
HETATM   12  O   UNK N   1      34.985  13.820  12.933  0.00  0.00    -0.648 OA
BRANCH  11  13
HETATM   13  O   UNK N   1      37.105  13.891  12.285  0.00  0.00    -0.774 OA
HETATM   14  H   UNK N   1      37.327  14.444  11.563  0.00  0.00     0.167 HD
ENDBRANCH  11  13
ENDBRANCH   1  11
TORSDOF 4
ENDMDL
MODEL 3
REMARK VINA RESULT:      -5.0      9.334     10.733
REMARK  4 active torsions:
REMARK  status: ('A' for Active; 'I' for Inactive)
REMARK    1  A    between atoms: C_3  and  C_7 
REMARK    2  A    between atoms: C_7  and  O_8 
REMARK    3  A    between atoms: C_7  and  C_9 
REMARK    4  A    between atoms: C_9  and  O_12 
ROOT
HETATM    1  C   UNK N   1      35.341  11.699  15.123  0.00  0.00     0.166 C 
HETATM    2  C   UNK N   1      33.953  11.205  14.747  0.00  0.00     0.063 C 
ENDROOT
BRANCH   1   3
HETATM    3  C   UNK N   1      35.351  12.024  16.608  0.00  0.00    -0.014 A 
HETATM    4  C   UNK N   1      35.181  13.347  17.051  0.00  0.00     0.011 A 
HETATM    5  C   UNK N   1      35.158  13.639  18.418  0.00  0.00     0.001 A 
HETATM    6  C   UNK N   1      35.292  12.613  19.357  0.00  0.00     0.000 A 
HETATM    7  C   UNK N   1      35.458  11.293  18.928  0.00  0.00     0.001 A 
HETATM    8  C   UNK N   1      35.490  11.000  17.562  0.00  0.00     0.011 A 
ENDBRANCH   1   3
BRANCH   1   9
HETATM    9  O   UNK N   1      36.255  10.675  14.851  0.00  0.00    -0.374 OA
HETATM   10  H   UNK N   1      36.153   9.808  15.274  0.00  0.00     0.211 HD
ENDBRANCH   1   9
BRANCH   1  11
HETATM   11  C   UNK N   1      35.688  12.885  14.248  0.00  0.00     0.180 C 
HETATM   12  O   UNK N   1      34.804  13.462  13.632  0.00  0.00    -0.648 OA
BRANCH  11  13
HETATM   13  O   UNK N   1      36.959  13.317  14.132  0.00  0.00    -0.774 OA
HETATM   14  H   UNK N   1      37.863  13.070  14.145  0.00  0.00     0.167 HD
ENDBRANCH  11  13
ENDBRANCH   1  11
TORSDOF 4
ENDMDL
MODEL 4
REMARK VINA RESULT:      -4.9     11.224     12.924
REMARK  4 active torsions:
REMARK  status: ('A' for Active; 'I' for Inactive)
REMARK    1  A    between atoms: C_3  and  C_7 
REMARK    2  A    between atoms: C_7  and  O_8 
REMARK    3  A    between atoms: C_7  and  C_9 
REMARK    4  A    between atoms: C_9  and  O_12 
ROOT
HETATM    1  C   UNK N   1      43.875  22.842   3.355  0.00  0.00     0.166 C 
HETATM    2  C   UNK N   1      44.844  21.897   4.050  0.00  0.00     0.063 C 
ENDROOT
BRANCH   1   3
HETATM    3  C   UNK N   1      42.618  22.064   2.998  0.00  0.00    -0.014 A 
HETATM    4  C   UNK N   1      41.657  22.619   2.136  0.00  0.00     0.011 A 
HETATM    5  C   UNK N   1      40.517  21.890   1.784  0.00  0.00     0.001 A 
HETATM    6  C   UNK N   1      40.332  20.596   2.277  0.00  0.00     0.000 A 
HETATM    7  C   UNK N   1      41.282  20.033   3.132  0.00  0.00     0.001 A 
HETATM    8  C   UNK N   1      42.418  20.764   3.493  0.00  0.00     0.011 A 
ENDBRANCH   1   3
BRANCH   1   9
HETATM    9  O   UNK N   1      43.562  23.875   4.246  0.00  0.00    -0.374 OA
HETATM   10  H   UNK N   1      42.656  24.219   4.290  0.00  0.00     0.211 HD
ENDBRANCH   1   9
BRANCH   1  11
HETATM   11  C   UNK N   1      44.566  23.449   2.154  0.00  0.00     0.180 C 
HETATM   12  O   UNK N   1      44.570  24.663   2.007  0.00  0.00    -0.648 OA
BRANCH  11  13
HETATM   13  O   UNK N   1      45.178  22.675   1.236  0.00  0.00    -0.774 OA
HETATM   14  H   UNK N   1      45.772  22.659   0.512  0.00  0.00     0.167 HD
ENDBRANCH  11  13
ENDBRANCH   1  11
TORSDOF 4
ENDMDL
MODEL 5
REMARK VINA RESULT:      -4.8      5.404      7.522
REMARK  4 active torsions:
REMARK  status: ('A' for Active; 'I' for Inactive)
REMARK    1  A    between atoms: C_3  and  C_7 
REMARK    2  A    between atoms: C_7  and  O_8 
REMARK    3  A    between atoms: C_7  and  C_9 
REMARK    4  A    between atoms: C_9  and  O_12 
ROOT
HETATM    1  C   UNK N   1      36.202  14.828  10.994  0.00  0.00     0.166 C 
HETATM    2  C   UNK N   1      36.082  13.860   9.827  0.00  0.00     0.063 C 
ENDROOT
BRANCH   1   3
HETATM    3  C   UNK N   1      36.495  14.028  12.254  0.00  0.00    -0.014 A 
HETATM    4  C   UNK N   1      36.300  14.598  13.524  0.00  0.00     0.011 A 
HETATM    5  C   UNK N   1      36.541  13.851  14.681  0.00  0.00     0.001 A 
HETATM    6  C   UNK N   1      36.964  12.523  14.582  0.00  0.00     0.000 A 
HETATM    7  C   UNK N   1      37.158  11.944  13.325  0.00  0.00     0.001 A 
HETATM    8  C   UNK N   1      36.928  12.693  12.168  0.00  0.00     0.011 A 
ENDBRANCH   1   3
BRANCH   1   9
HETATM    9  O   UNK N   1      37.260  15.703  10.727  0.00  0.00    -0.374 OA
HETATM   10  H   UNK N   1      37.836  16.003  11.447  0.00  0.00     0.211 HD
ENDBRANCH   1   9
BRANCH   1  11
HETATM   11  C   UNK N   1      34.929  15.641  11.084  0.00  0.00     0.180 C 
HETATM   12  O   UNK N   1      34.980  16.858  10.981  0.00  0.00    -0.648 OA
BRANCH  11  13
HETATM   13  O   UNK N   1      33.735  15.048  11.278  0.00  0.00    -0.774 OA
HETATM   14  H   UNK N   1      32.887  14.882  10.914  0.00  0.00     0.167 HD
ENDBRANCH  11  13
ENDBRANCH   1  11
TORSDOF 4
ENDMDL
MODEL 6
REMARK VINA RESULT:      -4.8      3.977      5.333
REMARK  4 active torsions:
REMARK  status: ('A' for Active; 'I' for Inactive)
REMARK    1  A    between atoms: C_3  and  C_7 
REMARK    2  A    between atoms: C_7  and  O_8 
REMARK    3  A    between atoms: C_7  and  C_9 
REMARK    4  A    between atoms: C_9  and  O_12 
ROOT
HETATM    1  C   UNK N   1      28.484  17.771   7.251  0.00  0.00     0.166 C 
HETATM    2  C   UNK N   1      29.896  17.391   6.833  0.00  0.00     0.063 C 
ENDROOT
BRANCH   1   3
HETATM    3  C   UNK N   1      27.966  18.827   6.288  0.00  0.00    -0.014 A 
HETATM    4  C   UNK N   1      27.869  18.553   4.912  0.00  0.00     0.011 A 
HETATM    5  C   UNK N   1      27.363  19.515   4.032  0.00  0.00     0.001 A 
HETATM    6  C   UNK N   1      26.935  20.752   4.517  0.00  0.00     0.000 A 
HETATM    7  C   UNK N   1      27.022  21.035   5.883  0.00  0.00     0.001 A 
HETATM    8  C   UNK N   1      27.537  20.079   6.763  0.00  0.00     0.011 A 
ENDBRANCH   1   3
BRANCH   1   9
HETATM    9  O   UNK N   1      27.686  16.624   7.179  0.00  0.00    -0.374 OA
HETATM   10  H   UNK N   1      27.344  16.324   6.323  0.00  0.00     0.211 HD
ENDBRANCH   1   9
BRANCH   1  11
HETATM   11  C   UNK N   1      28.513  18.236   8.691  0.00  0.00     0.180 C 
HETATM   12  O   UNK N   1      29.532  18.733   9.147  0.00  0.00    -0.648 OA
BRANCH  11  13
HETATM   13  O   UNK N   1      27.431  18.111   9.486  0.00  0.00    -0.774 OA
HETATM   14  H   UNK N   1      26.533  17.848   9.531  0.00  0.00     0.167 HD
ENDBRANCH  11  13
ENDBRANCH   1  11
TORSDOF 4
ENDMDL
MODEL 7
REMARK VINA RESULT:      -4.7     16.902     17.995
REMARK  4 active torsions:
REMARK  status: ('A' for Active; 'I' for Inactive)
REMARK    1  A    between atoms: C_3  and  C_7 
REMARK    2  A    between atoms: C_7  and  O_8 
REMARK    3  A    between atoms: C_7  and  C_9 
REMARK    4  A    between atoms: C_9  and  O_12 
ROOT
HETATM    1  C   UNK N   1      25.663  27.453  -4.640  0.00  0.00     0.166 C 
HETATM    2  C   UNK N   1      24.497  27.287  -5.603  0.00  0.00     0.063 C 
ENDROOT
BRANCH   1   3
HETATM    3  C   UNK N   1      26.740  28.277  -5.327  0.00  0.00    -0.014 A 
HETATM    4  C   UNK N   1      27.258  27.881  -6.572  0.00  0.00     0.011 A 
HETATM    5  C   UNK N   1      28.226  28.657  -7.216  0.00  0.00     0.001 A 
HETATM    6  C   UNK N   1      28.677  29.842  -6.631  0.00  0.00     0.000 A 
HETATM    7  C   UNK N   1      28.168  30.248  -5.395  0.00  0.00     0.001 A 
HETATM    8  C   UNK N   1      27.207  29.469  -4.745  0.00  0.00     0.011 A 
ENDBRANCH   1   3
BRANCH   1   9
HETATM    9  O   UNK N   1      25.196  28.125  -3.505  0.00  0.00    -0.374 OA
HETATM   10  H   UNK N   1      25.118  29.092  -3.512  0.00  0.00     0.211 HD
ENDBRANCH   1   9
BRANCH   1  11
HETATM   11  C   UNK N   1      26.139  26.081  -4.213  0.00  0.00     0.180 C 
HETATM   12  O   UNK N   1      26.185  25.174  -5.031  0.00  0.00    -0.648 OA
BRANCH  11  13
HETATM   13  O   UNK N   1      26.513  25.838  -2.941  0.00  0.00    -0.774 OA
HETATM   14  H   UNK N   1      27.130  26.039  -2.266  0.00  0.00     0.167 HD
ENDBRANCH  11  13
ENDBRANCH   1  11
TORSDOF 4
ENDMDL
MODEL 8
REMARK VINA RESULT:      -4.7      2.342      3.403
REMARK  4 active torsions:
REMARK  status: ('A' for Active; 'I' for Inactive)
REMARK    1  A    between atoms: C_3  and  C_7 
REMARK    2  A    between atoms: C_7  and  O_8 
REMARK    3  A    between atoms: C_7  and  C_9 
REMARK    4  A    between atoms: C_9  and  O_12 
ROOT
HETATM    1  C   UNK N   1      34.413  15.359  10.021  0.00  0.00     0.166 C 
HETATM    2  C   UNK N   1      34.996  14.023   9.589  0.00  0.00     0.063 C 
ENDROOT
BRANCH   1   3
HETATM    3  C   UNK N   1      33.730  15.998   8.822  0.00  0.00    -0.014 A 
HETATM    4  C   UNK N   1      32.328  16.071   8.753  0.00  0.00     0.011 A 
HETATM    5  C   UNK N   1      31.703  16.686   7.664  0.00  0.00     0.001 A 
HETATM    6  C   UNK N   1      32.471  17.246   6.641  0.00  0.00     0.000 A 
HETATM    7  C   UNK N   1      33.865  17.184   6.700  0.00  0.00     0.001 A 
HETATM    8  C   UNK N   1      34.492  16.560   7.783  0.00  0.00     0.011 A 
ENDBRANCH   1   3
BRANCH   1   9
HETATM    9  O   UNK N   1      33.476  15.118  11.033  0.00  0.00    -0.374 OA
HETATM   10  H   UNK N   1      33.407  14.236  11.430  0.00  0.00     0.211 HD
ENDBRANCH   1   9
BRANCH   1  11
HETATM   11  C   UNK N   1      35.523  16.209  10.601  0.00  0.00     0.180 C 
HETATM   12  O   UNK N   1      35.271  17.328  11.024  0.00  0.00    -0.648 OA
BRANCH  11  13
HETATM   13  O   UNK N   1      36.791  15.755  10.659  0.00  0.00    -0.774 OA
HETATM   14  H   UNK N   1      37.359  15.094  11.003  0.00  0.00     0.167 HD
ENDBRANCH  11  13
ENDBRANCH   1  11
TORSDOF 4
ENDMDL
MODEL 9
REMARK VINA RESULT:      -4.6      6.826      8.363
REMARK  4 active torsions:
REMARK  status: ('A' for Active; 'I' for Inactive)
REMARK    1  A    between atoms: C_3  and  C_7 
REMARK    2  A    between atoms: C_7  and  O_8 
REMARK    3  A    between atoms: C_7  and  C_9 
REMARK    4  A    between atoms: C_9  and  O_12 
ROOT
HETATM    1  C   UNK N   1      36.005  13.404  12.641  0.00  0.00     0.166 C 
HETATM    2  C   UNK N   1      35.477  12.073  12.130  0.00  0.00     0.063 C 
ENDROOT
BRANCH   1   3
HETATM    3  C   UNK N   1      35.825  13.447  14.150  0.00  0.00    -0.014 A 
HETATM    4  C   UNK N   1      34.813  12.692  14.770  0.00  0.00     0.011 A 
HETATM    5  C   UNK N   1      34.669  12.708  16.160  0.00  0.00     0.001 A 
HETATM    6  C   UNK N   1      35.540  13.465  16.947  0.00  0.00     0.000 A 
HETATM    7  C   UNK N   1      36.552  14.216  16.343  0.00  0.00     0.001 A 
HETATM    8  C   UNK N   1      36.692  14.209  14.952  0.00  0.00     0.011 A 
ENDBRANCH   1   3
BRANCH   1   9
HETATM    9  O   UNK N   1      37.365  13.485  12.320  0.00  0.00    -0.374 OA
HETATM   10  H   UNK N   1      37.889  12.675  12.219  0.00  0.00     0.211 HD
ENDBRANCH   1   9
BRANCH   1  11
HETATM   11  C   UNK N   1      35.284  14.522  11.919  0.00  0.00     0.180 C 
HETATM   12  O   UNK N   1      35.885  15.549  11.639  0.00  0.00    -0.648 OA
BRANCH  11  13
HETATM   13  O   UNK N   1      33.984  14.409  11.581  0.00  0.00    -0.774 OA
HETATM   14  H   UNK N   1      33.328  14.638  10.953  0.00  0.00     0.167 HD
ENDBRANCH  11  13
ENDBRANCH   1  11
TORSDOF 4
ENDMDL
