MODEL 1
REMARK VINA RESULT:      -8.1      0.000      0.000
REMARK  4 active torsions:
REMARK  status: ('A' for Active; 'I' for Inactive)
REMARK    1  A    between atoms: N_5  and  C_14 
REMARK    2  A    between atoms: C_17  and  N_5 
REMARK       I    between atoms: N_9  and  C_13 
REMARK    3  A    between atoms: C_23  and  N_9 
REMARK    4  A    between atoms: C_20  and  C_18 
ROOT
HETATM    1  N   UNK N   1      33.276  15.009  10.114  0.00  0.00    -0.176 N 
ATOM      2  HN  UNK N   1      32.748  14.200  10.440  1.00  0.00     0.186 HD
HETATM    3  N   UNK N   1      33.293  17.114   9.091  0.00  0.00    -0.202 N 
ATOM      4  HN  UNK N   1      32.791  17.885   8.651  1.00  0.00     0.183 HD
HETATM    5  N   UNK N   1      31.201  15.898   9.414  0.00  0.00    -0.192 N 
HETATM    6  C   UNK N   1      32.607  16.023   9.534  0.00  0.00     0.684 A 
HETATM    7  C   UNK N   1      34.617  15.017  10.282  0.00  0.00     0.123 A 
HETATM    8  C   UNK N   1      35.348  16.120   9.839  0.00  0.00     0.067 A 
HETATM    9  C   UNK N   1      34.649  17.177   9.235  0.00  0.00     0.110 A 
HETATM   10  H   UNK N   1      30.818  15.064   9.770  0.00  0.00     0.184 HD
ENDROOT
BRANCH   5  11
HETATM   11  C   UNK N   1      30.271  16.803   8.853  0.00  0.00     0.051 A 
HETATM   12  C   UNK N   1      30.099  16.943   7.459  0.00  0.00     0.061 A 
HETATM   13  C   UNK N   1      29.151  17.868   7.025  0.00  0.00     0.062 A 
HETATM   14  N   UNK N   1      28.812  18.175   5.767  0.00  0.00    -0.350 N 
HETATM   15  C   UNK N   1      28.415  18.612   7.888  0.00  0.00     0.060 A 
HETATM   16  C   UNK N   1      27.850  19.127   5.901  0.00  0.00     0.181 A 
ATOM     17  HN  UNK N   1      29.190  17.785   4.904  1.00  0.00     0.166 HD
HETATM   18  N   UNK N   1      27.589  19.412   7.204  0.00  0.00    -0.351 N 
HETATM   19  H   UNK N   1      26.940  20.059   7.563  0.00  0.00     0.166 HD
HETATM   20  C   UNK N   1      28.553  18.505   9.265  0.00  0.00     0.034 A 
HETATM   21  C   UNK N   1      29.497  17.584   9.744  0.00  0.00     0.032 A 
ENDBRANCH   5  11
BRANCH   7  22
HETATM   22  N   UNK N   1      35.254  13.906  10.904  0.00  0.00    -0.327 N 
HETATM   23  H   UNK N   1      35.421  13.090  10.378  0.00  0.00     0.169 HD
BRANCH  22  24
HETATM   24  C   UNK N   1      35.658  13.950  12.273  0.00  0.00     0.123 A 
HETATM   25  N   UNK N   1      36.489  14.880  12.781  0.00  0.00    -0.285 N 
HETATM   26  N   UNK N   1      36.656  14.638  14.067  0.00  0.00    -0.303 N 
HETATM   27  H   UNK N   1      36.904  15.616  12.278  0.00  0.00     0.188 HD
HETATM   28  C   UNK N   1      35.935  13.553  14.396  0.00  0.00     0.033 A 
ATOM     29  HN  UNK N   1      37.236  15.182  14.705  1.00  0.00     0.186 HD
HETATM   30  C   UNK N   1      35.269  13.073  13.264  0.00  0.00     0.076 A 
BRANCH  28  31
HETATM   31  C   UNK N   1      35.928  13.032  15.809  0.00  0.00     0.037 A 
HETATM   32  C   UNK N   1      35.457  12.636  17.212  0.00  0.00     0.011 A 
HETATM   33  C   UNK N   1      34.473  13.213  16.279  0.00  0.00     0.011 A 
ENDBRANCH  28  31
ENDBRANCH  22  24
ENDBRANCH   7  22
TORSDOF 4
ENDMDL
MODEL 2
REMARK VINA RESULT:      -7.9      2.072      3.228
REMARK  4 active torsions:
REMARK  status: ('A' for Active; 'I' for Inactive)
REMARK    1  A    between atoms: N_5  and  C_14 
REMARK    2  A    between atoms: C_17  and  N_5 
REMARK       I    between atoms: N_9  and  C_13 
REMARK    3  A    between atoms: C_23  and  N_9 
REMARK    4  A    between atoms: C_20  and  C_18 
ROOT
HETATM    1  N   UNK N   1      35.440  15.384  11.384  0.00  0.00    -0.176 N 
ATOM      2  HN  UNK N   1      35.162  16.124  12.028  1.00  0.00     0.186 HD
HETATM    3  N   UNK N   1      35.300  14.423   9.254  0.00  0.00    -0.202 N 
ATOM      4  HN  UNK N   1      34.927  14.431   8.306  1.00  0.00     0.183 HD
HETATM    5  N   UNK N   1      34.059  16.455   9.791  0.00  0.00    -0.192 N 
HETATM    6  C   UNK N   1      34.943  15.401  10.132  0.00  0.00     0.684 A 
HETATM    7  C   UNK N   1      36.290  14.429  11.822  0.00  0.00     0.123 A 
HETATM    8  C   UNK N   1      36.675  13.413  10.947  0.00  0.00     0.067 A 
HETATM    9  C   UNK N   1      36.156  13.432   9.642  0.00  0.00     0.110 A 
HETATM   10  H   UNK N   1      33.876  17.103  10.509  0.00  0.00     0.184 HD
ENDROOT
BRANCH   5  11
HETATM   11  C   UNK N   1      33.405  16.706   8.564  0.00  0.00     0.051 A 
HETATM   12  C   UNK N   1      32.038  16.418   8.363  0.00  0.00     0.061 A 
HETATM   13  C   UNK N   1      31.503  16.709   7.110  0.00  0.00     0.062 A 
HETATM   14  N   UNK N   1      30.247  16.527   6.685  0.00  0.00    -0.350 N 
HETATM   15  C   UNK N   1      32.247  17.247   6.112  0.00  0.00     0.060 A 
HETATM   16  C   UNK N   1      30.259  16.972   5.400  0.00  0.00     0.181 A 
ATOM     17  HN  UNK N   1      29.459  16.142   7.206  1.00  0.00     0.166 HD
HETATM   18  N   UNK N   1      31.486  17.422   5.025  0.00  0.00    -0.351 N 
HETATM   19  H   UNK N   1      31.753  17.792   4.153  0.00  0.00     0.166 HD
HETATM   20  C   UNK N   1      33.593  17.546   6.266  0.00  0.00     0.034 A 
HETATM   21  C   UNK N   1      34.171  17.268   7.515  0.00  0.00     0.032 A 
ENDBRANCH   5  11
BRANCH   7  22
HETATM   22  N   UNK N   1      36.772  14.478  13.161  0.00  0.00    -0.327 N 
HETATM   23  H   UNK N   1      37.578  15.006  13.363  0.00  0.00     0.169 HD
BRANCH  22  24
HETATM   24  C   UNK N   1      36.110  13.779  14.216  0.00  0.00     0.123 A 
HETATM   25  N   UNK N   1      35.001  13.036  14.045  0.00  0.00    -0.285 N 
HETATM   26  N   UNK N   1      34.649  12.531  15.210  0.00  0.00    -0.303 N 
HETATM   27  H   UNK N   1      34.530  12.895  13.192  0.00  0.00     0.188 HD
HETATM   28  C   UNK N   1      35.527  12.943  16.140  0.00  0.00     0.033 A 
ATOM     29  HN  UNK N   1      33.843  11.928  15.379  1.00  0.00     0.186 HD
HETATM   30  C   UNK N   1      36.495  13.755  15.540  0.00  0.00     0.076 A 
BRANCH  28  31
HETATM   31  C   UNK N   1      35.381  12.521  17.578  0.00  0.00     0.037 A 
HETATM   32  C   UNK N   1      35.188  12.572  19.097  0.00  0.00     0.011 A 
HETATM   33  C   UNK N   1      35.159  13.838  18.344  0.00  0.00     0.011 A 
ENDBRANCH  28  31
ENDBRANCH  22  24
ENDBRANCH   7  22
TORSDOF 4
ENDMDL
MODEL 3
REMARK VINA RESULT:      -7.9      1.112      1.786
REMARK  4 active torsions:
REMARK  status: ('A' for Active; 'I' for Inactive)
REMARK    1  A    between atoms: N_5  and  C_14 
REMARK    2  A    between atoms: C_17  and  N_5 
REMARK       I    between atoms: N_9  and  C_13 
REMARK    3  A    between atoms: C_23  and  N_9 
REMARK    4  A    between atoms: C_20  and  C_18 
ROOT
HETATM    1  N   UNK N   1      33.950  14.440  10.720  0.00  0.00    -0.176 N 
ATOM      2  HN  UNK N   1      33.460  13.552  10.821  1.00  0.00     0.186 HD
HETATM    3  N   UNK N   1      33.970  16.641   9.920  0.00  0.00    -0.202 N 
ATOM      4  HN  UNK N   1      33.508  17.404   9.428  1.00  0.00     0.183 HD
HETATM    5  N   UNK N   1      32.034  15.198   9.562  0.00  0.00    -0.192 N 
HETATM    6  C   UNK N   1      33.334  15.445  10.068  0.00  0.00     0.684 A 
HETATM    7  C   UNK N   1      35.190  14.559  11.245  0.00  0.00     0.123 A 
HETATM    8  C   UNK N   1      35.868  15.772  11.110  0.00  0.00     0.067 A 
HETATM    9  C   UNK N   1      35.224  16.818  10.430  0.00  0.00     0.110 A 
HETATM   10  H   UNK N   1      31.678  14.296   9.730  0.00  0.00     0.184 HD
ENDROOT
BRANCH   5  11
HETATM   11  C   UNK N   1      31.176  16.067   8.849  0.00  0.00     0.051 A 
HETATM   12  C   UNK N   1      30.259  16.923   9.496  0.00  0.00     0.061 A 
HETATM   13  C   UNK N   1      29.466  17.734   8.688  0.00  0.00     0.062 A 
HETATM   14  N   UNK N   1      28.534  18.619   9.065  0.00  0.00    -0.350 N 
HETATM   15  C   UNK N   1      29.555  17.717   7.334  0.00  0.00     0.060 A 
HETATM   16  C   UNK N   1      28.067  19.132   7.896  0.00  0.00     0.181 A 
ATOM     17  HN  UNK N   1      28.242  18.854  10.013  1.00  0.00     0.166 HD
HETATM   18  N   UNK N   1      28.684  18.589   6.814  0.00  0.00    -0.351 N 
HETATM   19  H   UNK N   1      28.526  18.791   5.863  0.00  0.00     0.166 HD
HETATM   20  C   UNK N   1      30.441  16.892   6.658  0.00  0.00     0.034 A 
HETATM   21  C   UNK N   1      31.260  16.058   7.436  0.00  0.00     0.032 A 
ENDBRANCH   5  11
BRANCH   7  22
HETATM   22  N   UNK N   1      35.777  13.452  11.920  0.00  0.00    -0.327 N 
HETATM   23  H   UNK N   1      36.027  12.651  11.404  0.00  0.00     0.169 HD
BRANCH  22  24
HETATM   24  C   UNK N   1      36.010  13.478  13.328  0.00  0.00     0.123 A 
HETATM   25  N   UNK N   1      37.133  13.959  13.895  0.00  0.00    -0.285 N 
HETATM   26  N   UNK N   1      37.029  13.838  15.204  0.00  0.00    -0.303 N 
HETATM   27  H   UNK N   1      37.902  14.339  13.413  0.00  0.00     0.188 HD
HETATM   28  C   UNK N   1      35.842  13.278  15.490  0.00  0.00     0.033 A 
ATOM     29  HN  UNK N   1      37.734  14.120  15.885  1.00  0.00     0.186 HD
HETATM   30  C   UNK N   1      35.145  13.028  14.304  0.00  0.00     0.076 A 
BRANCH  28  31
HETATM   31  C   UNK N   1      35.440  13.012  16.917  0.00  0.00     0.037 A 
HETATM   32  C   UNK N   1      35.164  12.294  18.241  0.00  0.00     0.011 A 
HETATM   33  C   UNK N   1      35.709  11.510  17.120  0.00  0.00     0.011 A 
ENDBRANCH  28  31
ENDBRANCH  22  24
ENDBRANCH   7  22
TORSDOF 4
ENDMDL
MODEL 4
REMARK VINA RESULT:      -7.8      1.798      2.889
REMARK  4 active torsions:
REMARK  status: ('A' for Active; 'I' for Inactive)
REMARK    1  A    between atoms: N_5  and  C_14 
REMARK    2  A    between atoms: C_17  and  N_5 
REMARK       I    between atoms: N_9  and  C_13 
REMARK    3  A    between atoms: C_23  and  N_9 
REMARK    4  A    between atoms: C_20  and  C_18 
ROOT
HETATM    1  N   UNK N   1      32.531  17.279   9.041  0.00  0.00    -0.176 N 
ATOM      2  HN  UNK N   1      32.107  17.218   9.966  1.00  0.00     0.186 HD
HETATM    3  N   UNK N   1      32.268  17.457   6.722  0.00  0.00    -0.202 N 
ATOM      4  HN  UNK N   1      31.661  17.530   5.906  1.00  0.00     0.183 HD
HETATM    5  N   UNK N   1      30.325  17.387   8.198  0.00  0.00    -0.192 N 
HETATM    6  C   UNK N   1      31.724  17.375   7.968  0.00  0.00     0.684 A 
HETATM    7  C   UNK N   1      33.879  17.258   8.943  0.00  0.00     0.123 A 
HETATM    8  C   UNK N   1      34.468  17.340   7.681  0.00  0.00     0.067 A 
HETATM    9  C   UNK N   1      33.624  17.441   6.563  0.00  0.00     0.110 A 
HETATM   10  H   UNK N   1      30.051  17.322   9.141  0.00  0.00     0.184 HD
ENDROOT
BRANCH   5  11
HETATM   11  C   UNK N   1      29.269  17.478   7.263  0.00  0.00     0.051 A 
HETATM   12  C   UNK N   1      28.447  18.621   7.161  0.00  0.00     0.061 A 
HETATM   13  C   UNK N   1      27.438  18.595   6.201  0.00  0.00     0.062 A 
HETATM   14  N   UNK N   1      26.541  19.548   5.918  0.00  0.00    -0.350 N 
HETATM   15  C   UNK N   1      27.237  17.527   5.388  0.00  0.00     0.060 A 
HETATM   16  C   UNK N   1      25.796  19.019   4.911  0.00  0.00     0.181 A 
ATOM     17  HN  UNK N   1      26.439  20.462   6.358  1.00  0.00     0.166 HD
HETATM   18  N   UNK N   1      26.209  17.771   4.568  0.00  0.00    -0.351 N 
HETATM   19  H   UNK N   1      25.837  17.181   3.873  0.00  0.00     0.166 HD
HETATM   20  C   UNK N   1      28.022  16.385   5.455  0.00  0.00     0.034 A 
HETATM   21  C   UNK N   1      29.051  16.370   6.410  0.00  0.00     0.032 A 
ENDBRANCH   5  11
BRANCH   7  22
HETATM   22  N   UNK N   1      34.668  17.153  10.125  0.00  0.00    -0.327 N 
HETATM   23  H   UNK N   1      35.130  17.952  10.467  0.00  0.00     0.169 HD
BRANCH  22  24
HETATM   24  C   UNK N   1      34.800  15.914  10.823  0.00  0.00     0.123 A 
HETATM   25  N   UNK N   1      33.844  14.966  10.859  0.00  0.00    -0.285 N 
HETATM   26  N   UNK N   1      34.281  13.955  11.583  0.00  0.00    -0.303 N 
HETATM   27  H   UNK N   1      32.965  15.020  10.419  0.00  0.00     0.188 HD
HETATM   28  C   UNK N   1      35.519  14.242  12.018  0.00  0.00     0.033 A 
ATOM     29  HN  UNK N   1      33.764  13.098  11.782  1.00  0.00     0.186 HD
HETATM   30  C   UNK N   1      35.898  15.504  11.548  0.00  0.00     0.076 A 
BRANCH  28  31
HETATM   31  C   UNK N   1      36.279  13.267  12.877  0.00  0.00     0.037 A 
HETATM   32  C   UNK N   1      36.918  12.589  14.093  0.00  0.00     0.011 A 
HETATM   33  C   UNK N   1      36.156  13.832  14.304  0.00  0.00     0.011 A 
ENDBRANCH  28  31
ENDBRANCH  22  24
ENDBRANCH   7  22
TORSDOF 4
ENDMDL
MODEL 5
REMARK VINA RESULT:      -7.6      9.310     11.101
REMARK  4 active torsions:
REMARK  status: ('A' for Active; 'I' for Inactive)
REMARK    1  A    between atoms: N_5  and  C_14 
REMARK    2  A    between atoms: C_17  and  N_5 
REMARK       I    between atoms: N_9  and  C_13 
REMARK    3  A    between atoms: C_23  and  N_9 
REMARK    4  A    between atoms: C_20  and  C_18 
ROOT
HETATM    1  N   UNK N   1      24.156  15.392   6.843  0.00  0.00    -0.176 N 
ATOM      2  HN  UNK N   1      24.154  15.998   7.662  1.00  0.00     0.186 HD
HETATM    3  N   UNK N   1      23.496  15.009   4.629  0.00  0.00    -0.202 N 
ATOM      4  HN  UNK N   1      23.007  15.317   3.789  1.00  0.00     0.183 HD
HETATM    5  N   UNK N   1      22.862  17.064   5.785  0.00  0.00    -0.192 N 
HETATM    6  C   UNK N   1      23.508  15.803   5.736  0.00  0.00     0.684 A 
HETATM    7  C   UNK N   1      24.806  14.209   6.913  0.00  0.00     0.123 A 
HETATM    8  C   UNK N   1      24.813  13.373   5.796  0.00  0.00     0.067 A 
HETATM    9  C   UNK N   1      24.137  13.804   4.643  0.00  0.00     0.110 A 
HETATM   10  H   UNK N   1      22.940  17.547   6.639  0.00  0.00     0.184 HD
ENDROOT
BRANCH   5  11
HETATM   11  C   UNK N   1      22.122  17.725   4.779  0.00  0.00     0.051 A 
HETATM   12  C   UNK N   1      22.597  18.885   4.129  0.00  0.00     0.061 A 
HETATM   13  C   UNK N   1      21.778  19.448   3.153  0.00  0.00     0.062 A 
HETATM   14  N   UNK N   1      22.009  20.537   2.408  0.00  0.00    -0.350 N 
HETATM   15  C   UNK N   1      20.573  18.921   2.825  0.00  0.00     0.060 A 
HETATM   16  C   UNK N   1      20.904  20.646   1.623  0.00  0.00     0.181 A 
ATOM     17  HN  UNK N   1      22.827  21.145   2.425  1.00  0.00     0.166 HD
HETATM   18  N   UNK N   1      20.003  19.657   1.864  0.00  0.00    -0.351 N 
HETATM   19  H   UNK N   1      19.131  19.516   1.431  0.00  0.00     0.166 HD
HETATM   20  C   UNK N   1      20.068  17.783   3.438  0.00  0.00     0.034 A 
HETATM   21  C   UNK N   1      20.862  17.184   4.428  0.00  0.00     0.032 A 
ENDBRANCH   5  11
BRANCH   7  22
HETATM   22  N   UNK N   1      25.468  13.842   8.119  0.00  0.00    -0.327 N 
HETATM   23  H   UNK N   1      26.447  13.936   8.179  0.00  0.00     0.169 HD
BRANCH  22  24
HETATM   24  C   UNK N   1      24.743  13.342   9.243  0.00  0.00     0.123 A 
HETATM   25  N   UNK N   1      25.302  13.067  10.436  0.00  0.00    -0.285 N 
HETATM   26  N   UNK N   1      24.363  12.626  11.250  0.00  0.00    -0.303 N 
HETATM   27  H   UNK N   1      26.253  13.176  10.663  0.00  0.00     0.188 HD
HETATM   28  C   UNK N   1      23.194  12.614  10.589  0.00  0.00     0.033 A 
ATOM     29  HN  UNK N   1      24.501  12.341  12.219  1.00  0.00     0.186 HD
HETATM   30  C   UNK N   1      23.391  13.071   9.282  0.00  0.00     0.076 A 
BRANCH  28  31
HETATM   31  C   UNK N   1      21.930  12.154  11.267  0.00  0.00     0.037 A 
HETATM   32  C   UNK N   1      20.453  12.005  11.645  0.00  0.00     0.011 A 
HETATM   33  C   UNK N   1      20.808  12.940  10.564  0.00  0.00     0.011 A 
ENDBRANCH  28  31
ENDBRANCH  22  24
ENDBRANCH   7  22
TORSDOF 4
ENDMDL
MODEL 6
REMARK VINA RESULT:      -7.5      2.725     10.226
REMARK  4 active torsions:
REMARK  status: ('A' for Active; 'I' for Inactive)
REMARK    1  A    between atoms: N_5  and  C_14 
REMARK    2  A    between atoms: C_17  and  N_5 
REMARK       I    between atoms: N_9  and  C_13 
REMARK    3  A    between atoms: C_23  and  N_9 
REMARK    4  A    between atoms: C_20  and  C_18 
ROOT
HETATM    1  N   UNK N   1      34.560  12.825  12.706  0.00  0.00    -0.176 N 
ATOM      2  HN  UNK N   1      33.881  12.084  12.533  1.00  0.00     0.186 HD
HETATM    3  N   UNK N   1      35.951  13.960  14.208  0.00  0.00    -0.202 N 
ATOM      4  HN  UNK N   1      36.320  14.079  15.151  1.00  0.00     0.183 HD
HETATM    5  N   UNK N   1      34.571  12.089  14.953  0.00  0.00    -0.192 N 
HETATM    6  C   UNK N   1      35.043  12.977  13.954  0.00  0.00     0.684 A 
HETATM    7  C   UNK N   1      34.937  13.612  11.674  0.00  0.00     0.123 A 
HETATM    8  C   UNK N   1      35.866  14.628  11.902  0.00  0.00     0.067 A 
HETATM    9  C   UNK N   1      36.368  14.785  13.204  0.00  0.00     0.110 A 
HETATM   10  H   UNK N   1      33.916  11.420  14.649  0.00  0.00     0.184 HD
ENDROOT
BRANCH   5  11
HETATM   11  C   UNK N   1      34.909  12.030  16.324  0.00  0.00     0.051 A 
HETATM   12  C   UNK N   1      35.342  10.839  16.945  0.00  0.00     0.061 A 
HETATM   13  C   UNK N   1      35.647  10.904  18.303  0.00  0.00     0.062 A 
HETATM   14  N   UNK N   1      36.073   9.918  19.103  0.00  0.00    -0.350 N 
HETATM   15  C   UNK N   1      35.541  12.053  19.016  0.00  0.00     0.060 A 
HETATM   16  C   UNK N   1      36.218  10.510  20.318  0.00  0.00     0.181 A 
ATOM     17  HN  UNK N   1      36.248   8.944  18.857  1.00  0.00     0.166 HD
HETATM   18  N   UNK N   1      35.895  11.830  20.287  0.00  0.00    -0.351 N 
HETATM   19  H   UNK N   1      35.916  12.475  21.030  0.00  0.00     0.166 HD
HETATM   20  C   UNK N   1      35.120  13.245  18.445  0.00  0.00     0.034 A 
HETATM   21  C   UNK N   1      34.802  13.223  17.078  0.00  0.00     0.032 A 
ENDBRANCH   5  11
BRANCH   7  22
HETATM   22  N   UNK N   1      34.381  13.390  10.382  0.00  0.00    -0.327 N 
HETATM   23  H   UNK N   1      34.578  12.548   9.911  0.00  0.00     0.169 HD
BRANCH  22  24
HETATM   24  C   UNK N   1      33.544  14.363   9.756  0.00  0.00     0.123 A 
HETATM   25  N   UNK N   1      32.542  15.008  10.383  0.00  0.00    -0.285 N 
HETATM   26  N   UNK N   1      31.972  15.833   9.527  0.00  0.00    -0.303 N 
HETATM   27  H   UNK N   1      32.280  14.883  11.323  0.00  0.00     0.188 HD
HETATM   28  C   UNK N   1      32.600  15.727   8.345  0.00  0.00     0.033 A 
ATOM     29  HN  UNK N   1      31.184  16.448   9.729  1.00  0.00     0.186 HD
HETATM   30  C   UNK N   1      33.629  14.785   8.445  0.00  0.00     0.076 A 
BRANCH  28  31
HETATM   31  C   UNK N   1      32.166  16.555   7.164  0.00  0.00     0.037 A 
HETATM   32  C   UNK N   1      31.416  17.025   5.914  0.00  0.00     0.011 A 
HETATM   33  C   UNK N   1      31.014  15.751   6.533  0.00  0.00     0.011 A 
ENDBRANCH  28  31
ENDBRANCH  22  24
ENDBRANCH   7  22
TORSDOF 4
ENDMDL
MODEL 7
REMARK VINA RESULT:      -7.5      5.716     10.253
REMARK  4 active torsions:
REMARK  status: ('A' for Active; 'I' for Inactive)
REMARK    1  A    between atoms: N_5  and  C_14 
REMARK    2  A    between atoms: C_17  and  N_5 
REMARK       I    between atoms: N_9  and  C_13 
REMARK    3  A    between atoms: C_23  and  N_9 
REMARK    4  A    between atoms: C_20  and  C_18 
ROOT
HETATM    1  N   UNK N   1      25.105  19.328   5.675  0.00  0.00    -0.176 N 
ATOM      2  HN  UNK N   1      24.771  19.033   6.592  1.00  0.00     0.186 HD
HETATM    3  N   UNK N   1      24.799  19.394   3.355  0.00  0.00    -0.202 N 
ATOM      4  HN  UNK N   1      24.247  19.157   2.531  1.00  0.00     0.183 HD
HETATM    5  N   UNK N   1      23.174  18.283   4.799  0.00  0.00    -0.192 N 
HETATM    6  C   UNK N   1      24.372  19.011   4.591  0.00  0.00     0.684 A 
HETATM    7  C   UNK N   1      26.264  20.019   5.599  0.00  0.00     0.123 A 
HETATM    8  C   UNK N   1      26.728  20.425   4.347  0.00  0.00     0.067 A 
HETATM    9  C   UNK N   1      25.962  20.094   3.218  0.00  0.00     0.110 A 
HETATM   10  H   UNK N   1      22.969  18.063   5.736  0.00  0.00     0.184 HD
ENDROOT
BRANCH   5  11
HETATM   11  C   UNK N   1      22.231  17.829   3.849  0.00  0.00     0.051 A 
HETATM   12  C   UNK N   1      22.217  16.499   3.374  0.00  0.00     0.061 A 
HETATM   13  C   UNK N   1      21.240  16.169   2.437  0.00  0.00     0.062 A 
HETATM   14  N   UNK N   1      21.028  14.986   1.847  0.00  0.00    -0.350 N 
HETATM   15  C   UNK N   1      20.332  17.070   1.988  0.00  0.00     0.060 A 
HETATM   16  C   UNK N   1      19.964  15.205   1.029  0.00  0.00     0.181 A 
ATOM     17  HN  UNK N   1      21.546  14.118   1.980  1.00  0.00     0.166 HD
HETATM   18  N   UNK N   1      19.518  16.487   1.100  0.00  0.00    -0.351 N 
HETATM   19  H   UNK N   1      18.767  16.893   0.611  0.00  0.00     0.166 HD
HETATM   20  C   UNK N   1      20.310  18.385   2.428  0.00  0.00     0.034 A 
HETATM   21  C   UNK N   1      21.279  18.761   3.372  0.00  0.00     0.032 A 
ENDBRANCH   5  11
BRANCH   7  22
HETATM   22  N   UNK N   1      26.985  20.316   6.790  0.00  0.00    -0.327 N 
HETATM   23  H   UNK N   1      26.928  21.221   7.174  0.00  0.00     0.169 HD
BRANCH  22  24
HETATM   24  C   UNK N   1      27.785  19.328   7.441  0.00  0.00     0.123 A 
HETATM   25  N   UNK N   1      27.581  18.908   8.704  0.00  0.00    -0.285 N 
HETATM   26  N   UNK N   1      28.488  17.997   8.996  0.00  0.00    -0.303 N 
HETATM   27  H   UNK N   1      26.873  19.227   9.307  0.00  0.00     0.188 HD
HETATM   28  C   UNK N   1      29.283  17.824   7.927  0.00  0.00     0.033 A 
ATOM     29  HN  UNK N   1      28.574  17.506   9.886  1.00  0.00     0.186 HD
HETATM   30  C   UNK N   1      28.864  18.666   6.892  0.00  0.00     0.076 A 
BRANCH  28  31
HETATM   31  C   UNK N   1      30.420  16.838   7.964  0.00  0.00     0.037 A 
HETATM   32  C   UNK N   1      31.819  16.235   8.129  0.00  0.00     0.011 A 
HETATM   33  C   UNK N   1      31.640  17.673   8.397  0.00  0.00     0.011 A 
ENDBRANCH  28  31
ENDBRANCH  22  24
ENDBRANCH   7  22
TORSDOF 4
ENDMDL
MODEL 8
REMARK VINA RESULT:      -7.5      1.664      2.170
REMARK  4 active torsions:
REMARK  status: ('A' for Active; 'I' for Inactive)
REMARK    1  A    between atoms: N_5  and  C_14 
REMARK    2  A    between atoms: C_17  and  N_5 
REMARK       I    between atoms: N_9  and  C_13 
REMARK    3  A    between atoms: C_23  and  N_9 
REMARK    4  A    between atoms: C_20  and  C_18 
ROOT
HETATM    1  N   UNK N   1      34.169  14.119  10.789  0.00  0.00    -0.176 N 
ATOM      2  HN  UNK N   1      33.728  13.200  10.812  1.00  0.00     0.186 HD
HETATM    3  N   UNK N   1      34.176  16.320   9.993  0.00  0.00    -0.202 N 
ATOM      4  HN  UNK N   1      33.753  17.055   9.427  1.00  0.00     0.183 HD
HETATM    5  N   UNK N   1      32.425  14.756   9.326  0.00  0.00    -0.192 N 
HETATM    6  C   UNK N   1      33.605  15.085  10.039  0.00  0.00     0.684 A 
HETATM    7  C   UNK N   1      35.295  14.316  11.511  0.00  0.00     0.123 A 
HETATM    8  C   UNK N   1      35.904  15.571  11.485  0.00  0.00     0.067 A 
HETATM    9  C   UNK N   1      35.314  16.577  10.702  0.00  0.00     0.110 A 
HETATM   10  H   UNK N   1      32.106  13.832   9.437  0.00  0.00     0.184 HD
ENDROOT
BRANCH   5  11
HETATM   11  C   UNK N   1      31.642  15.571   8.477  0.00  0.00     0.051 A 
HETATM   12  C   UNK N   1      31.635  15.414   7.074  0.00  0.00     0.061 A 
HETATM   13  C   UNK N   1      30.822  16.276   6.341  0.00  0.00     0.062 A 
HETATM   14  N   UNK N   1      30.650  16.321   5.014  0.00  0.00    -0.350 N 
HETATM   15  C   UNK N   1      30.063  17.233   6.931  0.00  0.00     0.060 A 
HETATM   16  C   UNK N   1      29.763  17.335   4.826  0.00  0.00     0.181 A 
ATOM     17  HN  UNK N   1      31.084  15.730   4.306  1.00  0.00     0.166 HD
HETATM   18  N   UNK N   1      29.387  17.912   5.997  0.00  0.00    -0.351 N 
HETATM   19  H   UNK N   1      28.760  18.660   6.128  0.00  0.00     0.166 HD
HETATM   20  C   UNK N   1      30.040  17.422   8.305  0.00  0.00     0.034 A 
HETATM   21  C   UNK N   1      30.845  16.573   9.081  0.00  0.00     0.032 A 
ENDBRANCH   5  11
BRANCH   7  22
HETATM   22  N   UNK N   1      35.833  13.245  12.279  0.00  0.00    -0.327 N 
HETATM   23  H   UNK N   1      36.562  12.701  11.902  0.00  0.00     0.169 HD
BRANCH  22  24
HETATM   24  C   UNK N   1      35.340  12.945  13.585  0.00  0.00     0.123 A 
HETATM   25  N   UNK N   1      34.337  12.079  13.829  0.00  0.00    -0.285 N 
HETATM   26  N   UNK N   1      34.129  12.032  15.130  0.00  0.00    -0.303 N 
HETATM   27  H   UNK N   1      33.842  11.568  13.150  0.00  0.00     0.188 HD
HETATM   28  C   UNK N   1      34.994  12.864  15.734  0.00  0.00     0.033 A 
ATOM     29  HN  UNK N   1      33.428  11.460  15.600  1.00  0.00     0.186 HD
HETATM   30  C   UNK N   1      35.801  13.478  14.771  0.00  0.00     0.076 A 
BRANCH  28  31
HETATM   31  C   UNK N   1      34.994  13.022  17.231  0.00  0.00     0.037 A 
HETATM   32  C   UNK N   1      35.145  12.723  18.726  0.00  0.00     0.011 A 
HETATM   33  C   UNK N   1      35.483  11.662  17.762  0.00  0.00     0.011 A 
ENDBRANCH  28  31
ENDBRANCH  22  24
ENDBRANCH   7  22
TORSDOF 4
ENDMDL
MODEL 9
REMARK VINA RESULT:      -7.3      6.654      9.789
REMARK  4 active torsions:
REMARK  status: ('A' for Active; 'I' for Inactive)
REMARK    1  A    between atoms: N_5  and  C_14 
REMARK    2  A    between atoms: C_17  and  N_5 
REMARK       I    between atoms: N_9  and  C_13 
REMARK    3  A    between atoms: C_23  and  N_9 
REMARK    4  A    between atoms: C_20  and  C_18 
ROOT
HETATM    1  N   UNK N   1      35.636  11.275  18.103  0.00  0.00    -0.176 N 
ATOM      2  HN  UNK N   1      35.818  10.273  18.148  1.00  0.00     0.186 HD
HETATM    3  N   UNK N   1      35.404  13.216  16.814  0.00  0.00    -0.202 N 
ATOM      4  HN  UNK N   1      35.410  13.676  15.905  1.00  0.00     0.183 HD
HETATM    5  N   UNK N   1      35.909  11.071  15.764  0.00  0.00    -0.192 N 
HETATM    6  C   UNK N   1      35.645  11.878  16.899  0.00  0.00     0.684 A 
HETATM    7  C   UNK N   1      35.395  11.942  19.254  0.00  0.00     0.123 A 
HETATM    8  C   UNK N   1      35.145  13.314  19.201  0.00  0.00     0.067 A 
HETATM    9  C   UNK N   1      35.155  13.941  17.944  0.00  0.00     0.110 A 
HETATM   10  H   UNK N   1      36.068  10.117  15.950  0.00  0.00     0.184 HD
ENDROOT
BRANCH   5  11
HETATM   11  C   UNK N   1      35.977  11.444  14.403  0.00  0.00     0.051 A 
HETATM   12  C   UNK N   1      37.117  12.061  13.843  0.00  0.00     0.061 A 
HETATM   13  C   UNK N   1      37.067  12.383  12.489  0.00  0.00     0.062 A 
HETATM   14  N   UNK N   1      38.013  12.966  11.742  0.00  0.00    -0.350 N 
HETATM   15  C   UNK N   1      35.978  12.124  11.722  0.00  0.00     0.060 A 
HETATM   16  C   UNK N   1      37.458  13.050  10.504  0.00  0.00     0.181 A 
ATOM     17  HN  UNK N   1      38.939  13.277  12.036  1.00  0.00     0.166 HD
HETATM   18  N   UNK N   1      36.201  12.535  10.468  0.00  0.00    -0.351 N 
HETATM   19  H   UNK N   1      35.593  12.478   9.697  0.00  0.00     0.166 HD
HETATM   20  C   UNK N   1      34.838  11.521  12.231  0.00  0.00     0.034 A 
HETATM   21  C   UNK N   1      34.847  11.179  13.593  0.00  0.00     0.032 A 
ENDBRANCH   5  11
BRANCH   7  22
HETATM   22  N   UNK N   1      35.403  11.236  20.490  0.00  0.00    -0.327 N 
HETATM   23  H   UNK N   1      36.206  11.272  21.060  0.00  0.00     0.169 HD
BRANCH  22  24
HETATM   24  C   UNK N   1      34.272  10.479  20.922  0.00  0.00     0.123 A 
HETATM   25  N   UNK N   1      33.413  10.888  21.875  0.00  0.00    -0.285 N 
HETATM   26  N   UNK N   1      32.487   9.963  22.033  0.00  0.00    -0.303 N 
HETATM   27  H   UNK N   1      33.468  11.736  22.371  0.00  0.00     0.188 HD
HETATM   28  C   UNK N   1      32.742   8.953  21.185  0.00  0.00     0.033 A 
ATOM     29  HN  UNK N   1      31.709  10.006  22.690  1.00  0.00     0.186 HD
HETATM   30  C   UNK N   1      33.890   9.244  20.442  0.00  0.00     0.076 A 
BRANCH  28  31
HETATM   31  C   UNK N   1      31.846   7.743  21.137  0.00  0.00     0.037 A 
HETATM   32  C   UNK N   1      30.735   6.770  20.730  0.00  0.00     0.011 A 
HETATM   33  C   UNK N   1      30.866   8.034  19.986  0.00  0.00     0.011 A 
ENDBRANCH  28  31
ENDBRANCH  22  24
ENDBRANCH   7  22
TORSDOF 4
ENDMDL
