MODEL 1
REMARK VINA RESULT:      -5.9      0.000      0.000
REMARK  7 active torsions:
REMARK  status: ('A' for Active; 'I' for Inactive)
REMARK       I    between atoms: C_2  and  N_4 
REMARK    1  A    between atoms: C_5  and  N_4 
REMARK    2  A    between atoms: C_5  and  C_6 
REMARK    3  A    between atoms: C_5  and  C_8 
REMARK    4  A    between atoms: C_6  and  C_7 
REMARK    5  A    between atoms: C_6  and  O_9 
REMARK    6  A    between atoms: C_6  and  O_10 
REMARK    7  A    between atoms: C_8  and  C_14 
ROOT
HETATM    1  C   UNK N   1      21.192  17.933   4.514  0.00  0.00     0.160 C 
ENDROOT
BRANCH   1   2
HETATM    2  N   UNK N   1      20.815  17.133   5.669  0.00  0.00    -0.351 N 
HETATM    3  C   UNK N   1      20.752  17.599   6.942  0.00  0.00     0.214 C 
HETATM    4  C   UNK N   1      20.384  16.673   8.046  0.00  0.00     0.117 C 
HETATM    5  O   UNK N   1      20.952  18.782   7.190  0.00  0.00    -0.274 OA
HETATM    6  H   UNK N   1      20.590  16.187   5.517  0.00  0.00     0.163 HD
ENDBRANCH   1   2
BRANCH   1   7
HETATM    7  C   UNK N   1      20.183  17.732   3.369  0.00  0.00     0.282 C 
BRANCH   7   8
HETATM    8  C   UNK N   1      19.792  19.074   2.759  0.00  0.00     0.446 C 
HETATM    9  F   UNK N   1      20.444  19.278   1.554  0.00  0.00    -0.166 F 
HETATM   10  F   UNK N   1      18.429  19.084   2.522  0.00  0.00    -0.166 F 
HETATM   11  F   UNK N   1      20.071  20.129   3.610  0.00  0.00    -0.166 F 
ENDBRANCH   7   8
BRANCH   7  12
HETATM   12  O   UNK N   1      20.762  16.993   2.400  0.00  0.00    -0.357 OA
HETATM   13  H   UNK N   1      21.117  17.222   1.565  0.00  0.00     0.213 HD
ENDBRANCH   7  12
BRANCH   7  14
HETATM   14  O   UNK N   1      19.070  17.138   3.851  0.00  0.00    -0.357 OA
HETATM   15  H   UNK N   1      18.431  16.533   4.173  0.00  0.00     0.213 HD
ENDBRANCH   7  14
ENDBRANCH   1   7
BRANCH   1  16
HETATM   16  C   UNK N   1      22.642  17.504   4.171  0.00  0.00     0.069 C 
BRANCH  16  17
HETATM   17  C   UNK N   1      23.701  18.529   3.870  0.00  0.00    -0.056 A 
HETATM   18  C   UNK N   1      25.053  18.200   4.021  0.00  0.00     0.007 A 
HETATM   19  C   UNK N   1      26.046  19.115   3.651  0.00  0.00     0.001 A 
HETATM   20  C   UNK N   1      25.692  20.358   3.119  0.00  0.00     0.000 A 
HETATM   21  C   UNK N   1      24.344  20.684   2.948  0.00  0.00     0.001 A 
HETATM   22  C   UNK N   1      23.355  19.766   3.306  0.00  0.00     0.007 A 
ENDBRANCH  16  17
ENDBRANCH   1  16
TORSDOF 7
ENDMDL
MODEL 2
REMARK VINA RESULT:      -5.8      5.015      7.148
REMARK  7 active torsions:
REMARK  status: ('A' for Active; 'I' for Inactive)
REMARK       I    between atoms: C_2  and  N_4 
REMARK    1  A    between atoms: C_5  and  N_4 
REMARK    2  A    between atoms: C_5  and  C_6 
REMARK    3  A    between atoms: C_5  and  C_8 
REMARK    4  A    between atoms: C_6  and  C_7 
REMARK    5  A    between atoms: C_6  and  O_9 
REMARK    6  A    between atoms: C_6  and  O_10 
REMARK    7  A    between atoms: C_8  and  C_14 
ROOT
HETATM    1  C   UNK N   1      20.775  14.812   8.592  0.00  0.00     0.160 C 
ENDROOT
BRANCH   1   2
HETATM    2  N   UNK N   1      19.653  15.640   9.007  0.00  0.00    -0.351 N 
HETATM    3  C   UNK N   1      19.596  16.989   8.866  0.00  0.00     0.214 C 
HETATM    4  C   UNK N   1      18.404  17.728   9.360  0.00  0.00     0.117 C 
HETATM    5  O   UNK N   1      20.493  17.601   8.300  0.00  0.00    -0.274 OA
HETATM    6  H   UNK N   1      18.881  15.190   9.419  0.00  0.00     0.163 HD
ENDBRANCH   1   2
BRANCH   1   7
HETATM    7  C   UNK N   1      20.612  14.382   7.124  0.00  0.00     0.282 C 
BRANCH   7   8
HETATM    8  C   UNK N   1      21.881  14.682   6.333  0.00  0.00     0.446 C 
HETATM    9  F   UNK N   1      21.576  15.232   5.099  0.00  0.00    -0.166 F 
HETATM   10  F   UNK N   1      22.650  15.592   7.037  0.00  0.00    -0.166 F 
HETATM   11  F   UNK N   1      22.653  13.548   6.146  0.00  0.00    -0.166 F 
ENDBRANCH   7   8
BRANCH   7  12
HETATM   12  O   UNK N   1      20.405  13.050   7.078  0.00  0.00    -0.357 OA
HETATM   13  H   UNK N   1      20.931  12.344   6.757  0.00  0.00     0.213 HD
ENDBRANCH   7  12
BRANCH   7  14
HETATM   14  O   UNK N   1      19.588  15.064   6.568  0.00  0.00    -0.357 OA
HETATM   15  H   UNK N   1      18.748  15.375   6.291  0.00  0.00     0.213 HD
ENDBRANCH   7  14
ENDBRANCH   1   7
BRANCH   1  16
HETATM   16  C   UNK N   1      20.816  13.636   9.602  0.00  0.00     0.069 C 
BRANCH  16  17
HETATM   17  C   UNK N   1      22.122  13.140  10.160  0.00  0.00    -0.056 A 
HETATM   18  C   UNK N   1      22.133  12.357  11.320  0.00  0.00     0.007 A 
HETATM   19  C   UNK N   1      23.334  11.811  11.790  0.00  0.00     0.001 A 
HETATM   20  C   UNK N   1      24.526  12.038  11.097  0.00  0.00     0.000 A 
HETATM   21  C   UNK N   1      24.518  12.802   9.928  0.00  0.00     0.001 A 
HETATM   22  C   UNK N   1      23.318  13.336   9.453  0.00  0.00     0.007 A 
ENDBRANCH  16  17
ENDBRANCH   1  16
TORSDOF 7
ENDMDL
MODEL 3
REMARK VINA RESULT:      -5.7     10.557     12.393
REMARK  7 active torsions:
REMARK  status: ('A' for Active; 'I' for Inactive)
REMARK       I    between atoms: C_2  and  N_4 
REMARK    1  A    between atoms: C_5  and  N_4 
REMARK    2  A    between atoms: C_5  and  C_6 
REMARK    3  A    between atoms: C_5  and  C_8 
REMARK    4  A    between atoms: C_6  and  C_7 
REMARK    5  A    between atoms: C_6  and  O_9 
REMARK    6  A    between atoms: C_6  and  O_10 
REMARK    7  A    between atoms: C_8  and  C_14 
ROOT
HETATM    1  C   UNK N   1      33.188  16.541   7.915  0.00  0.00     0.160 C 
ENDROOT
BRANCH   1   2
HETATM    2  N   UNK N   1      33.960  16.112   9.070  0.00  0.00    -0.351 N 
HETATM    3  C   UNK N   1      34.909  16.863   9.686  0.00  0.00     0.214 C 
HETATM    4  C   UNK N   1      35.655  16.299  10.842  0.00  0.00     0.117 C 
HETATM    5  O   UNK N   1      35.128  18.014   9.331  0.00  0.00    -0.274 OA
HETATM    6  H   UNK N   1      33.783  15.213   9.430  0.00  0.00     0.163 HD
ENDBRANCH   1   2
BRANCH   1   7
HETATM    7  C   UNK N   1      34.110  16.768   6.704  0.00  0.00     0.282 C 
BRANCH   7   8
HETATM    8  C   UNK N   1      33.394  16.402   5.409  0.00  0.00     0.446 C 
HETATM    9  F   UNK N   1      34.282  15.877   4.484  0.00  0.00    -0.166 F 
HETATM   10  F   UNK N   1      32.430  15.447   5.678  0.00  0.00    -0.166 F 
HETATM   11  F   UNK N   1      32.750  17.493   4.850  0.00  0.00    -0.166 F 
ENDBRANCH   7   8
BRANCH   7  12
HETATM   12  O   UNK N   1      34.435  18.076   6.639  0.00  0.00    -0.357 OA
HETATM   13  H   UNK N   1      35.044  18.595   7.126  0.00  0.00     0.213 HD
ENDBRANCH   7  12
BRANCH   7  14
HETATM   14  O   UNK N   1      35.207  15.988   6.824  0.00  0.00    -0.357 OA
HETATM   15  H   UNK N   1      36.076  15.638   6.827  0.00  0.00     0.213 HD
ENDBRANCH   7  14
ENDBRANCH   1   7
BRANCH   1  16
HETATM   16  C   UNK N   1      32.421  17.807   8.380  0.00  0.00     0.069 C 
BRANCH  16  17
HETATM   17  C   UNK N   1      30.920  17.873   8.307  0.00  0.00    -0.056 A 
HETATM   18  C   UNK N   1      30.241  17.198   7.285  0.00  0.00     0.007 A 
HETATM   19  C   UNK N   1      28.841  17.174   7.267  0.00  0.00     0.001 A 
HETATM   20  C   UNK N   1      28.115  17.815   8.274  0.00  0.00     0.000 A 
HETATM   21  C   UNK N   1      28.787  18.473   9.307  0.00  0.00     0.001 A 
HETATM   22  C   UNK N   1      30.183  18.486   9.332  0.00  0.00     0.007 A 
ENDBRANCH  16  17
ENDBRANCH   1  16
TORSDOF 7
ENDMDL
MODEL 4
REMARK VINA RESULT:      -5.7     11.334     13.215
REMARK  7 active torsions:
REMARK  status: ('A' for Active; 'I' for Inactive)
REMARK       I    between atoms: C_2  and  N_4 
REMARK    1  A    between atoms: C_5  and  N_4 
REMARK    2  A    between atoms: C_5  and  C_6 
REMARK    3  A    between atoms: C_5  and  C_8 
REMARK    4  A    between atoms: C_6  and  C_7 
REMARK    5  A    between atoms: C_6  and  O_9 
REMARK    6  A    between atoms: C_6  and  O_10 
REMARK    7  A    between atoms: C_8  and  C_14 
ROOT
HETATM    1  C   UNK N   1      33.219  16.285   8.720  0.00  0.00     0.160 C 
ENDROOT
BRANCH   1   2
HETATM    2  N   UNK N   1      32.274  17.315   9.121  0.00  0.00    -0.351 N 
HETATM    3  C   UNK N   1      31.039  17.482   8.582  0.00  0.00     0.214 C 
HETATM    4  C   UNK N   1      30.175  18.596   9.057  0.00  0.00     0.117 C 
HETATM    5  O   UNK N   1      30.610  16.702   7.741  0.00  0.00    -0.274 OA
HETATM    6  H   UNK N   1      32.549  17.936   9.834  0.00  0.00     0.163 HD
ENDBRANCH   1   2
BRANCH   1   7
HETATM    7  C   UNK N   1      33.979  15.745   9.944  0.00  0.00     0.282 C 
BRANCH   7   8
HETATM    8  C   UNK N   1      34.948  14.644   9.530  0.00  0.00     0.446 C 
HETATM    9  F   UNK N   1      36.157  15.178   9.116  0.00  0.00    -0.166 F 
HETATM   10  F   UNK N   1      35.187  13.818  10.614  0.00  0.00    -0.166 F 
HETATM   11  F   UNK N   1      34.430  13.855   8.517  0.00  0.00    -0.166 F 
ENDBRANCH   7   8
BRANCH   7  12
HETATM   12  O   UNK N   1      34.702  16.747  10.487  0.00  0.00    -0.357 OA
HETATM   13  H   UNK N   1      34.516  17.655  10.617  0.00  0.00     0.213 HD
ENDBRANCH   7  12
BRANCH   7  14
HETATM   14  O   UNK N   1      33.097  15.232  10.829  0.00  0.00    -0.357 OA
HETATM   15  H   UNK N   1      32.670  14.749  11.509  0.00  0.00     0.213 HD
ENDBRANCH   7  14
ENDBRANCH   1   7
BRANCH   1  16
HETATM   16  C   UNK N   1      34.122  16.949   7.648  0.00  0.00     0.069 C 
BRANCH  16  17
HETATM   17  C   UNK N   1      33.893  16.702   6.182  0.00  0.00    -0.056 A 
HETATM   18  C   UNK N   1      34.284  15.485   5.611  0.00  0.00     0.007 A 
HETATM   19  C   UNK N   1      33.987  15.209   4.271  0.00  0.00     0.001 A 
HETATM   20  C   UNK N   1      33.290  16.143   3.499  0.00  0.00     0.000 A 
HETATM   21  C   UNK N   1      32.880  17.350   4.070  0.00  0.00     0.001 A 
HETATM   22  C   UNK N   1      33.166  17.620   5.410  0.00  0.00     0.007 A 
ENDBRANCH  16  17
ENDBRANCH   1  16
TORSDOF 7
ENDMDL
MODEL 5
REMARK VINA RESULT:      -5.7     12.108     13.598
REMARK  7 active torsions:
REMARK  status: ('A' for Active; 'I' for Inactive)
REMARK       I    between atoms: C_2  and  N_4 
REMARK    1  A    between atoms: C_5  and  N_4 
REMARK    2  A    between atoms: C_5  and  C_6 
REMARK    3  A    between atoms: C_5  and  C_8 
REMARK    4  A    between atoms: C_6  and  C_7 
REMARK    5  A    between atoms: C_6  and  O_9 
REMARK    6  A    between atoms: C_6  and  O_10 
REMARK    7  A    between atoms: C_8  and  C_14 
ROOT
HETATM    1  C   UNK N   1      25.878  24.497  -6.922  0.00  0.00     0.160 C 
ENDROOT
BRANCH   1   2
HETATM    2  N   UNK N   1      27.171  24.372  -6.269  0.00  0.00    -0.351 N 
HETATM    3  C   UNK N   1      27.346  24.186  -4.935  0.00  0.00     0.214 C 
HETATM    4  C   UNK N   1      28.724  24.104  -4.381  0.00  0.00     0.117 C 
HETATM    5  O   UNK N   1      26.386  24.040  -4.189  0.00  0.00    -0.274 OA
HETATM    6  H   UNK N   1      27.976  24.427  -6.832  0.00  0.00     0.163 HD
ENDBRANCH   1   2
BRANCH   1   7
HETATM    7  C   UNK N   1      25.756  23.483  -8.073  0.00  0.00     0.282 C 
BRANCH   7   8
HETATM    8  C   UNK N   1      25.628  22.066  -7.527  0.00  0.00     0.446 C 
HETATM    9  F   UNK N   1      26.873  21.477  -7.385  0.00  0.00    -0.166 F 
HETATM   10  F   UNK N   1      25.023  22.111  -6.284  0.00  0.00    -0.166 F 
HETATM   11  F   UNK N   1      24.840  21.269  -8.340  0.00  0.00    -0.166 F 
ENDBRANCH   7   8
BRANCH   7  12
HETATM   12  O   UNK N   1      24.639  23.754  -8.779  0.00  0.00    -0.357 OA
HETATM   13  H   UNK N   1      24.039  23.201  -9.240  0.00  0.00     0.213 HD
ENDBRANCH   7  12
BRANCH   7  14
HETATM   14  O   UNK N   1      26.861  23.549  -8.847  0.00  0.00    -0.357 OA
HETATM   15  H   UNK N   1      27.724  23.680  -9.188  0.00  0.00     0.213 HD
ENDBRANCH   7  14
ENDBRANCH   1   7
BRANCH   1  16
HETATM   16  C   UNK N   1      25.781  25.981  -7.365  0.00  0.00     0.069 C 
BRANCH  16  17
HETATM   17  C   UNK N   1      26.018  27.097  -6.384  0.00  0.00    -0.056 A 
HETATM   18  C   UNK N   1      25.210  27.209  -5.247  0.00  0.00     0.007 A 
HETATM   19  C   UNK N   1      25.484  28.186  -4.281  0.00  0.00     0.001 A 
HETATM   20  C   UNK N   1      26.573  29.047  -4.445  0.00  0.00     0.000 A 
HETATM   21  C   UNK N   1      27.394  28.927  -5.569  0.00  0.00     0.001 A 
HETATM   22  C   UNK N   1      27.127  27.945  -6.525  0.00  0.00     0.007 A 
ENDBRANCH  16  17
ENDBRANCH   1  16
TORSDOF 7
ENDMDL
MODEL 6
REMARK VINA RESULT:      -5.7     10.079     11.889
REMARK  7 active torsions:
REMARK  status: ('A' for Active; 'I' for Inactive)
REMARK       I    between atoms: C_2  and  N_4 
REMARK    1  A    between atoms: C_5  and  N_4 
REMARK    2  A    between atoms: C_5  and  C_6 
REMARK    3  A    between atoms: C_5  and  C_8 
REMARK    4  A    between atoms: C_6  and  C_7 
REMARK    5  A    between atoms: C_6  and  O_9 
REMARK    6  A    between atoms: C_6  and  O_10 
REMARK    7  A    between atoms: C_8  and  C_14 
ROOT
HETATM    1  C   UNK N   1      33.025  16.228   7.089  0.00  0.00     0.160 C 
ENDROOT
BRANCH   1   2
HETATM    2  N   UNK N   1      33.852  15.406   7.958  0.00  0.00    -0.351 N 
HETATM    3  C   UNK N   1      33.438  14.261   8.558  0.00  0.00     0.214 C 
HETATM    4  C   UNK N   1      34.370  13.523   9.453  0.00  0.00     0.117 C 
HETATM    5  O   UNK N   1      32.323  13.803   8.340  0.00  0.00    -0.274 OA
HETATM    6  H   UNK N   1      34.777  15.700   8.123  0.00  0.00     0.163 HD
ENDBRANCH   1   2
BRANCH   1   7
HETATM    7  C   UNK N   1      33.848  16.745   5.895  0.00  0.00     0.282 C 
BRANCH   7   8
HETATM    8  C   UNK N   1      33.014  16.719   4.619  0.00  0.00     0.446 C 
HETATM    9  F   UNK N   1      31.932  15.865   4.752  0.00  0.00    -0.166 F 
HETATM   10  F   UNK N   1      32.535  17.992   4.364  0.00  0.00    -0.166 F 
HETATM   11  F   UNK N   1      33.763  16.334   3.520  0.00  0.00    -0.166 F 
ENDBRANCH   7   8
BRANCH   7  12
HETATM   12  O   UNK N   1      34.203  18.025   6.129  0.00  0.00    -0.357 OA
HETATM   13  H   UNK N   1      34.122  18.802   5.612  0.00  0.00     0.213 HD
ENDBRANCH   7  12
BRANCH   7  14
HETATM   14  O   UNK N   1      34.928  15.953   5.719  0.00  0.00    -0.357 OA
HETATM   15  H   UNK N   1      35.765  15.534   5.770  0.00  0.00     0.213 HD
ENDBRANCH   7  14
ENDBRANCH   1   7
BRANCH   1  16
HETATM   16  C   UNK N   1      32.452  17.344   8.000  0.00  0.00     0.069 C 
BRANCH  16  17
HETATM   17  C   UNK N   1      30.968  17.562   8.116  0.00  0.00    -0.056 A 
HETATM   18  C   UNK N   1      30.456  18.336   9.164  0.00  0.00     0.007 A 
HETATM   19  C   UNK N   1      29.087  18.624   9.223  0.00  0.00     0.001 A 
HETATM   20  C   UNK N   1      28.226  18.148   8.231  0.00  0.00     0.000 A 
HETATM   21  C   UNK N   1      28.735  17.391   7.171  0.00  0.00     0.001 A 
HETATM   22  C   UNK N   1      30.102  17.115   7.106  0.00  0.00     0.007 A 
ENDBRANCH  16  17
ENDBRANCH   1  16
TORSDOF 7
ENDMDL
MODEL 7
REMARK VINA RESULT:      -5.6     17.845     19.271
REMARK  7 active torsions:
REMARK  status: ('A' for Active; 'I' for Inactive)
REMARK       I    between atoms: C_2  and  N_4 
REMARK    1  A    between atoms: C_5  and  N_4 
REMARK    2  A    between atoms: C_5  and  C_6 
REMARK    3  A    between atoms: C_5  and  C_8 
REMARK    4  A    between atoms: C_6  and  C_7 
REMARK    5  A    between atoms: C_6  and  O_9 
REMARK    6  A    between atoms: C_6  and  O_10 
REMARK    7  A    between atoms: C_8  and  C_14 
ROOT
HETATM    1  C   UNK N   1      36.077  11.740  14.245  0.00  0.00     0.160 C 
ENDROOT
BRANCH   1   2
HETATM    2  N   UNK N   1      37.268  10.933  14.033  0.00  0.00    -0.351 N 
HETATM    3  C   UNK N   1      37.800  10.087  14.952  0.00  0.00     0.214 C 
HETATM    4  C   UNK N   1      39.043   9.338  14.627  0.00  0.00     0.117 C 
HETATM    5  O   UNK N   1      37.246   9.897  16.028  0.00  0.00    -0.274 OA
HETATM    6  H   UNK N   1      37.722  11.006  13.163  0.00  0.00     0.163 HD
ENDBRANCH   1   2
BRANCH   1   7
HETATM    7  C   UNK N   1      35.058  11.501  13.117  0.00  0.00     0.282 C 
BRANCH   7   8
HETATM    8  C   UNK N   1      34.035  10.449  13.532  0.00  0.00     0.446 C 
HETATM    9  F   UNK N   1      33.249  10.909  14.576  0.00  0.00    -0.166 F 
HETATM   10  F   UNK N   1      33.211  10.168  12.457  0.00  0.00    -0.166 F 
HETATM   11  F   UNK N   1      34.640   9.262  13.909  0.00  0.00    -0.166 F 
ENDBRANCH   7   8
BRANCH   7  12
HETATM   12  O   UNK N   1      34.392  12.649  12.877  0.00  0.00    -0.357 OA
HETATM   13  H   UNK N   1      33.696  13.077  13.336  0.00  0.00     0.213 HD
ENDBRANCH   7  12
BRANCH   7  14
HETATM   14  O   UNK N   1      35.704  11.061  12.015  0.00  0.00    -0.357 OA
HETATM   15  H   UNK N   1      35.960  10.833  11.143  0.00  0.00     0.213 HD
ENDBRANCH   7  14
ENDBRANCH   1   7
BRANCH   1  16
HETATM   16  C   UNK N   1      36.582  13.202  14.350  0.00  0.00     0.069 C 
BRANCH  16  17
HETATM   17  C   UNK N   1      36.527  13.948  15.656  0.00  0.00    -0.056 A 
HETATM   18  C   UNK N   1      37.253  15.134  15.812  0.00  0.00     0.007 A 
HETATM   19  C   UNK N   1      37.131  15.884  16.989  0.00  0.00     0.001 A 
HETATM   20  C   UNK N   1      36.276  15.456  18.008  0.00  0.00     0.000 A 
HETATM   21  C   UNK N   1      35.535  14.282  17.849  0.00  0.00     0.001 A 
HETATM   22  C   UNK N   1      35.648  13.542  16.671  0.00  0.00     0.007 A 
ENDBRANCH  16  17
ENDBRANCH   1  16
TORSDOF 7
ENDMDL
MODEL 8
REMARK VINA RESULT:      -5.6     14.886     16.555
REMARK  7 active torsions:
REMARK  status: ('A' for Active; 'I' for Inactive)
REMARK       I    between atoms: C_2  and  N_4 
REMARK    1  A    between atoms: C_5  and  N_4 
REMARK    2  A    between atoms: C_5  and  C_6 
REMARK    3  A    between atoms: C_5  and  C_8 
REMARK    4  A    between atoms: C_6  and  C_7 
REMARK    5  A    between atoms: C_6  and  O_9 
REMARK    6  A    between atoms: C_6  and  O_10 
REMARK    7  A    between atoms: C_8  and  C_14 
ROOT
HETATM    1  C   UNK N   1      36.321  14.276  11.609  0.00  0.00     0.160 C 
ENDROOT
BRANCH   1   2
HETATM    2  N   UNK N   1      36.809  14.256  12.979  0.00  0.00    -0.351 N 
HETATM    3  C   UNK N   1      36.072  13.878  14.055  0.00  0.00     0.214 C 
HETATM    4  C   UNK N   1      36.676  13.931  15.413  0.00  0.00     0.117 C 
HETATM    5  O   UNK N   1      34.932  13.452  13.919  0.00  0.00    -0.274 OA
HETATM    6  H   UNK N   1      37.739  14.537  13.138  0.00  0.00     0.163 HD
ENDBRANCH   1   2
BRANCH   1   7
HETATM    7  C   UNK N   1      37.449  13.907  10.630  0.00  0.00     0.282 C 
BRANCH   7   8
HETATM    8  C   UNK N   1      36.892  13.144   9.434  0.00  0.00     0.446 C 
HETATM    9  F   UNK N   1      35.751  12.441   9.784  0.00  0.00    -0.166 F 
HETATM   10  F   UNK N   1      36.560  14.043   8.436  0.00  0.00    -0.166 F 
HETATM   11  F   UNK N   1      37.822  12.265   8.904  0.00  0.00    -0.166 F 
ENDBRANCH   7   8
BRANCH   7  12
HETATM   12  O   UNK N   1      38.016  15.040  10.168  0.00  0.00    -0.357 OA
HETATM   13  H   UNK N   1      38.528  15.218   9.403  0.00  0.00     0.213 HD
ENDBRANCH   7  12
BRANCH   7  14
HETATM   14  O   UNK N   1      38.349  13.121  11.260  0.00  0.00    -0.357 OA
HETATM   15  H   UNK N   1      39.083  12.584  11.490  0.00  0.00     0.213 HD
ENDBRANCH   7  14
ENDBRANCH   1   7
BRANCH   1  16
HETATM   16  C   UNK N   1      35.734  15.697  11.401  0.00  0.00     0.069 C 
BRANCH  16  17
HETATM   17  C   UNK N   1      34.658  15.948  10.380  0.00  0.00    -0.056 A 
HETATM   18  C   UNK N   1      34.745  17.060   9.535  0.00  0.00     0.007 A 
HETATM   19  C   UNK N   1      33.800  17.246   8.518  0.00  0.00     0.001 A 
HETATM   20  C   UNK N   1      32.771  16.318   8.337  0.00  0.00     0.000 A 
HETATM   21  C   UNK N   1      32.691  15.196   9.166  0.00  0.00     0.001 A 
HETATM   22  C   UNK N   1      33.641  15.004  10.172  0.00  0.00     0.007 A 
ENDBRANCH  16  17
ENDBRANCH   1  16
TORSDOF 7
ENDMDL
MODEL 9
REMARK VINA RESULT:      -5.6     11.571     13.177
REMARK  7 active torsions:
REMARK  status: ('A' for Active; 'I' for Inactive)
REMARK       I    between atoms: C_2  and  N_4 
REMARK    1  A    between atoms: C_5  and  N_4 
REMARK    2  A    between atoms: C_5  and  C_6 
REMARK    3  A    between atoms: C_5  and  C_8 
REMARK    4  A    between atoms: C_6  and  C_7 
REMARK    5  A    between atoms: C_6  and  O_9 
REMARK    6  A    between atoms: C_6  and  O_10 
REMARK    7  A    between atoms: C_8  and  C_14 
ROOT
HETATM    1  C   UNK N   1      29.113  23.563  -4.406  0.00  0.00     0.160 C 
ENDROOT
BRANCH   1   2
HETATM    2  N   UNK N   1      28.325  24.776  -4.253  0.00  0.00    -0.351 N 
HETATM    3  C   UNK N   1      27.190  24.869  -3.515  0.00  0.00     0.214 C 
HETATM    4  C   UNK N   1      26.454  26.161  -3.461  0.00  0.00     0.117 C 
HETATM    5  O   UNK N   1      26.786  23.918  -2.857  0.00  0.00    -0.274 OA
HETATM    6  H   UNK N   1      28.637  25.586  -4.717  0.00  0.00     0.163 HD
ENDBRANCH   1   2
BRANCH   1   7
HETATM    7  C   UNK N   1      30.440  23.682  -3.635  0.00  0.00     0.282 C 
BRANCH   7   8
HETATM    8  C   UNK N   1      30.582  22.540  -2.635  0.00  0.00     0.446 C 
HETATM    9  F   UNK N   1      30.042  22.887  -1.408  0.00  0.00    -0.166 F 
HETATM   10  F   UNK N   1      29.904  21.432  -3.112  0.00  0.00    -0.166 F 
HETATM   11  F   UNK N   1      31.905  22.170  -2.460  0.00  0.00    -0.166 F 
ENDBRANCH   7   8
BRANCH   7  12
HETATM   12  O   UNK N   1      31.464  23.594  -4.509  0.00  0.00    -0.357 OA
HETATM   13  H   UNK N   1      31.516  23.256  -5.381  0.00  0.00     0.213 HD
ENDBRANCH   7  12
BRANCH   7  14
HETATM   14  O   UNK N   1      30.461  24.851  -2.959  0.00  0.00    -0.357 OA
HETATM   15  H   UNK N   1      30.538  25.748  -2.698  0.00  0.00     0.213 HD
ENDBRANCH   7  14
ENDBRANCH   1   7
BRANCH   1  16
HETATM   16  C   UNK N   1      29.279  23.370  -5.937  0.00  0.00     0.069 C 
BRANCH  16  17
HETATM   17  C   UNK N   1      29.125  22.012  -6.566  0.00  0.00    -0.056 A 
HETATM   18  C   UNK N   1      28.090  21.781  -7.480  0.00  0.00     0.007 A 
HETATM   19  C   UNK N   1      27.998  20.551  -8.143  0.00  0.00     0.001 A 
HETATM   20  C   UNK N   1      28.945  19.551  -7.901  0.00  0.00     0.000 A 
HETATM   21  C   UNK N   1      29.990  19.784  -7.004  0.00  0.00     0.001 A 
HETATM   22  C   UNK N   1      30.089  21.015  -6.353  0.00  0.00     0.007 A 
ENDBRANCH  16  17
ENDBRANCH   1  16
TORSDOF 7
ENDMDL
