MODEL 1
REMARK VINA RESULT:      -4.9      0.000      0.000
REMARK  2 active torsions:
REMARK  status: ('A' for Active; 'I' for Inactive)
REMARK       I    between atoms: N_1  and  C_2 
REMARK    1  A    between atoms: C_5  and  C_6 
REMARK    2  A    between atoms: C_6  and  O_8 
ROOT
HETATM    1  N   UNK N   1      32.850  16.408   8.461  0.00  0.00    -0.338 N 
HETATM    2  C   UNK N   1      31.642  17.016   8.218  0.00  0.00     0.216 C 
HETATM    3  O   UNK N   1      30.731  16.389   7.699  0.00  0.00    -0.274 OA
HETATM    4  C   UNK N   1      31.375  18.436   8.614  0.00  0.00     0.117 C 
HETATM    5  C   UNK N   1      33.975  17.157   9.065  0.00  0.00     0.184 C 
HETATM    6  C   UNK N   1      35.086  16.245   9.610  0.00  0.00     0.036 C 
HETATM    7  C   UNK N   1      35.361  15.076   8.699  0.00  0.00     0.004 C 
HETATM    8  C   UNK N   1      34.112  14.238   8.740  0.00  0.00     0.020 C 
HETATM    9  C   UNK N   1      32.967  14.995   8.083  0.00  0.00     0.127 C 
ENDROOT
BRANCH   5  10
HETATM   10  C   UNK N   1      34.565  18.175   8.097  0.00  0.00     0.163 C 
HETATM   11  O   UNK N   1      35.187  19.139   8.515  0.00  0.00    -0.648 OA
BRANCH  10  12
HETATM   12  O   UNK N   1      34.445  18.007   6.765  0.00  0.00    -0.775 OA
HETATM   13  H   UNK N   1      34.431  18.704   6.139  0.00  0.00     0.167 HD
ENDBRANCH  10  12
ENDBRANCH   5  10
TORSDOF 2
ENDMDL
MODEL 2
REMARK VINA RESULT:      -4.8      6.743      7.605
REMARK  2 active torsions:
REMARK  status: ('A' for Active; 'I' for Inactive)
REMARK       I    between atoms: N_1  and  C_2 
REMARK    1  A    between atoms: C_5  and  C_6 
REMARK    2  A    between atoms: C_6  and  O_8 
ROOT
HETATM    1  N   UNK N   1      35.033  12.743  13.523  0.00  0.00    -0.338 N 
HETATM    2  C   UNK N   1      35.247  13.413  12.342  0.00  0.00     0.216 C 
HETATM    3  O   UNK N   1      34.969  12.883  11.276  0.00  0.00    -0.274 OA
HETATM    4  C   UNK N   1      35.776  14.814  12.309  0.00  0.00     0.117 C 
HETATM    5  C   UNK N   1      35.387  13.356  14.823  0.00  0.00     0.184 C 
HETATM    6  C   UNK N   1      34.736  12.649  16.023  0.00  0.00     0.036 C 
HETATM    7  C   UNK N   1      34.740  11.150  15.870  0.00  0.00     0.004 C 
HETATM    8  C   UNK N   1      33.828  10.867  14.708  0.00  0.00     0.020 C 
HETATM    9  C   UNK N   1      34.453  11.399  13.426  0.00  0.00     0.127 C 
ENDROOT
BRANCH   5  10
HETATM   10  C   UNK N   1      36.896  13.437  15.022  0.00  0.00     0.163 C 
HETATM   11  O   UNK N   1      37.393  14.384  15.610  0.00  0.00    -0.648 OA
BRANCH  10  12
HETATM   12  O   UNK N   1      37.700  12.446  14.587  0.00  0.00    -0.775 OA
HETATM   13  H   UNK N   1      38.624  12.407  14.735  0.00  0.00     0.167 HD
ENDBRANCH  10  12
ENDBRANCH   5  10
TORSDOF 2
ENDMDL
MODEL 3
REMARK VINA RESULT:      -4.7     16.106     17.567
REMARK  2 active torsions:
REMARK  status: ('A' for Active; 'I' for Inactive)
REMARK       I    between atoms: N_1  and  C_2 
REMARK    1  A    between atoms: C_5  and  C_6 
REMARK    2  A    between atoms: C_6  and  O_8 
ROOT
HETATM    1  N   UNK N   1      26.261  25.341  -5.593  0.00  0.00    -0.338 N 
HETATM    2  C   UNK N   1      26.255  24.313  -6.504  0.00  0.00     0.216 C 
HETATM    3  O   UNK N   1      25.295  24.151  -7.243  0.00  0.00    -0.274 OA
HETATM    4  C   UNK N   1      27.422  23.387  -6.665  0.00  0.00     0.117 C 
HETATM    5  C   UNK N   1      27.404  25.538  -4.672  0.00  0.00     0.184 C 
HETATM    6  C   UNK N   1      27.417  26.926  -4.013  0.00  0.00     0.036 C 
HETATM    7  C   UNK N   1      26.036  27.378  -3.610  0.00  0.00     0.004 C 
HETATM    8  C   UNK N   1      25.287  27.566  -4.901  0.00  0.00     0.020 C 
HETATM    9  C   UNK N   1      25.084  26.216  -5.575  0.00  0.00     0.127 C 
ENDROOT
BRANCH   5  10
HETATM   10  C   UNK N   1      27.466  24.454  -3.603  0.00  0.00     0.163 C 
HETATM   11  O   UNK N   1      28.541  24.000  -3.244  0.00  0.00    -0.648 OA
BRANCH  10  12
HETATM   12  O   UNK N   1      26.341  24.007  -3.011  0.00  0.00    -0.775 OA
HETATM   13  H   UNK N   1      25.807  24.513  -2.431  0.00  0.00     0.167 HD
ENDBRANCH  10  12
ENDBRANCH   5  10
TORSDOF 2
ENDMDL
MODEL 4
REMARK VINA RESULT:      -4.6     11.092     12.434
REMARK  2 active torsions:
REMARK  status: ('A' for Active; 'I' for Inactive)
REMARK       I    between atoms: N_1  and  C_2 
REMARK    1  A    between atoms: C_5  and  C_6 
REMARK    2  A    between atoms: C_6  and  O_8 
ROOT
HETATM    1  N   UNK N   1      21.221  13.621   9.775  0.00  0.00    -0.338 N 
HETATM    2  C   UNK N   1      20.274  14.521   9.352  0.00  0.00     0.216 C 
HETATM    3  O   UNK N   1      19.137  14.473   9.797  0.00  0.00    -0.274 OA
HETATM    4  C   UNK N   1      20.595  15.614   8.378  0.00  0.00     0.117 C 
HETATM    5  C   UNK N   1      22.597  13.647   9.228  0.00  0.00     0.184 C 
HETATM    6  C   UNK N   1      23.600  12.848  10.074  0.00  0.00     0.036 C 
HETATM    7  C   UNK N   1      23.014  11.555  10.582  0.00  0.00     0.004 C 
HETATM    8  C   UNK N   1      21.929  11.960  11.541  0.00  0.00     0.020 C 
HETATM    9  C   UNK N   1      20.799  12.638  10.778  0.00  0.00     0.127 C 
ENDROOT
BRANCH   5  10
HETATM   10  C   UNK N   1      22.643  13.172   7.781  0.00  0.00     0.163 C 
HETATM   11  O   UNK N   1      23.391  13.704   6.977  0.00  0.00    -0.648 OA
BRANCH  10  12
HETATM   12  O   UNK N   1      21.887  12.131   7.375  0.00  0.00    -0.775 OA
HETATM   13  H   UNK N   1      21.841  11.304   7.812  0.00  0.00     0.167 HD
ENDBRANCH  10  12
ENDBRANCH   5  10
TORSDOF 2
ENDMDL
MODEL 5
REMARK VINA RESULT:      -4.6      1.633      3.486
REMARK  2 active torsions:
REMARK  status: ('A' for Active; 'I' for Inactive)
REMARK       I    between atoms: N_1  and  C_2 
REMARK    1  A    between atoms: C_5  and  C_6 
REMARK    2  A    between atoms: C_6  and  O_8 
ROOT
HETATM    1  N   UNK N   1      34.568  16.831   9.004  0.00  0.00    -0.338 N 
HETATM    2  C   UNK N   1      34.477  17.847   8.085  0.00  0.00     0.216 C 
HETATM    3  O   UNK N   1      34.887  18.965   8.360  0.00  0.00    -0.274 OA
HETATM    4  C   UNK N   1      33.924  17.627   6.710  0.00  0.00     0.117 C 
HETATM    5  C   UNK N   1      34.053  15.477   8.699  0.00  0.00     0.184 C 
HETATM    6  C   UNK N   1      34.577  14.399   9.661  0.00  0.00     0.036 C 
HETATM    7  C   UNK N   1      34.625  14.884  11.088  0.00  0.00     0.004 C 
HETATM    8  C   UNK N   1      35.671  15.965  11.105  0.00  0.00     0.020 C 
HETATM    9  C   UNK N   1      35.186  17.158  10.294  0.00  0.00     0.127 C 
ENDROOT
BRANCH   5  10
HETATM   10  C   UNK N   1      32.530  15.443   8.660  0.00  0.00     0.163 C 
HETATM   11  O   UNK N   1      31.947  14.659   7.928  0.00  0.00    -0.648 OA
BRANCH  10  12
HETATM   12  O   UNK N   1      31.804  16.250   9.459  0.00  0.00    -0.775 OA
HETATM   13  H   UNK N   1      32.011  17.145   9.643  0.00  0.00     0.167 HD
ENDBRANCH  10  12
ENDBRANCH   5  10
TORSDOF 2
ENDMDL
MODEL 6
REMARK VINA RESULT:      -4.6     17.261     18.628
REMARK  2 active torsions:
REMARK  status: ('A' for Active; 'I' for Inactive)
REMARK       I    between atoms: N_1  and  C_2 
REMARK    1  A    between atoms: C_5  and  C_6 
REMARK    2  A    between atoms: C_6  and  O_8 
ROOT
HETATM    1  N   UNK N   1      26.612  26.446  -5.776  0.00  0.00    -0.338 N 
HETATM    2  C   UNK N   1      25.970  25.232  -5.746  0.00  0.00     0.216 C 
HETATM    3  O   UNK N   1      25.518  24.749  -6.774  0.00  0.00    -0.274 OA
HETATM    4  C   UNK N   1      25.837  24.435  -4.484  0.00  0.00     0.117 C 
HETATM    5  C   UNK N   1      27.143  27.061  -4.538  0.00  0.00     0.184 C 
HETATM    6  C   UNK N   1      28.145  28.195  -4.806  0.00  0.00     0.036 C 
HETATM    7  C   UNK N   1      27.720  29.068  -5.960  0.00  0.00     0.004 C 
HETATM    8  C   UNK N   1      27.795  28.185  -7.175  0.00  0.00     0.020 C 
HETATM    9  C   UNK N   1      26.731  27.099  -7.084  0.00  0.00     0.127 C 
ENDROOT
BRANCH   5  10
HETATM   10  C   UNK N   1      26.028  27.556  -3.625  0.00  0.00     0.163 C 
HETATM   11  O   UNK N   1      26.087  27.375  -2.420  0.00  0.00    -0.648 OA
BRANCH  10  12
HETATM   12  O   UNK N   1      24.979  28.237  -4.129  0.00  0.00    -0.775 OA
HETATM   13  H   UNK N   1      24.222  28.489  -3.639  0.00  0.00     0.167 HD
ENDBRANCH  10  12
ENDBRANCH   5  10
TORSDOF 2
ENDMDL
MODEL 7
REMARK VINA RESULT:      -4.5      2.206      4.310
REMARK  2 active torsions:
REMARK  status: ('A' for Active; 'I' for Inactive)
REMARK       I    between atoms: N_1  and  C_2 
REMARK    1  A    between atoms: C_5  and  C_6 
REMARK    2  A    between atoms: C_6  and  O_8 
ROOT
HETATM    1  N   UNK N   1      34.217  16.435   9.510  0.00  0.00    -0.338 N 
HETATM    2  C   UNK N   1      35.115  16.061  10.480  0.00  0.00     0.216 C 
HETATM    3  O   UNK N   1      36.167  16.670  10.612  0.00  0.00    -0.274 OA
HETATM    4  C   UNK N   1      34.833  14.941  11.435  0.00  0.00     0.117 C 
HETATM    5  C   UNK N   1      32.949  15.695   9.317  0.00  0.00     0.184 C 
HETATM    6  C   UNK N   1      31.919  16.467   8.478  0.00  0.00     0.036 C 
HETATM    7  C   UNK N   1      32.557  17.188   7.317  0.00  0.00     0.004 C 
HETATM    8  C   UNK N   1      33.428  18.246   7.936  0.00  0.00     0.020 C 
HETATM    9  C   UNK N   1      34.582  17.587   8.679  0.00  0.00     0.127 C 
ENDROOT
BRANCH   5  10
HETATM   10  C   UNK N   1      33.183  14.315   8.715  0.00  0.00     0.163 C 
HETATM   11  O   UNK N   1      34.050  14.145   7.873  0.00  0.00    -0.648 OA
BRANCH  10  12
HETATM   12  O   UNK N   1      32.462  13.253   9.130  0.00  0.00    -0.775 OA
HETATM   13  H   UNK N   1      32.582  12.376   8.825  0.00  0.00     0.167 HD
ENDBRANCH  10  12
ENDBRANCH   5  10
TORSDOF 2
ENDMDL
MODEL 8
REMARK VINA RESULT:      -4.5      8.045      9.168
REMARK  2 active torsions:
REMARK  status: ('A' for Active; 'I' for Inactive)
REMARK       I    between atoms: N_1  and  C_2 
REMARK    1  A    between atoms: C_5  and  C_6 
REMARK    2  A    between atoms: C_6  and  O_8 
ROOT
HETATM    1  N   UNK N   1      36.426  11.513  15.170  0.00  0.00    -0.338 N 
HETATM    2  C   UNK N   1      37.177  10.891  14.202  0.00  0.00     0.216 C 
HETATM    3  O   UNK N   1      37.838   9.901  14.479  0.00  0.00    -0.274 OA
HETATM    4  C   UNK N   1      37.184  11.360  12.779  0.00  0.00     0.117 C 
HETATM    5  C   UNK N   1      35.638  12.729  14.862  0.00  0.00     0.184 C 
HETATM    6  C   UNK N   1      34.581  13.052  15.930  0.00  0.00     0.036 C 
HETATM    7  C   UNK N   1      35.095  12.820  17.328  0.00  0.00     0.004 C 
HETATM    8  C   UNK N   1      35.313  11.335  17.430  0.00  0.00     0.020 C 
HETATM    9  C   UNK N   1      36.454  10.922  16.512  0.00  0.00     0.127 C 
ENDROOT
BRANCH   5  10
HETATM   10  C   UNK N   1      36.532  13.941  14.630  0.00  0.00     0.163 C 
HETATM   11  O   UNK N   1      36.292  14.723  13.724  0.00  0.00    -0.648 OA
BRANCH  10  12
HETATM   12  O   UNK N   1      37.576  14.191  15.445  0.00  0.00    -0.775 OA
HETATM   13  H   UNK N   1      37.888  15.047  15.666  0.00  0.00     0.167 HD
ENDBRANCH  10  12
ENDBRANCH   5  10
TORSDOF 2
ENDMDL
MODEL 9
REMARK VINA RESULT:      -4.4      3.137      4.047
REMARK  2 active torsions:
REMARK  status: ('A' for Active; 'I' for Inactive)
REMARK       I    between atoms: N_1  and  C_2 
REMARK    1  A    between atoms: C_5  and  C_6 
REMARK    2  A    between atoms: C_6  and  O_8 
ROOT
HETATM    1  N   UNK N   1      31.752  16.672   5.640  0.00  0.00    -0.338 N 
HETATM    2  C   UNK N   1      31.154  16.825   6.868  0.00  0.00     0.216 C 
HETATM    3  O   UNK N   1      30.138  17.495   6.978  0.00  0.00    -0.274 OA
HETATM    4  C   UNK N   1      31.683  16.154   8.098  0.00  0.00     0.117 C 
HETATM    5  C   UNK N   1      32.998  15.886   5.491  0.00  0.00     0.184 C 
HETATM    6  C   UNK N   1      33.300  15.502   4.034  0.00  0.00     0.036 C 
HETATM    7  C   UNK N   1      32.996  16.626   3.075  0.00  0.00     0.004 C 
HETATM    8  C   UNK N   1      31.504  16.803   3.130  0.00  0.00     0.020 C 
HETATM    9  C   UNK N   1      31.103  17.329   4.501  0.00  0.00     0.127 C 
ENDROOT
BRANCH   5  10
HETATM   10  C   UNK N   1      34.198  16.601   6.100  0.00  0.00     0.163 C 
HETATM   11  O   UNK N   1      35.158  15.965   6.504  0.00  0.00    -0.648 OA
BRANCH  10  12
HETATM   12  O   UNK N   1      34.234  17.947   6.168  0.00  0.00    -0.775 OA
HETATM   13  H   UNK N   1      33.808  18.459   6.826  0.00  0.00     0.167 HD
ENDBRANCH  10  12
ENDBRANCH   5  10
TORSDOF 2
ENDMDL
