REMARK  2 active torsions:
REMARK  status: ('A' for Active; 'I' for Inactive)
REMARK       I    between atoms: N_1  and  C_2 
REMARK    1  A    between atoms: C_5  and  C_6 
REMARK    2  A    between atoms: C_6  and  O_8 
ROOT
HETATM    1  N   UNK N   1       0.243   0.784  -0.026  0.00  0.00    -0.338 N 
HETATM    2  C   UNK N   1       1.399   1.526  -0.037  0.00  0.00     0.216 C 
HETATM    3  O   UNK N   1       1.405   2.648  -0.522  0.00  0.00    -0.274 OA
HETATM    4  C   UNK N   1       2.671   1.024   0.575  0.00  0.00     0.117 C 
HETATM    5  C   UNK N   1       0.221  -0.587   0.533  0.00  0.00     0.184 C 
HETATM    6  C   UNK N   1      -1.199  -1.104   0.813  0.00  0.00     0.036 C 
HETATM    7  C   UNK N   1      -2.170  -0.716  -0.273  0.00  0.00     0.004 C 
HETATM    8  C   UNK N   1      -2.277   0.782  -0.194  0.00  0.00     0.020 C 
HETATM    9  C   UNK N   1      -0.952   1.411  -0.601  0.00  0.00     0.127 C 
ENDROOT
BRANCH   5  10
HETATM   10  C   UNK N   1       0.969  -1.575  -0.354  0.00  0.00     0.163 C 
HETATM   11  O   UNK N   1       2.155  -1.417  -0.594  0.00  0.00    -0.648 OA
BRANCH  10  12
HETATM   12  O   UNK N   1       0.343  -2.659  -0.855  0.00  0.00    -0.775 OA
HETATM   13  H   UNK N   1      -0.527  -2.659  -1.202  0.00  0.00     0.167 HD
ENDBRANCH  10  12
ENDBRANCH   5  10
TORSDOF 2
