MODEL 1
REMARK VINA RESULT:      -5.0      0.000      0.000
REMARK  7 active torsions:
REMARK  status: ('A' for Active; 'I' for Inactive)
REMARK    1  A    between atoms: C_2  and  C_3 
REMARK    2  A    between atoms: C_3  and  C_4 
REMARK    3  A    between atoms: C_4  and  S_12 
REMARK    4  A    between atoms: C_5  and  C_6 
REMARK    5  A    between atoms: C_5  and  S_12 
REMARK    6  A    between atoms: C_6  and  C_7 
REMARK    7  A    between atoms: C_7  and  O_10 
ROOT
HETATM    1  O   UNK N   1      20.363  13.529   7.777  0.00  0.00    -0.228 OA
HETATM    2  O   UNK N   1      19.545  13.970   9.887  0.00  0.00    -0.228 OA
HETATM    3  S   UNK N   1      20.768  14.324   9.029  0.00  0.00     0.144 S 
ENDROOT
BRANCH   3   4
HETATM    4  C   UNK N   1      22.175  13.461   9.809  0.00  0.00     0.140 C 
BRANCH   4   5
HETATM    5  C   UNK N   1      21.713  12.499  10.889  0.00  0.00     0.014 C 
BRANCH   5   6
HETATM    6  C   UNK N   1      22.921  11.894  11.576  0.00  0.00    -0.004 C 
HETATM    7  C   UNK N   1      24.173  12.219  10.787  0.00  0.00     0.005 C 
ENDBRANCH   5   6
ENDBRANCH   4   5
ENDBRANCH   3   4
BRANCH   3   8
HETATM    8  C   UNK N   1      20.589  16.100   8.643  0.00  0.00     0.150 C 
BRANCH   8   9
HETATM    9  C   UNK N   1      19.162  16.586   8.862  0.00  0.00     0.125 C 
BRANCH   9  10
HETATM   10  C   UNK N   1      19.111  18.032   9.267  0.00  0.00     0.140 C 
HETATM   11  O   UNK N   1      20.026  18.776   8.952  0.00  0.00    -0.650 OA
BRANCH  10  12
HETATM   12  O   UNK N   1      18.064  18.523   9.961  0.00  0.00    -0.776 OA
HETATM   13  H   UNK N   1      17.200  18.199   9.802  0.00  0.00     0.167 HD
ENDBRANCH  10  12
ENDBRANCH   9  10
ENDBRANCH   8   9
ENDBRANCH   3   8
TORSDOF 7
ENDMDL
MODEL 2
REMARK VINA RESULT:      -4.8     12.317     13.996
REMARK  7 active torsions:
REMARK  status: ('A' for Active; 'I' for Inactive)
REMARK    1  A    between atoms: C_2  and  C_3 
REMARK    2  A    between atoms: C_3  and  C_4 
REMARK    3  A    between atoms: C_4  and  S_12 
REMARK    4  A    between atoms: C_5  and  C_6 
REMARK    5  A    between atoms: C_5  and  S_12 
REMARK    6  A    between atoms: C_6  and  C_7 
REMARK    7  A    between atoms: C_7  and  O_10 
ROOT
HETATM    1  O   UNK N   1      34.544  17.748   6.604  0.00  0.00    -0.228 OA
HETATM    2  O   UNK N   1      35.120  18.988   8.461  0.00  0.00    -0.228 OA
HETATM    3  S   UNK N   1      34.204  17.810   8.103  0.00  0.00     0.144 S 
ENDROOT
BRANCH   3   4
HETATM    4  C   UNK N   1      32.502  18.451   8.264  0.00  0.00     0.140 C 
BRANCH   4   5
HETATM    5  C   UNK N   1      31.500  17.331   8.482  0.00  0.00     0.014 C 
BRANCH   5   6
HETATM    6  C   UNK N   1      30.094  17.892   8.413  0.00  0.00    -0.004 C 
HETATM    7  C   UNK N   1      29.764  18.605   9.709  0.00  0.00     0.005 C 
ENDBRANCH   5   6
ENDBRANCH   4   5
ENDBRANCH   3   4
BRANCH   3   8
HETATM    8  C   UNK N   1      34.957  16.352   8.904  0.00  0.00     0.150 C 
BRANCH   8   9
HETATM    9  C   UNK N   1      35.219  16.592  10.385  0.00  0.00     0.125 C 
BRANCH   9  10
HETATM   10  C   UNK N   1      34.745  15.450  11.238  0.00  0.00     0.140 C 
HETATM   11  O   UNK N   1      35.518  14.931  12.029  0.00  0.00    -0.650 OA
BRANCH  10  12
HETATM   12  O   UNK N   1      33.478  14.998  11.154  0.00  0.00    -0.776 OA
HETATM   13  H   UNK N   1      32.924  15.278  10.453  0.00  0.00     0.167 HD
ENDBRANCH  10  12
ENDBRANCH   9  10
ENDBRANCH   8   9
ENDBRANCH   3   8
TORSDOF 7
ENDMDL
MODEL 3
REMARK VINA RESULT:      -4.7      1.511      2.066
REMARK  7 active torsions:
REMARK  status: ('A' for Active; 'I' for Inactive)
REMARK    1  A    between atoms: C_2  and  C_3 
REMARK    2  A    between atoms: C_3  and  C_4 
REMARK    3  A    between atoms: C_4  and  S_12 
REMARK    4  A    between atoms: C_5  and  C_6 
REMARK    5  A    between atoms: C_5  and  S_12 
REMARK    6  A    between atoms: C_6  and  C_7 
REMARK    7  A    between atoms: C_7  and  O_10 
ROOT
HETATM    1  O   UNK N   1      20.323  13.739   7.752  0.00  0.00    -0.228 OA
HETATM    2  O   UNK N   1      19.460  14.018   9.872  0.00  0.00    -0.228 OA
HETATM    3  S   UNK N   1      20.682  14.467   9.059  0.00  0.00     0.144 S 
ENDROOT
BRANCH   3   4
HETATM    4  C   UNK N   1      22.107  13.604   9.806  0.00  0.00     0.140 C 
BRANCH   4   5
HETATM    5  C   UNK N   1      21.661  12.518  10.769  0.00  0.00     0.014 C 
BRANCH   5   6
HETATM    6  C   UNK N   1      22.862  11.998  11.533  0.00  0.00    -0.004 C 
HETATM    7  C   UNK N   1      24.119  12.210  10.715  0.00  0.00     0.005 C 
ENDBRANCH   5   6
ENDBRANCH   4   5
ENDBRANCH   3   4
BRANCH   3   8
HETATM    8  C   UNK N   1      20.447  16.256   8.781  0.00  0.00     0.150 C 
BRANCH   8   9
HETATM    9  C   UNK N   1      20.205  16.575   7.311  0.00  0.00     0.125 C 
BRANCH   9  10
HETATM   10  C   UNK N   1      21.096  17.678   6.815  0.00  0.00     0.140 C 
HETATM   11  O   UNK N   1      20.893  18.824   7.185  0.00  0.00    -0.650 OA
BRANCH  10  12
HETATM   12  O   UNK N   1      22.123  17.421   5.980  0.00  0.00    -0.776 OA
HETATM   13  H   UNK N   1      22.843  18.017   5.922  0.00  0.00     0.167 HD
ENDBRANCH  10  12
ENDBRANCH   9  10
ENDBRANCH   8   9
ENDBRANCH   3   8
TORSDOF 7
ENDMDL
MODEL 4
REMARK VINA RESULT:      -4.4     11.219     12.534
REMARK  7 active torsions:
REMARK  status: ('A' for Active; 'I' for Inactive)
REMARK    1  A    between atoms: C_2  and  C_3 
REMARK    2  A    between atoms: C_3  and  C_4 
REMARK    3  A    between atoms: C_4  and  S_12 
REMARK    4  A    between atoms: C_5  and  C_6 
REMARK    5  A    between atoms: C_5  and  S_12 
REMARK    6  A    between atoms: C_6  and  C_7 
REMARK    7  A    between atoms: C_7  and  O_10 
ROOT
HETATM    1  O   UNK N   1      31.882  15.708   9.008  0.00  0.00    -0.228 OA
HETATM    2  O   UNK N   1      31.998  14.201   7.267  0.00  0.00    -0.228 OA
HETATM    3  S   UNK N   1      31.944  15.721   7.472  0.00  0.00     0.144 S 
ENDROOT
BRANCH   3   4
HETATM    4  C   UNK N   1      30.306  16.236   6.850  0.00  0.00     0.140 C 
BRANCH   4   5
HETATM    5  C   UNK N   1      29.982  17.666   7.244  0.00  0.00     0.014 C 
BRANCH   5   6
HETATM    6  C   UNK N   1      28.791  17.673   8.181  0.00  0.00    -0.004 C 
HETATM    7  C   UNK N   1      29.246  18.024   9.583  0.00  0.00     0.005 C 
ENDBRANCH   5   6
ENDBRANCH   4   5
ENDBRANCH   3   4
BRANCH   3   8
HETATM    8  C   UNK N   1      33.594  16.333   6.987  0.00  0.00     0.150 C 
BRANCH   8   9
HETATM    9  C   UNK N   1      33.725  17.837   7.195  0.00  0.00     0.125 C 
BRANCH   9  10
HETATM   10  C   UNK N   1      34.487  18.174   8.444  0.00  0.00     0.140 C 
HETATM   11  O   UNK N   1      35.243  19.133   8.445  0.00  0.00    -0.650 OA
BRANCH  10  12
HETATM   12  O   UNK N   1      34.340  17.443   9.568  0.00  0.00    -0.776 OA
HETATM   13  H   UNK N   1      33.678  17.666  10.191  0.00  0.00     0.167 HD
ENDBRANCH  10  12
ENDBRANCH   9  10
ENDBRANCH   8   9
ENDBRANCH   3   8
TORSDOF 7
ENDMDL
MODEL 5
REMARK VINA RESULT:      -4.3     14.583     15.649
REMARK  7 active torsions:
REMARK  status: ('A' for Active; 'I' for Inactive)
REMARK    1  A    between atoms: C_2  and  C_3 
REMARK    2  A    between atoms: C_3  and  C_4 
REMARK    3  A    between atoms: C_4  and  S_12 
REMARK    4  A    between atoms: C_5  and  C_6 
REMARK    5  A    between atoms: C_5  and  S_12 
REMARK    6  A    between atoms: C_6  and  C_7 
REMARK    7  A    between atoms: C_7  and  O_10 
ROOT
HETATM    1  O   UNK N   1      36.389  14.733  13.630  0.00  0.00    -0.228 OA
HETATM    2  O   UNK N   1      36.979  13.238  11.977  0.00  0.00    -0.228 OA
HETATM    3  S   UNK N   1      35.763  13.560  12.856  0.00  0.00     0.144 S 
ENDROOT
BRANCH   3   4
HETATM    4  C   UNK N   1      35.609  12.150  14.006  0.00  0.00     0.140 C 
BRANCH   4   5
HETATM    5  C   UNK N   1      34.768  12.506  15.219  0.00  0.00     0.014 C 
BRANCH   5   6
HETATM    6  C   UNK N   1      35.636  12.474  16.461  0.00  0.00    -0.004 C 
HETATM    7  C   UNK N   1      35.072  13.420  17.502  0.00  0.00     0.005 C 
ENDBRANCH   5   6
ENDBRANCH   4   5
ENDBRANCH   3   4
BRANCH   3   8
HETATM    8  C   UNK N   1      34.512  14.248  11.719  0.00  0.00     0.150 C 
BRANCH   8   9
HETATM    9  C   UNK N   1      35.141  14.764  10.430  0.00  0.00     0.125 C 
BRANCH   9  10
HETATM   10  C   UNK N   1      35.818  16.092  10.620  0.00  0.00     0.140 C 
HETATM   11  O   UNK N   1      35.158  17.117  10.550  0.00  0.00    -0.650 OA
BRANCH  10  12
HETATM   12  O   UNK N   1      37.139  16.168  10.881  0.00  0.00    -0.776 OA
HETATM   13  H   UNK N   1      37.515  15.645  11.561  0.00  0.00     0.167 HD
ENDBRANCH  10  12
ENDBRANCH   9  10
ENDBRANCH   8   9
ENDBRANCH   3   8
TORSDOF 7
ENDMDL
MODEL 6
REMARK VINA RESULT:      -4.3     10.767     12.046
REMARK  7 active torsions:
REMARK  status: ('A' for Active; 'I' for Inactive)
REMARK    1  A    between atoms: C_2  and  C_3 
REMARK    2  A    between atoms: C_3  and  C_4 
REMARK    3  A    between atoms: C_4  and  S_12 
REMARK    4  A    between atoms: C_5  and  C_6 
REMARK    5  A    between atoms: C_5  and  S_12 
REMARK    6  A    between atoms: C_6  and  C_7 
REMARK    7  A    between atoms: C_7  and  O_10 
ROOT
HETATM    1  O   UNK N   1      30.981  15.124   6.033  0.00  0.00    -0.228 OA
HETATM    2  O   UNK N   1      31.349  17.370   5.664  0.00  0.00    -0.228 OA
HETATM    3  S   UNK N   1      30.864  16.454   6.796  0.00  0.00     0.144 S 
ENDROOT
BRANCH   3   4
HETATM    4  C   UNK N   1      29.088  16.828   6.997  0.00  0.00     0.140 C 
BRANCH   4   5
HETATM    5  C   UNK N   1      28.818  18.320   6.914  0.00  0.00     0.014 C 
BRANCH   5   6
HETATM    6  C   UNK N   1      28.370  18.828   8.270  0.00  0.00    -0.004 C 
HETATM    7  C   UNK N   1      28.120  17.656   9.197  0.00  0.00     0.005 C 
ENDBRANCH   5   6
ENDBRANCH   4   5
ENDBRANCH   3   4
BRANCH   3   8
HETATM    8  C   UNK N   1      32.189  16.493   8.051  0.00  0.00     0.150 C 
BRANCH   8   9
HETATM    9  C   UNK N   1      32.641  17.916   8.355  0.00  0.00     0.125 C 
BRANCH   9  10
HETATM   10  C   UNK N   1      34.008  18.208   7.805  0.00  0.00     0.140 C 
HETATM   11  O   UNK N   1      34.853  18.703   8.533  0.00  0.00    -0.650 OA
BRANCH  10  12
HETATM   12  O   UNK N   1      34.319  17.918   6.526  0.00  0.00    -0.776 OA
HETATM   13  H   UNK N   1      33.801  18.262   5.825  0.00  0.00     0.167 HD
ENDBRANCH  10  12
ENDBRANCH   9  10
ENDBRANCH   8   9
ENDBRANCH   3   8
TORSDOF 7
ENDMDL
MODEL 7
REMARK VINA RESULT:      -4.2     13.221     14.989
REMARK  7 active torsions:
REMARK  status: ('A' for Active; 'I' for Inactive)
REMARK    1  A    between atoms: C_2  and  C_3 
REMARK    2  A    between atoms: C_3  and  C_4 
REMARK    3  A    between atoms: C_4  and  S_12 
REMARK    4  A    between atoms: C_5  and  C_6 
REMARK    5  A    between atoms: C_5  and  S_12 
REMARK    6  A    between atoms: C_6  and  C_7 
REMARK    7  A    between atoms: C_7  and  O_10 
ROOT
HETATM    1  O   UNK N   1      34.769  18.420   7.365  0.00  0.00    -0.228 OA
HETATM    2  O   UNK N   1      32.701  18.330   8.381  0.00  0.00    -0.228 OA
HETATM    3  S   UNK N   1      33.823  17.367   7.966  0.00  0.00     0.144 S 
ENDROOT
BRANCH   3   4
HETATM    4  C   UNK N   1      33.135  16.383   6.591  0.00  0.00     0.140 C 
BRANCH   4   5
HETATM    5  C   UNK N   1      33.751  16.774   5.260  0.00  0.00     0.014 C 
BRANCH   5   6
HETATM    6  C   UNK N   1      32.765  17.616   4.476  0.00  0.00    -0.004 C 
HETATM    7  C   UNK N   1      32.443  16.935   3.161  0.00  0.00     0.005 C 
ENDBRANCH   5   6
ENDBRANCH   4   5
ENDBRANCH   3   4
BRANCH   3   8
HETATM    8  C   UNK N   1      34.562  16.785   9.531  0.00  0.00     0.150 C 
BRANCH   8   9
HETATM    9  C   UNK N   1      35.036  15.340   9.431  0.00  0.00     0.125 C 
BRANCH   9  10
HETATM   10  C   UNK N   1      36.338  15.119  10.146  0.00  0.00     0.140 C 
HETATM   11  O   UNK N   1      36.881  14.028  10.078  0.00  0.00    -0.650 OA
BRANCH  10  12
HETATM   12  O   UNK N   1      36.924  16.110  10.848  0.00  0.00    -0.776 OA
HETATM   13  H   UNK N   1      36.756  17.005  10.629  0.00  0.00     0.167 HD
ENDBRANCH  10  12
ENDBRANCH   9  10
ENDBRANCH   8   9
ENDBRANCH   3   8
TORSDOF 7
ENDMDL
MODEL 8
REMARK VINA RESULT:      -4.1     13.833     14.390
REMARK  7 active torsions:
REMARK  status: ('A' for Active; 'I' for Inactive)
REMARK    1  A    between atoms: C_2  and  C_3 
REMARK    2  A    between atoms: C_3  and  C_4 
REMARK    3  A    between atoms: C_4  and  S_12 
REMARK    4  A    between atoms: C_5  and  C_6 
REMARK    5  A    between atoms: C_5  and  S_12 
REMARK    6  A    between atoms: C_6  and  C_7 
REMARK    7  A    between atoms: C_7  and  O_10 
ROOT
HETATM    1  O   UNK N   1      33.565  13.536   9.385  0.00  0.00    -0.228 OA
HETATM    2  O   UNK N   1      33.458  15.217  10.960  0.00  0.00    -0.228 OA
HETATM    3  S   UNK N   1      34.499  14.573  10.033  0.00  0.00     0.144 S 
ENDROOT
BRANCH   3   4
HETATM    4  C   UNK N   1      35.645  13.679  11.137  0.00  0.00     0.140 C 
BRANCH   4   5
HETATM    5  C   UNK N   1      35.956  14.480  12.389  0.00  0.00     0.014 C 
BRANCH   5   6
HETATM    6  C   UNK N   1      35.651  13.639  13.613  0.00  0.00    -0.004 C 
HETATM    7  C   UNK N   1      36.610  13.999  14.730  0.00  0.00     0.005 C 
ENDBRANCH   5   6
ENDBRANCH   4   5
ENDBRANCH   3   4
BRANCH   3   8
HETATM    8  C   UNK N   1      34.878  15.842   8.777  0.00  0.00     0.150 C 
BRANCH   8   9
HETATM    9  C   UNK N   1      34.291  17.198   9.146  0.00  0.00     0.125 C 
BRANCH   9  10
HETATM   10  C   UNK N   1      34.685  18.272   8.172  0.00  0.00     0.140 C 
HETATM   11  O   UNK N   1      35.300  19.248   8.571  0.00  0.00    -0.650 OA
BRANCH  10  12
HETATM   12  O   UNK N   1      34.383  18.167   6.862  0.00  0.00    -0.776 OA
HETATM   13  H   UNK N   1      35.063  18.035   6.231  0.00  0.00     0.167 HD
ENDBRANCH  10  12
ENDBRANCH   9  10
ENDBRANCH   8   9
ENDBRANCH   3   8
TORSDOF 7
ENDMDL
MODEL 9
REMARK VINA RESULT:      -4.1     14.192     15.574
REMARK  7 active torsions:
REMARK  status: ('A' for Active; 'I' for Inactive)
REMARK    1  A    between atoms: C_2  and  C_3 
REMARK    2  A    between atoms: C_3  and  C_4 
REMARK    3  A    between atoms: C_4  and  S_12 
REMARK    4  A    between atoms: C_5  and  C_6 
REMARK    5  A    between atoms: C_5  and  S_12 
REMARK    6  A    between atoms: C_6  and  C_7 
REMARK    7  A    between atoms: C_7  and  O_10 
ROOT
HETATM    1  O   UNK N   1      34.703  13.359  13.629  0.00  0.00    -0.228 OA
HETATM    2  O   UNK N   1      36.500  14.666  14.244  0.00  0.00    -0.228 OA
HETATM    3  S   UNK N   1      36.216  13.442  13.362  0.00  0.00     0.144 S 
ENDROOT
BRANCH   3   4
HETATM    4  C   UNK N   1      37.012  12.036  14.213  0.00  0.00     0.140 C 
BRANCH   4   5
HETATM    5  C   UNK N   1      35.995  11.170  14.935  0.00  0.00     0.014 C 
BRANCH   5   6
HETATM    6  C   UNK N   1      36.194  11.301  16.432  0.00  0.00    -0.004 C 
HETATM    7  C   UNK N   1      35.315  12.412  16.969  0.00  0.00     0.005 C 
ENDBRANCH   5   6
ENDBRANCH   4   5
ENDBRANCH   3   4
BRANCH   3   8
HETATM    8  C   UNK N   1      36.448  14.018  11.646  0.00  0.00     0.150 C 
BRANCH   8   9
HETATM    9  C   UNK N   1      36.003  15.465  11.469  0.00  0.00     0.125 C 
BRANCH   9  10
HETATM   10  C   UNK N   1      34.650  15.569  10.824  0.00  0.00     0.140 C 
HETATM   11  O   UNK N   1      34.509  16.273   9.837  0.00  0.00    -0.650 OA
BRANCH  10  12
HETATM   12  O   UNK N   1      33.594  14.886  11.310  0.00  0.00    -0.776 OA
HETATM   13  H   UNK N   1      32.937  14.559  10.728  0.00  0.00     0.167 HD
ENDBRANCH  10  12
ENDBRANCH   9  10
ENDBRANCH   8   9
ENDBRANCH   3   8
TORSDOF 7
ENDMDL
