REMARK  7 active torsions:
REMARK  status: ('A' for Active; 'I' for Inactive)
REMARK    1  A    between atoms: C_2  and  C_3 
REMARK    2  A    between atoms: C_3  and  C_4 
REMARK    3  A    between atoms: C_4  and  S_12 
REMARK    4  A    between atoms: C_5  and  C_6 
REMARK    5  A    between atoms: C_5  and  S_12 
REMARK    6  A    between atoms: C_6  and  C_7 
REMARK    7  A    between atoms: C_7  and  O_10 
ROOT
HETATM    1  O   UNK N   1       0.494  -0.469  -1.030  0.00  0.00    -0.228 OA
HETATM    2  O   UNK N   1       0.621   1.826  -1.211  0.00  0.00    -0.228 OA
HETATM    3  S   UNK N   1       0.548   0.761  -0.108  0.00  0.00     0.144 S 
ENDROOT
BRANCH   3   4
HETATM    4  C   UNK N   1      -1.099   0.962   0.653  0.00  0.00     0.140 C 
BRANCH   4   5
HETATM    5  C   UNK N   1      -2.031  -0.177   0.280  0.00  0.00     0.014 C 
BRANCH   5   6
HETATM    6  C   UNK N   1      -3.455   0.338   0.213  0.00  0.00    -0.004 C 
HETATM    7  C   UNK N   1      -4.398  -0.807  -0.096  0.00  0.00     0.005 C 
ENDBRANCH   5   6
ENDBRANCH   4   5
ENDBRANCH   3   4
BRANCH   3   8
HETATM    8  C   UNK N   1       2.188   0.783   0.694  0.00  0.00     0.150 C 
BRANCH   8   9
HETATM    9  C   UNK N   1       2.955  -0.511   0.452  0.00  0.00     0.125 C 
BRANCH   9  10
HETATM   10  C   UNK N   1       4.404  -0.263   0.143  0.00  0.00     0.140 C 
HETATM   11  O   UNK N   1       5.150  -1.213  -0.035  0.00  0.00    -0.650 OA
BRANCH  10  12
HETATM   12  O   UNK N   1       4.890   0.991   0.045  0.00  0.00    -0.776 OA
HETATM   13  H   UNK N   1       5.813   1.134  -0.023  0.00  0.00     0.167 HD
ENDBRANCH  10  12
ENDBRANCH   9  10
ENDBRANCH   8   9
ENDBRANCH   3   8
TORSDOF 7
