MODEL 1
REMARK VINA RESULT:      -6.1      0.000      0.000
REMARK  4 active torsions:
REMARK  status: ('A' for Active; 'I' for Inactive)
REMARK    1  A    between atoms: C_5  and  N_12 
REMARK    2  A    between atoms: C_7  and  N_12 
REMARK       I    between atoms: N_13  and  C_16 
REMARK    3  A    between atoms: C_16  and  O_18 
REMARK    4  A    between atoms: O_18  and  C_19 
ROOT
HETATM    1  C   UNK N   1      35.958  14.651  11.151  0.00  0.00     0.086 C 
HETATM    2  C   UNK N   1      35.796  16.136  10.840  0.00  0.00     0.045 C 
HETATM    3  C   UNK N   1      34.753  16.296   9.721  0.00  0.00     0.130 C 
HETATM    4  N   UNK N   1      35.047  15.425   8.589  0.00  0.00    -0.328 N 
HETATM    5  C   UNK N   1      35.381  14.039   8.866  0.00  0.00     0.130 C 
HETATM    6  C   UNK N   1      36.491  13.967   9.901  0.00  0.00     0.045 C 
HETATM    7  C   UNK N   1      34.952  15.831   7.278  0.00  0.00     0.362 C 
HETATM    8  O   UNK N   1      35.162  15.016   6.390  0.00  0.00    -0.238 OA
ENDROOT
BRANCH   1   9
HETATM    9  N   UNK N   1      36.801  14.427  12.307  0.00  0.00    -0.372 N 
HETATM   10  H   UNK N   1      37.753  14.677  12.254  0.00  0.00     0.161 HD
BRANCH   9  11
HETATM   11  C   UNK N   1      36.311  13.858  13.517  0.00  0.00     0.101 A 
HETATM   12  C   UNK N   1      35.316  12.867  13.499  0.00  0.00     0.054 A 
HETATM   13  C   UNK N   1      34.874  12.308  14.695  0.00  0.00    -0.057 A 
HETATM   14  C   UNK N   1      33.848  11.233  14.677  0.00  0.00     0.048 C 
HETATM   15  C   UNK N   1      35.409  12.749  15.904  0.00  0.00     0.024 A 
HETATM   16  C   UNK N   1      36.388  13.746  15.892  0.00  0.00     0.090 A 
HETATM   17  N   UNK N   1      36.822  14.270  14.711  0.00  0.00    -0.353 N 
ATOM     18  HN  UNK N   1      37.546  14.987  14.720  1.00  0.00     0.166 HD
ENDBRANCH   9  11
ENDBRANCH   1   9
BRANCH   7  19
HETATM   19  O   UNK N   1      34.609  17.095   6.898  0.00  0.00    -0.304 OA
BRANCH  19  20
HETATM   20  C   UNK N   1      33.364  17.556   6.547  0.00  0.00     0.176 C 
HETATM   21  C   UNK N   1      33.241  17.549   5.038  0.00  0.00     0.034 C 
ENDBRANCH  19  20
ENDBRANCH   7  19
TORSDOF 4
ENDMDL
MODEL 2
REMARK VINA RESULT:      -5.9      2.805      7.690
REMARK  4 active torsions:
REMARK  status: ('A' for Active; 'I' for Inactive)
REMARK    1  A    between atoms: C_5  and  N_12 
REMARK    2  A    between atoms: C_7  and  N_12 
REMARK       I    between atoms: N_13  and  C_16 
REMARK    3  A    between atoms: C_16  and  O_18 
REMARK    4  A    between atoms: O_18  and  C_19 
ROOT
HETATM    1  C   UNK N   1      34.524  16.294   9.683  0.00  0.00     0.086 C 
HETATM    2  C   UNK N   1      35.347  16.609  10.929  0.00  0.00     0.045 C 
HETATM    3  C   UNK N   1      36.254  15.406  11.239  0.00  0.00     0.130 C 
HETATM    4  N   UNK N   1      35.499  14.159  11.260  0.00  0.00    -0.328 N 
HETATM    5  C   UNK N   1      34.570  13.908  10.172  0.00  0.00     0.130 C 
HETATM    6  C   UNK N   1      33.639  15.096   9.997  0.00  0.00     0.045 C 
HETATM    7  C   UNK N   1      35.677  13.183  12.213  0.00  0.00     0.362 C 
HETATM    8  O   UNK N   1      35.040  12.142  12.119  0.00  0.00    -0.238 OA
ENDROOT
BRANCH   1   9
HETATM    9  N   UNK N   1      33.763  17.440   9.229  0.00  0.00    -0.372 N 
HETATM   10  H   UNK N   1      33.863  18.294   9.710  0.00  0.00     0.161 HD
BRANCH   9  11
HETATM   11  C   UNK N   1      32.877  17.382   8.116  0.00  0.00     0.101 A 
HETATM   12  C   UNK N   1      33.366  17.420   6.800  0.00  0.00     0.054 A 
HETATM   13  C   UNK N   1      32.480  17.334   5.730  0.00  0.00    -0.057 A 
HETATM   14  C   UNK N   1      32.997  17.338   4.336  0.00  0.00     0.048 C 
HETATM   15  C   UNK N   1      31.111  17.227   5.972  0.00  0.00     0.024 A 
HETATM   16  C   UNK N   1      30.653  17.203   7.292  0.00  0.00     0.090 A 
HETATM   17  N   UNK N   1      31.536  17.272   8.327  0.00  0.00    -0.353 N 
ATOM     18  HN  UNK N   1      31.185  17.240   9.284  1.00  0.00     0.166 HD
ENDBRANCH   9  11
ENDBRANCH   1   9
BRANCH   7  19
HETATM   19  O   UNK N   1      36.549  13.291  13.256  0.00  0.00    -0.304 OA
BRANCH  19  20
HETATM   20  C   UNK N   1      36.253  13.326  14.596  0.00  0.00     0.176 C 
HETATM   21  C   UNK N   1      36.960  14.506  15.229  0.00  0.00     0.034 C 
ENDBRANCH  19  20
ENDBRANCH   7  19
TORSDOF 4
ENDMDL
MODEL 3
REMARK VINA RESULT:      -5.9     20.972     22.324
REMARK  4 active torsions:
REMARK  status: ('A' for Active; 'I' for Inactive)
REMARK    1  A    between atoms: C_5  and  N_12 
REMARK    2  A    between atoms: C_7  and  N_12 
REMARK       I    between atoms: N_13  and  C_16 
REMARK    3  A    between atoms: C_16  and  O_18 
REMARK    4  A    between atoms: O_18  and  C_19 
ROOT
HETATM    1  C   UNK N   1      25.889  25.102  -5.495  0.00  0.00     0.086 C 
HETATM    2  C   UNK N   1      25.100  26.355  -5.866  0.00  0.00     0.045 C 
HETATM    3  C   UNK N   1      25.979  27.589  -5.601  0.00  0.00     0.130 C 
HETATM    4  N   UNK N   1      26.554  27.558  -4.261  0.00  0.00    -0.328 N 
HETATM    5  C   UNK N   1      27.160  26.318  -3.809  0.00  0.00     0.130 C 
HETATM    6  C   UNK N   1      26.191  25.163  -4.005  0.00  0.00     0.045 C 
HETATM    7  C   UNK N   1      26.616  28.659  -3.439  0.00  0.00     0.362 C 
HETATM    8  O   UNK N   1      27.168  28.555  -2.352  0.00  0.00    -0.238 OA
ENDROOT
BRANCH   1   9
HETATM    9  N   UNK N   1      25.192  23.889  -5.869  0.00  0.00    -0.372 N 
HETATM   10  H   UNK N   1      24.289  23.732  -5.508  0.00  0.00     0.161 HD
BRANCH   9  11
HETATM   11  C   UNK N   1      25.759  22.914  -6.738  0.00  0.00     0.101 A 
HETATM   12  C   UNK N   1      27.148  22.710  -6.788  0.00  0.00     0.054 A 
HETATM   13  C   UNK N   1      27.675  21.731  -7.625  0.00  0.00    -0.057 A 
HETATM   14  C   UNK N   1      29.141  21.489  -7.654  0.00  0.00     0.048 C 
HETATM   15  C   UNK N   1      26.821  20.971  -8.423  0.00  0.00     0.024 A 
HETATM   16  C   UNK N   1      25.444  21.205  -8.362  0.00  0.00     0.090 A 
HETATM   17  N   UNK N   1      24.945  22.155  -7.524  0.00  0.00    -0.353 N 
ATOM     18  HN  UNK N   1      23.937  22.303  -7.482  1.00  0.00     0.166 HD
ENDBRANCH   9  11
ENDBRANCH   1   9
BRANCH   7  19
HETATM   19  O   UNK N   1      26.117  29.884  -3.773  0.00  0.00    -0.304 OA
BRANCH  19  20
HETATM   20  C   UNK N   1      26.808  31.062  -3.908  0.00  0.00     0.176 C 
HETATM   21  C   UNK N   1      27.888  30.885  -4.954  0.00  0.00     0.034 C 
ENDBRANCH  19  20
ENDBRANCH   7  19
TORSDOF 4
ENDMDL
MODEL 4
REMARK VINA RESULT:      -5.9      1.632      2.535
REMARK  4 active torsions:
REMARK  status: ('A' for Active; 'I' for Inactive)
REMARK    1  A    between atoms: C_5  and  N_12 
REMARK    2  A    between atoms: C_7  and  N_12 
REMARK       I    between atoms: N_13  and  C_16 
REMARK    3  A    between atoms: C_16  and  O_18 
REMARK    4  A    between atoms: O_18  and  C_19 
ROOT
HETATM    1  C   UNK N   1      34.928  14.474  10.557  0.00  0.00     0.086 C 
HETATM    2  C   UNK N   1      34.498  14.179   9.123  0.00  0.00     0.045 C 
HETATM    3  C   UNK N   1      35.150  15.211   8.188  0.00  0.00     0.130 C 
HETATM    4  N   UNK N   1      34.934  16.573   8.662  0.00  0.00    -0.328 N 
HETATM    5  C   UNK N   1      35.166  16.849  10.069  0.00  0.00     0.130 C 
HETATM    6  C   UNK N   1      34.404  15.854  10.928  0.00  0.00     0.045 C 
HETATM    7  C   UNK N   1      34.594  17.617   7.833  0.00  0.00     0.362 C 
HETATM    8  O   UNK N   1      34.489  18.739   8.309  0.00  0.00    -0.238 OA
ENDROOT
BRANCH   1   9
HETATM    9  N   UNK N   1      34.488  13.448  11.479  0.00  0.00    -0.372 N 
HETATM   10  H   UNK N   1      33.634  12.989  11.304  0.00  0.00     0.161 HD
BRANCH   9  11
HETATM   11  C   UNK N   1      35.239  13.077  12.630  0.00  0.00     0.101 A 
HETATM   12  C   UNK N   1      35.810  14.050  13.466  0.00  0.00     0.054 A 
HETATM   13  C   UNK N   1      36.516  13.660  14.601  0.00  0.00    -0.057 A 
HETATM   14  C   UNK N   1      37.092  14.689  15.507  0.00  0.00     0.048 C 
HETATM   15  C   UNK N   1      36.666  12.305  14.890  0.00  0.00     0.024 A 
HETATM   16  C   UNK N   1      36.098  11.359  14.033  0.00  0.00     0.090 A 
HETATM   17  N   UNK N   1      35.395  11.758  12.937  0.00  0.00    -0.353 N 
ATOM     18  HN  UNK N   1      34.976  11.054  12.330  1.00  0.00     0.166 HD
ENDBRANCH   9  11
ENDBRANCH   1   9
BRANCH   7  19
HETATM   19  O   UNK N   1      34.390  17.485   6.491  0.00  0.00    -0.304 OA
BRANCH  19  20
HETATM   20  C   UNK N   1      33.207  17.609   5.807  0.00  0.00     0.176 C 
HETATM   21  C   UNK N   1      32.179  16.684   6.423  0.00  0.00     0.034 C 
ENDBRANCH  19  20
ENDBRANCH   7  19
TORSDOF 4
ENDMDL
MODEL 5
REMARK VINA RESULT:      -5.7      4.761      9.815
REMARK  4 active torsions:
REMARK  status: ('A' for Active; 'I' for Inactive)
REMARK    1  A    between atoms: C_5  and  N_12 
REMARK    2  A    between atoms: C_7  and  N_12 
REMARK       I    between atoms: N_13  and  C_16 
REMARK    3  A    between atoms: C_16  and  O_18 
REMARK    4  A    between atoms: O_18  and  C_19 
ROOT
HETATM    1  C   UNK N   1      30.500  17.668   6.222  0.00  0.00     0.086 C 
HETATM    2  C   UNK N   1      30.854  17.147   7.612  0.00  0.00     0.045 C 
HETATM    3  C   UNK N   1      32.334  17.456   7.894  0.00  0.00     0.130 C 
HETATM    4  N   UNK N   1      33.190  17.015   6.799  0.00  0.00    -0.328 N 
HETATM    5  C   UNK N   1      32.785  17.345   5.444  0.00  0.00     0.130 C 
HETATM    6  C   UNK N   1      31.347  16.913   5.209  0.00  0.00     0.045 C 
HETATM    7  C   UNK N   1      34.390  16.370   6.989  0.00  0.00     0.362 C 
HETATM    8  O   UNK N   1      35.071  16.087   6.013  0.00  0.00    -0.238 OA
ENDROOT
BRANCH   1   9
HETATM    9  N   UNK N   1      29.082  17.563   5.947  0.00  0.00    -0.372 N 
HETATM   10  H   UNK N   1      28.683  16.667   5.857  0.00  0.00     0.161 HD
BRANCH   9  11
HETATM   11  C   UNK N   1      28.242  18.703   5.800  0.00  0.00     0.101 A 
HETATM   12  C   UNK N   1      27.711  19.054   4.548  0.00  0.00     0.054 A 
HETATM   13  C   UNK N   1      26.869  20.157   4.437  0.00  0.00    -0.057 A 
HETATM   14  C   UNK N   1      26.277  20.509   3.120  0.00  0.00     0.048 C 
HETATM   15  C   UNK N   1      26.573  20.917   5.568  0.00  0.00     0.024 A 
HETATM   16  C   UNK N   1      27.126  20.552   6.798  0.00  0.00     0.090 A 
HETATM   17  N   UNK N   1      27.934  19.459   6.891  0.00  0.00    -0.353 N 
ATOM     18  HN  UNK N   1      28.318  19.200   7.800  1.00  0.00     0.166 HD
ENDBRANCH   9  11
ENDBRANCH   1   9
BRANCH   7  19
HETATM   19  O   UNK N   1      34.890  16.044   8.216  0.00  0.00    -0.304 OA
BRANCH  19  20
HETATM   20  C   UNK N   1      35.059  14.790   8.746  0.00  0.00     0.176 C 
HETATM   21  C   UNK N   1      33.740  14.310   9.313  0.00  0.00     0.034 C 
ENDBRANCH  19  20
ENDBRANCH   7  19
TORSDOF 4
ENDMDL
MODEL 6
REMARK VINA RESULT:      -5.6      1.926      2.513
REMARK  4 active torsions:
REMARK  status: ('A' for Active; 'I' for Inactive)
REMARK    1  A    between atoms: C_5  and  N_12 
REMARK    2  A    between atoms: C_7  and  N_12 
REMARK       I    between atoms: N_13  and  C_16 
REMARK    3  A    between atoms: C_16  and  O_18 
REMARK    4  A    between atoms: O_18  and  C_19 
ROOT
HETATM    1  C   UNK N   1      35.874  15.037  11.800  0.00  0.00     0.086 C 
HETATM    2  C   UNK N   1      34.682  14.110  11.580  0.00  0.00     0.045 C 
HETATM    3  C   UNK N   1      34.327  14.108  10.083  0.00  0.00     0.130 C 
HETATM    4  N   UNK N   1      34.198  15.465   9.563  0.00  0.00    -0.328 N 
HETATM    5  C   UNK N   1      35.233  16.425   9.904  0.00  0.00     0.130 C 
HETATM    6  C   UNK N   1      35.451  16.445  11.407  0.00  0.00     0.045 C 
HETATM    7  C   UNK N   1      33.190  15.856   8.712  0.00  0.00     0.362 C 
HETATM    8  O   UNK N   1      33.193  17.000   8.279  0.00  0.00    -0.238 OA
ENDROOT
BRANCH   1   9
HETATM    9  N   UNK N   1      36.374  14.967  13.157  0.00  0.00    -0.372 N 
HETATM   10  H   UNK N   1      36.611  15.805  13.617  0.00  0.00     0.161 HD
BRANCH   9  11
HETATM   11  C   UNK N   1      36.539  13.735  13.853  0.00  0.00     0.101 A 
HETATM   12  C   UNK N   1      35.889  13.503  15.075  0.00  0.00     0.054 A 
HETATM   13  C   UNK N   1      36.044  12.279  15.721  0.00  0.00    -0.057 A 
HETATM   14  C   UNK N   1      35.329  12.017  16.998  0.00  0.00     0.048 C 
HETATM   15  C   UNK N   1      36.859  11.299  15.157  0.00  0.00     0.024 A 
HETATM   16  C   UNK N   1      37.503  11.563  13.946  0.00  0.00     0.090 A 
HETATM   17  N   UNK N   1      37.326  12.759  13.319  0.00  0.00    -0.353 N 
ATOM     18  HN  UNK N   1      37.793  12.930  12.429  1.00  0.00     0.166 HD
ENDBRANCH   9  11
ENDBRANCH   1   9
BRANCH   7  19
HETATM   19  O   UNK N   1      32.188  15.031   8.293  0.00  0.00    -0.304 OA
BRANCH  19  20
HETATM   20  C   UNK N   1      31.908  14.639   7.007  0.00  0.00     0.176 C 
HETATM   21  C   UNK N   1      33.018  13.737   6.511  0.00  0.00     0.034 C 
ENDBRANCH  19  20
ENDBRANCH   7  19
TORSDOF 4
ENDMDL
MODEL 7
REMARK VINA RESULT:      -5.6      3.990      5.881
REMARK  4 active torsions:
REMARK  status: ('A' for Active; 'I' for Inactive)
REMARK    1  A    between atoms: C_5  and  N_12 
REMARK    2  A    between atoms: C_7  and  N_12 
REMARK       I    between atoms: N_13  and  C_16 
REMARK    3  A    between atoms: C_16  and  O_18 
REMARK    4  A    between atoms: O_18  and  C_19 
ROOT
HETATM    1  C   UNK N   1      32.058  17.256   8.286  0.00  0.00     0.086 C 
HETATM    2  C   UNK N   1      31.010  18.276   8.723  0.00  0.00     0.045 C 
HETATM    3  C   UNK N   1      29.642  17.847   8.167  0.00  0.00     0.130 C 
HETATM    4  N   UNK N   1      29.711  17.560   6.739  0.00  0.00    -0.328 N 
HETATM    5  C   UNK N   1      30.806  16.733   6.264  0.00  0.00     0.130 C 
HETATM    6  C   UNK N   1      32.131  17.282   6.766  0.00  0.00     0.045 C 
HETATM    7  C   UNK N   1      28.757  17.972   5.838  0.00  0.00     0.362 C 
HETATM    8  O   UNK N   1      28.866  17.637   4.666  0.00  0.00    -0.238 OA
ENDROOT
BRANCH   1   9
HETATM    9  N   UNK N   1      33.344  17.499   8.906  0.00  0.00    -0.372 N 
HETATM   10  H   UNK N   1      33.757  18.388   8.807  0.00  0.00     0.161 HD
BRANCH   9  11
HETATM   11  C   UNK N   1      34.038  16.504   9.652  0.00  0.00     0.101 A 
HETATM   12  C   UNK N   1      33.855  15.138   9.380  0.00  0.00     0.054 A 
HETATM   13  C   UNK N   1      34.566  14.187  10.105  0.00  0.00    -0.057 A 
HETATM   14  C   UNK N   1      34.402  12.742   9.796  0.00  0.00     0.048 C 
HETATM   15  C   UNK N   1      35.443  14.595  11.109  0.00  0.00     0.024 A 
HETATM   16  C   UNK N   1      35.594  15.961  11.366  0.00  0.00     0.090 A 
HETATM   17  N   UNK N   1      34.903  16.879  10.635  0.00  0.00    -0.353 N 
ATOM     18  HN  UNK N   1      35.036  17.872  10.827  1.00  0.00     0.166 HD
ENDBRANCH   9  11
ENDBRANCH   1   9
BRANCH   7  19
HETATM   19  O   UNK N   1      27.666  18.718   6.175  0.00  0.00    -0.304 OA
BRANCH  19  20
HETATM   20  C   UNK N   1      27.538  20.084   6.132  0.00  0.00     0.176 C 
HETATM   21  C   UNK N   1      26.690  20.464   4.937  0.00  0.00     0.034 C 
ENDBRANCH  19  20
ENDBRANCH   7  19
TORSDOF 4
ENDMDL
MODEL 8
REMARK VINA RESULT:      -5.5      5.109      9.020
REMARK  4 active torsions:
REMARK  status: ('A' for Active; 'I' for Inactive)
REMARK    1  A    between atoms: C_5  and  N_12 
REMARK    2  A    between atoms: C_7  and  N_12 
REMARK       I    between atoms: N_13  and  C_16 
REMARK    3  A    between atoms: C_16  and  O_18 
REMARK    4  A    between atoms: O_18  and  C_19 
ROOT
HETATM    1  C   UNK N   1      36.084  12.792  15.149  0.00  0.00     0.086 C 
HETATM    2  C   UNK N   1      36.499  11.457  15.761  0.00  0.00     0.045 C 
HETATM    3  C   UNK N   1      35.515  11.104  16.890  0.00  0.00     0.130 C 
HETATM    4  N   UNK N   1      35.345  12.217  17.817  0.00  0.00    -0.328 N 
HETATM    5  C   UNK N   1      35.123  13.539  17.259  0.00  0.00     0.130 C 
HETATM    6  C   UNK N   1      36.195  13.857  16.230  0.00  0.00     0.045 C 
HETATM    7  C   UNK N   1      35.310  12.063  19.184  0.00  0.00     0.362 C 
HETATM    8  O   UNK N   1      35.105  13.046  19.883  0.00  0.00    -0.238 OA
ENDROOT
BRANCH   1   9
HETATM    9  N   UNK N   1      36.862  13.116  13.971  0.00  0.00    -0.372 N 
HETATM   10  H   UNK N   1      37.823  12.899  13.965  0.00  0.00     0.161 HD
BRANCH   9  11
HETATM   11  C   UNK N   1      36.294  13.736  12.822  0.00  0.00     0.101 A 
HETATM   12  C   UNK N   1      35.644  12.976  11.837  0.00  0.00     0.054 A 
HETATM   13  C   UNK N   1      35.073  13.610  10.737  0.00  0.00    -0.057 A 
HETATM   14  C   UNK N   1      34.353  12.812   9.710  0.00  0.00     0.048 C 
HETATM   15  C   UNK N   1      35.165  14.996  10.613  0.00  0.00     0.024 A 
HETATM   16  C   UNK N   1      35.830  15.725  11.603  0.00  0.00     0.090 A 
HETATM   17  N   UNK N   1      36.367  15.090  12.681  0.00  0.00    -0.353 N 
ATOM     18  HN  UNK N   1      36.837  15.639  13.401  1.00  0.00     0.166 HD
ENDBRANCH   9  11
ENDBRANCH   1   9
BRANCH   7  19
HETATM   19  O   UNK N   1      35.465  10.865  19.817  0.00  0.00    -0.304 OA
BRANCH  19  20
HETATM   20  C   UNK N   1      34.515  10.149  20.501  0.00  0.00     0.176 C 
HETATM   21  C   UNK N   1      33.865   9.161  19.555  0.00  0.00     0.034 C 
ENDBRANCH  19  20
ENDBRANCH   7  19
TORSDOF 4
ENDMDL
MODEL 9
REMARK VINA RESULT:      -5.4     21.206     22.466
REMARK  4 active torsions:
REMARK  status: ('A' for Active; 'I' for Inactive)
REMARK    1  A    between atoms: C_5  and  N_12 
REMARK    2  A    between atoms: C_7  and  N_12 
REMARK       I    between atoms: N_13  and  C_16 
REMARK    3  A    between atoms: C_16  and  O_18 
REMARK    4  A    between atoms: O_18  and  C_19 
ROOT
HETATM    1  C   UNK N   1      25.990  26.276  -5.096  0.00  0.00     0.086 C 
HETATM    2  C   UNK N   1      25.675  24.829  -4.727  0.00  0.00     0.045 C 
HETATM    3  C   UNK N   1      26.210  23.909  -5.837  0.00  0.00     0.130 C 
HETATM    4  N   UNK N   1      25.771  24.351  -7.155  0.00  0.00    -0.328 N 
HETATM    5  C   UNK N   1      25.894  25.763  -7.475  0.00  0.00     0.130 C 
HETATM    6  C   UNK N   1      25.250  26.602  -6.384  0.00  0.00     0.045 C 
HETATM    7  C   UNK N   1      25.318  23.492  -8.130  0.00  0.00     0.362 C 
HETATM    8  O   UNK N   1      25.025  23.945  -9.228  0.00  0.00    -0.238 OA
ENDROOT
BRANCH   1   9
HETATM    9  N   UNK N   1      25.665  27.194  -4.024  0.00  0.00    -0.372 N 
HETATM   10  H   UNK N   1      24.835  27.050  -3.513  0.00  0.00     0.161 HD
BRANCH   9  11
HETATM   11  C   UNK N   1      26.497  28.297  -3.678  0.00  0.00     0.101 A 
HETATM   12  C   UNK N   1      27.849  28.108  -3.349  0.00  0.00     0.054 A 
HETATM   13  C   UNK N   1      28.648  29.206  -3.043  0.00  0.00    -0.057 A 
HETATM   14  C   UNK N   1      30.088  29.012  -2.729  0.00  0.00     0.048 C 
HETATM   15  C   UNK N   1      28.095  30.485  -3.047  0.00  0.00     0.024 A 
HETATM   16  C   UNK N   1      26.743  30.642  -3.366  0.00  0.00     0.090 A 
HETATM   17  N   UNK N   1      25.981  29.558  -3.681  0.00  0.00    -0.353 N 
ATOM     18  HN  UNK N   1      25.000  29.692  -3.924  1.00  0.00     0.166 HD
ENDBRANCH   9  11
ENDBRANCH   1   9
BRANCH   7  19
HETATM   19  O   UNK N   1      25.199  22.144  -7.957  0.00  0.00    -0.304 OA
BRANCH  19  20
HETATM   20  C   UNK N   1      25.875  21.151  -8.620  0.00  0.00     0.176 C 
HETATM   21  C   UNK N   1      27.346  21.236  -8.272  0.00  0.00     0.034 C 
ENDBRANCH  19  20
ENDBRANCH   7  19
TORSDOF 4
ENDMDL
