MODEL 1
REMARK VINA RESULT:      -7.4      0.000      0.000
REMARK  5 active torsions:
REMARK  status: ('A' for Active; 'I' for Inactive)
REMARK    1  A    between atoms: C_3  and  N_21 
REMARK    2  A    between atoms: C_6  and  C_8 
REMARK    3  A    between atoms: C_8  and  C_9 
REMARK    4  A    between atoms: C_9  and  N_10 
REMARK       I    between atoms: N_10  and  C_11 
REMARK    5  A    between atoms: C_11  and  C_13 
ROOT
HETATM    1  C   UNK N   1      26.943  23.830  -5.459  0.00  0.00     0.032 A 
HETATM    2  C   UNK N   1      26.691  24.265  -4.159  0.00  0.00     0.018 A 
HETATM    3  C   UNK N   1      27.657  24.099  -3.173  0.00  0.00     0.024 A 
HETATM    4  C   UNK N   1      28.881  23.503  -3.495  0.00  0.00     0.044 A 
HETATM    5  C   UNK N   1      29.172  23.155  -4.807  0.00  0.00     0.024 A 
HETATM    6  C   UNK N   1      28.202  23.308  -5.782  0.00  0.00     0.018 A 
HETATM    7  C   UNK N   1      29.824  23.220  -2.467  0.00  0.00     0.099 C 
HETATM    8  N   UNK N   1      30.559  23.009  -1.603  0.00  0.00    -0.191 NA
ENDROOT
BRANCH   1   9
HETATM    9  C   UNK N   1      25.765  23.604  -6.308  0.00  0.00     0.251 C 
HETATM   10  N   UNK N   1      25.450  24.475  -7.302  0.00  0.00    -0.357 N 
HETATM   11  H   UNK N   1      24.817  24.173  -7.993  0.00  0.00     0.162 HD
HETATM   12  O   UNK N   1      25.193  22.529  -6.264  0.00  0.00    -0.268 OA
BRANCH  10  13
HETATM   13  C   UNK N   1      25.982  25.817  -7.414  0.00  0.00     0.129 C 
BRANCH  13  14
HETATM   14  C   UNK N   1      25.291  26.707  -6.367  0.00  0.00     0.076 C 
BRANCH  14  15
HETATM   15  C   UNK N   1      26.251  27.748  -5.904  0.00  0.00     0.013 A 
HETATM   16  N   UNK N   1      25.967  28.482  -4.792  0.00  0.00    -0.346 N 
HETATM   17  C   UNK N   1      26.671  29.580  -4.446  0.00  0.00     0.099 A 
ATOM     18  HN  UNK N   1      25.191  28.192  -4.198  1.00  0.00     0.167 HD
HETATM   19  C   UNK N   1      27.762  29.963  -5.224  0.00  0.00     0.054 A 
HETATM   20  C   UNK N   1      28.106  29.187  -6.340  0.00  0.00    -0.057 A 
HETATM   21  C   UNK N   1      27.333  28.086  -6.698  0.00  0.00     0.032 A 
HETATM   22  C   UNK N   1      29.269  29.561  -7.179  0.00  0.00     0.048 C 
BRANCH  17  23
HETATM   23  N   UNK N   1      26.243  30.368  -3.357  0.00  0.00    -0.385 N 
HETATM   24  H   UNK N   1      26.212  29.981  -2.452  0.00  0.00     0.157 HD
HETATM   25  H   UNK N   1      25.976  31.304  -3.502  0.00  0.00     0.157 HD
ENDBRANCH  17  23
ENDBRANCH  14  15
ENDBRANCH  13  14
ENDBRANCH  10  13
ENDBRANCH   1   9
TORSDOF 5
ENDMDL
MODEL 2
REMARK VINA RESULT:      -7.2     13.122     14.914
REMARK  5 active torsions:
REMARK  status: ('A' for Active; 'I' for Inactive)
REMARK    1  A    between atoms: C_3  and  N_21 
REMARK    2  A    between atoms: C_6  and  C_8 
REMARK    3  A    between atoms: C_8  and  C_9 
REMARK    4  A    between atoms: C_9  and  N_10 
REMARK       I    between atoms: N_10  and  C_11 
REMARK    5  A    between atoms: C_11  and  C_13 
ROOT
HETATM    1  C   UNK N   1      31.543  16.407   6.090  0.00  0.00     0.032 A 
HETATM    2  C   UNK N   1      31.309  16.884   7.378  0.00  0.00     0.018 A 
HETATM    3  C   UNK N   1      32.281  17.640   8.025  0.00  0.00     0.024 A 
HETATM    4  C   UNK N   1      33.486  17.923   7.374  0.00  0.00     0.044 A 
HETATM    5  C   UNK N   1      33.685  17.530   6.057  0.00  0.00     0.024 A 
HETATM    6  C   UNK N   1      32.722  16.766   5.423  0.00  0.00     0.018 A 
HETATM    7  C   UNK N   1      34.531  18.590   8.075  0.00  0.00     0.099 C 
HETATM    8  N   UNK N   1      35.350  19.132   8.680  0.00  0.00    -0.191 NA
ENDROOT
BRANCH   1   9
HETATM    9  C   UNK N   1      30.722  15.268   5.659  0.00  0.00     0.251 C 
HETATM   10  N   UNK N   1      29.860  15.389   4.615  0.00  0.00    -0.357 N 
HETATM   11  H   UNK N   1      29.518  14.563   4.205  0.00  0.00     0.162 HD
HETATM   12  O   UNK N   1      30.965  14.155   6.095  0.00  0.00    -0.268 OA
BRANCH  10  13
HETATM   13  C   UNK N   1      29.413  16.651   4.066  0.00  0.00     0.129 C 
BRANCH  13  14
HETATM   14  C   UNK N   1      27.971  16.907   4.537  0.00  0.00     0.076 C 
BRANCH  14  15
HETATM   15  C   UNK N   1      27.984  17.960   5.591  0.00  0.00     0.013 A 
HETATM   16  N   UNK N   1      28.067  17.600   6.903  0.00  0.00    -0.346 N 
HETATM   17  C   UNK N   1      27.861  18.474   7.911  0.00  0.00     0.099 A 
ATOM     18  HN  UNK N   1      28.294  16.633   7.133  1.00  0.00     0.167 HD
HETATM   19  C   UNK N   1      27.595  19.809   7.612  0.00  0.00     0.054 A 
HETATM   20  C   UNK N   1      27.562  20.211   6.269  0.00  0.00    -0.057 A 
HETATM   21  C   UNK N   1      27.733  19.278   5.250  0.00  0.00     0.032 A 
HETATM   22  C   UNK N   1      27.295  21.625   5.920  0.00  0.00     0.048 C 
BRANCH  17  23
HETATM   23  N   UNK N   1      27.833  18.008   9.242  0.00  0.00    -0.385 N 
HETATM   24  H   UNK N   1      27.288  17.222   9.477  0.00  0.00     0.157 HD
HETATM   25  H   UNK N   1      28.357  18.468   9.936  0.00  0.00     0.157 HD
ENDBRANCH  17  23
ENDBRANCH  14  15
ENDBRANCH  13  14
ENDBRANCH  10  13
ENDBRANCH   1   9
TORSDOF 5
ENDMDL
MODEL 3
REMARK VINA RESULT:      -7.0      2.156      4.514
REMARK  5 active torsions:
REMARK  status: ('A' for Active; 'I' for Inactive)
REMARK    1  A    between atoms: C_3  and  N_21 
REMARK    2  A    between atoms: C_6  and  C_8 
REMARK    3  A    between atoms: C_8  and  C_9 
REMARK    4  A    between atoms: C_9  and  N_10 
REMARK       I    between atoms: N_10  and  C_11 
REMARK    5  A    between atoms: C_11  and  C_13 
ROOT
HETATM    1  C   UNK N   1      27.482  25.896  -3.891  0.00  0.00     0.032 A 
HETATM    2  C   UNK N   1      28.836  26.196  -4.031  0.00  0.00     0.018 A 
HETATM    3  C   UNK N   1      29.795  25.259  -3.662  0.00  0.00     0.024 A 
HETATM    4  C   UNK N   1      29.393  24.018  -3.158  0.00  0.00     0.044 A 
HETATM    5  C   UNK N   1      28.048  23.680  -3.105  0.00  0.00     0.024 A 
HETATM    6  C   UNK N   1      27.097  24.621  -3.460  0.00  0.00     0.018 A 
HETATM    7  C   UNK N   1      30.367  23.104  -2.664  0.00  0.00     0.099 C 
HETATM    8  N   UNK N   1      31.190  22.394  -2.274  0.00  0.00    -0.191 NA
ENDROOT
BRANCH   1   9
HETATM    9  C   UNK N   1      26.565  27.043  -3.847  0.00  0.00     0.251 C 
HETATM   10  N   UNK N   1      26.084  27.591  -4.995  0.00  0.00    -0.357 N 
HETATM   11  H   UNK N   1      25.300  28.181  -4.927  0.00  0.00     0.162 HD
HETATM   12  O   UNK N   1      26.064  27.369  -2.785  0.00  0.00    -0.268 OA
BRANCH  10  13
HETATM   13  C   UNK N   1      26.649  27.364  -6.308  0.00  0.00     0.129 C 
BRANCH  13  14
HETATM   14  C   UNK N   1      25.660  26.515  -7.126  0.00  0.00     0.076 C 
BRANCH  14  15
HETATM   15  C   UNK N   1      26.163  25.115  -7.193  0.00  0.00     0.013 A 
HETATM   16  N   UNK N   1      25.281  24.077  -7.134  0.00  0.00    -0.346 N 
HETATM   17  C   UNK N   1      25.674  22.797  -6.966  0.00  0.00     0.099 A 
ATOM     18  HN  UNK N   1      24.285  24.275  -7.220  1.00  0.00     0.167 HD
HETATM   19  C   UNK N   1      27.035  22.506  -6.892  0.00  0.00     0.054 A 
HETATM   20  C   UNK N   1      27.961  23.553  -7.008  0.00  0.00    -0.057 A 
HETATM   21  C   UNK N   1      27.524  24.869  -7.136  0.00  0.00     0.032 A 
HETATM   22  C   UNK N   1      29.414  23.274  -6.947  0.00  0.00     0.048 C 
BRANCH  17  23
HETATM   23  N   UNK N   1      24.705  21.789  -6.782  0.00  0.00    -0.385 N 
HETATM   24  H   UNK N   1      24.450  21.207  -7.535  0.00  0.00     0.157 HD
HETATM   25  H   UNK N   1      24.283  21.666  -5.901  0.00  0.00     0.157 HD
ENDBRANCH  17  23
ENDBRANCH  14  15
ENDBRANCH  13  14
ENDBRANCH  10  13
ENDBRANCH   1   9
TORSDOF 5
ENDMDL
MODEL 4
REMARK VINA RESULT:      -6.9     15.544     20.460
REMARK  5 active torsions:
REMARK  status: ('A' for Active; 'I' for Inactive)
REMARK    1  A    between atoms: C_3  and  N_21 
REMARK    2  A    between atoms: C_6  and  C_8 
REMARK    3  A    between atoms: C_8  and  C_9 
REMARK    4  A    between atoms: C_9  and  N_10 
REMARK       I    between atoms: N_10  and  C_11 
REMARK    5  A    between atoms: C_11  and  C_13 
ROOT
HETATM    1  C   UNK N   1      33.467  17.449   7.843  0.00  0.00     0.032 A 
HETATM    2  C   UNK N   1      32.149  17.634   8.256  0.00  0.00     0.018 A 
HETATM    3  C   UNK N   1      31.109  17.496   7.343  0.00  0.00     0.024 A 
HETATM    4  C   UNK N   1      31.394  17.164   6.015  0.00  0.00     0.044 A 
HETATM    5  C   UNK N   1      32.696  16.887   5.620  0.00  0.00     0.024 A 
HETATM    6  C   UNK N   1      33.728  17.040   6.529  0.00  0.00     0.018 A 
HETATM    7  C   UNK N   1      30.347  17.142   5.049  0.00  0.00     0.099 C 
HETATM    8  N   UNK N   1      29.469  17.135   4.300  0.00  0.00    -0.191 NA
ENDROOT
BRANCH   1   9
HETATM    9  C   UNK N   1      34.505  18.049   8.693  0.00  0.00     0.251 C 
HETATM   10  N   UNK N   1      35.080  17.332   9.694  0.00  0.00    -0.357 N 
HETATM   11  H   UNK N   1      35.923  17.670  10.073  0.00  0.00     0.162 HD
HETATM   12  O   UNK N   1      35.004  19.112   8.368  0.00  0.00    -0.268 OA
BRANCH  10  13
HETATM   13  C   UNK N   1      34.537  16.107  10.239  0.00  0.00     0.129 C 
BRANCH  13  14
HETATM   14  C   UNK N   1      35.686  15.100  10.421  0.00  0.00     0.076 C 
BRANCH  14  15
HETATM   15  C   UNK N   1      35.616  14.526  11.794  0.00  0.00     0.013 A 
HETATM   16  N   UNK N   1      36.304  15.120  12.810  0.00  0.00    -0.346 N 
HETATM   17  C   UNK N   1      36.467  14.538  14.016  0.00  0.00     0.099 A 
ATOM     18  HN  UNK N   1      36.712  16.041  12.653  1.00  0.00     0.167 HD
HETATM   19  C   UNK N   1      35.876  13.298  14.260  0.00  0.00     0.054 A 
HETATM   20  C   UNK N   1      35.116  12.697  13.246  0.00  0.00    -0.057 A 
HETATM   21  C   UNK N   1      35.004  13.301  11.997  0.00  0.00     0.032 A 
HETATM   22  C   UNK N   1      34.466  11.387  13.480  0.00  0.00     0.048 C 
BRANCH  17  23
HETATM   23  N   UNK N   1      37.299  15.147  14.978  0.00  0.00    -0.385 N 
HETATM   24  H   UNK N   1      38.249  14.893  15.038  0.00  0.00     0.157 HD
HETATM   25  H   UNK N   1      36.932  15.826  15.588  0.00  0.00     0.157 HD
ENDBRANCH  17  23
ENDBRANCH  14  15
ENDBRANCH  13  14
ENDBRANCH  10  13
ENDBRANCH   1   9
TORSDOF 5
ENDMDL
MODEL 5
REMARK VINA RESULT:      -6.9     13.131     14.847
REMARK  5 active torsions:
REMARK  status: ('A' for Active; 'I' for Inactive)
REMARK    1  A    between atoms: C_3  and  N_21 
REMARK    2  A    between atoms: C_6  and  C_8 
REMARK    3  A    between atoms: C_8  and  C_9 
REMARK    4  A    between atoms: C_9  and  N_10 
REMARK       I    between atoms: N_10  and  C_11 
REMARK    5  A    between atoms: C_11  and  C_13 
ROOT
HETATM    1  C   UNK N   1      29.523  17.495   8.505  0.00  0.00     0.032 A 
HETATM    2  C   UNK N   1      29.619  16.807   7.298  0.00  0.00     0.018 A 
HETATM    3  C   UNK N   1      30.829  16.773   6.613  0.00  0.00     0.024 A 
HETATM    4  C   UNK N   1      31.945  17.427   7.145  0.00  0.00     0.044 A 
HETATM    5  C   UNK N   1      31.879  18.034   8.392  0.00  0.00     0.024 A 
HETATM    6  C   UNK N   1      30.669  18.076   9.063  0.00  0.00     0.018 A 
HETATM    7  C   UNK N   1      33.151  17.500   6.391  0.00  0.00     0.099 C 
HETATM    8  N   UNK N   1      34.107  17.535   5.746  0.00  0.00    -0.191 NA
ENDROOT
BRANCH   1   9
HETATM    9  C   UNK N   1      28.170  17.884   8.926  0.00  0.00     0.251 C 
HETATM   10  N   UNK N   1      27.506  18.883   8.288  0.00  0.00    -0.357 N 
HETATM   11  H   UNK N   1      26.534  18.949   8.428  0.00  0.00     0.162 HD
HETATM   12  O   UNK N   1      27.557  17.173   9.704  0.00  0.00    -0.268 OA
BRANCH  10  13
HETATM   13  C   UNK N   1      28.131  19.855   7.416  0.00  0.00     0.129 C 
BRANCH  13  14
HETATM   14  C   UNK N   1      27.105  20.296   6.358  0.00  0.00     0.076 C 
BRANCH  14  15
HETATM   15  C   UNK N   1      26.866  19.169   5.414  0.00  0.00     0.013 A 
HETATM   16  N   UNK N   1      25.634  18.590   5.351  0.00  0.00    -0.346 N 
HETATM   17  C   UNK N   1      25.405  17.435   4.691  0.00  0.00     0.099 A 
ATOM     18  HN  UNK N   1      24.853  19.047   5.821  1.00  0.00     0.167 HD
HETATM   19  C   UNK N   1      26.453  16.823   4.007  0.00  0.00     0.054 A 
HETATM   20  C   UNK N   1      27.716  17.433   4.011  0.00  0.00    -0.057 A 
HETATM   21  C   UNK N   1      27.932  18.600   4.738  0.00  0.00     0.032 A 
HETATM   22  C   UNK N   1      28.846  16.813   3.281  0.00  0.00     0.048 C 
BRANCH  17  23
HETATM   23  N   UNK N   1      24.137  16.824   4.776  0.00  0.00    -0.385 N 
HETATM   24  H   UNK N   1      24.051  15.920   5.160  0.00  0.00     0.157 HD
HETATM   25  H   UNK N   1      23.338  17.298   4.453  0.00  0.00     0.157 HD
ENDBRANCH  17  23
ENDBRANCH  14  15
ENDBRANCH  13  14
ENDBRANCH  10  13
ENDBRANCH   1   9
TORSDOF 5
ENDMDL
MODEL 6
REMARK VINA RESULT:      -6.8     13.808     15.728
REMARK  5 active torsions:
REMARK  status: ('A' for Active; 'I' for Inactive)
REMARK    1  A    between atoms: C_3  and  N_21 
REMARK    2  A    between atoms: C_6  and  C_8 
REMARK    3  A    between atoms: C_8  and  C_9 
REMARK    4  A    between atoms: C_9  and  N_10 
REMARK       I    between atoms: N_10  and  C_11 
REMARK    5  A    between atoms: C_11  and  C_13 
ROOT
HETATM    1  C   UNK N   1      33.965  17.370   6.517  0.00  0.00     0.032 A 
HETATM    2  C   UNK N   1      34.626  16.146   6.443  0.00  0.00     0.018 A 
HETATM    3  C   UNK N   1      34.457  15.332   5.328  0.00  0.00     0.024 A 
HETATM    4  C   UNK N   1      33.629  15.753   4.282  0.00  0.00     0.044 A 
HETATM    5  C   UNK N   1      33.044  17.012   4.309  0.00  0.00     0.024 A 
HETATM    6  C   UNK N   1      33.204  17.812   5.427  0.00  0.00     0.018 A 
HETATM    7  C   UNK N   1      33.356  14.874   3.196  0.00  0.00     0.099 C 
HETATM    8  N   UNK N   1      33.162  14.129   2.336  0.00  0.00    -0.191 NA
ENDROOT
BRANCH   1   9
HETATM    9  C   UNK N   1      33.806  17.944   7.860  0.00  0.00     0.251 C 
HETATM   10  N   UNK N   1      32.939  17.395   8.750  0.00  0.00    -0.357 N 
HETATM   11  H   UNK N   1      33.036  17.643   9.697  0.00  0.00     0.162 HD
HETATM   12  O   UNK N   1      34.604  18.777   8.253  0.00  0.00    -0.268 OA
BRANCH  10  13
HETATM   13  C   UNK N   1      31.883  16.470   8.399  0.00  0.00     0.129 C 
BRANCH  13  14
HETATM   14  C   UNK N   1      30.544  17.044   8.893  0.00  0.00     0.076 C 
BRANCH  14  15
HETATM   15  C   UNK N   1      29.821  17.651   7.741  0.00  0.00     0.013 A 
HETATM   16  N   UNK N   1      28.893  18.625   7.963  0.00  0.00    -0.346 N 
HETATM   17  C   UNK N   1      28.050  19.059   7.004  0.00  0.00     0.099 A 
ATOM     18  HN  UNK N   1      28.834  19.042   8.892  1.00  0.00     0.167 HD
HETATM   19  C   UNK N   1      28.150  18.529   5.718  0.00  0.00     0.054 A 
HETATM   20  C   UNK N   1      29.137  17.568   5.454  0.00  0.00    -0.057 A 
HETATM   21  C   UNK N   1      29.963  17.107   6.476  0.00  0.00     0.032 A 
HETATM   22  C   UNK N   1      29.277  16.996   4.095  0.00  0.00     0.048 C 
BRANCH  17  23
HETATM   23  N   UNK N   1      27.028  19.973   7.335  0.00  0.00    -0.385 N 
HETATM   24  H   UNK N   1      26.139  19.642   7.601  0.00  0.00     0.157 HD
HETATM   25  H   UNK N   1      27.203  20.940   7.300  0.00  0.00     0.157 HD
ENDBRANCH  17  23
ENDBRANCH  14  15
ENDBRANCH  13  14
ENDBRANCH  10  13
ENDBRANCH   1   9
TORSDOF 5
ENDMDL
MODEL 7
REMARK VINA RESULT:      -6.8      2.093      4.220
REMARK  5 active torsions:
REMARK  status: ('A' for Active; 'I' for Inactive)
REMARK    1  A    between atoms: C_3  and  N_21 
REMARK    2  A    between atoms: C_6  and  C_8 
REMARK    3  A    between atoms: C_8  and  C_9 
REMARK    4  A    between atoms: C_9  and  N_10 
REMARK       I    between atoms: N_10  and  C_11 
REMARK    5  A    between atoms: C_11  and  C_13 
ROOT
HETATM    1  C   UNK N   1      28.193  23.902  -4.544  0.00  0.00     0.032 A 
HETATM    2  C   UNK N   1      28.598  23.295  -5.731  0.00  0.00     0.018 A 
HETATM    3  C   UNK N   1      27.655  22.974  -6.703  0.00  0.00     0.024 A 
HETATM    4  C   UNK N   1      26.306  23.271  -6.484  0.00  0.00     0.044 A 
HETATM    5  C   UNK N   1      25.911  23.960  -5.345  0.00  0.00     0.024 A 
HETATM    6  C   UNK N   1      26.851  24.264  -4.375  0.00  0.00     0.018 A 
HETATM    7  C   UNK N   1      25.324  22.836  -7.418  0.00  0.00     0.099 C 
HETATM    8  N   UNK N   1      24.561  22.465  -8.201  0.00  0.00    -0.191 NA
ENDROOT
BRANCH   1   9
HETATM    9  C   UNK N   1      29.118  23.787  -3.408  0.00  0.00     0.251 C 
HETATM   10  N   UNK N   1      30.118  24.690  -3.234  0.00  0.00    -0.357 N 
HETATM   11  H   UNK N   1      30.552  24.729  -2.352  0.00  0.00     0.162 HD
HETATM   12  O   UNK N   1      28.861  23.011  -2.503  0.00  0.00    -0.268 OA
BRANCH  10  13
HETATM   13  C   UNK N   1      30.585  25.600  -4.258  0.00  0.00     0.129 C 
BRANCH  13  14
HETATM   14  C   UNK N   1      30.222  27.036  -3.841  0.00  0.00     0.076 C 
BRANCH  14  15
HETATM   15  C   UNK N   1      28.944  27.424  -4.501  0.00  0.00     0.013 A 
HETATM   16  N   UNK N   1      27.919  27.918  -3.750  0.00  0.00    -0.346 N 
HETATM   17  C   UNK N   1      26.672  28.079  -4.238  0.00  0.00     0.099 A 
ATOM     18  HN  UNK N   1      28.102  28.176  -2.781  1.00  0.00     0.167 HD
HETATM   19  C   UNK N   1      26.418  27.773  -5.575  0.00  0.00     0.054 A 
HETATM   20  C   UNK N   1      27.473  27.318  -6.379  0.00  0.00    -0.057 A 
HETATM   21  C   UNK N   1      28.739  27.119  -5.835  0.00  0.00     0.032 A 
HETATM   22  C   UNK N   1      27.237  26.998  -7.806  0.00  0.00     0.048 C 
BRANCH  17  23
HETATM   23  N   UNK N   1      25.629  28.470  -3.372  0.00  0.00    -0.385 N 
HETATM   24  H   UNK N   1      25.832  28.997  -2.565  0.00  0.00     0.157 HD
HETATM   25  H   UNK N   1      24.700  28.218  -3.575  0.00  0.00     0.157 HD
ENDBRANCH  17  23
ENDBRANCH  14  15
ENDBRANCH  13  14
ENDBRANCH  10  13
ENDBRANCH   1   9
TORSDOF 5
ENDMDL
MODEL 8
REMARK VINA RESULT:      -6.7      2.299      6.103
REMARK  5 active torsions:
REMARK  status: ('A' for Active; 'I' for Inactive)
REMARK    1  A    between atoms: C_3  and  N_21 
REMARK    2  A    between atoms: C_6  and  C_8 
REMARK    3  A    between atoms: C_8  and  C_9 
REMARK    4  A    between atoms: C_9  and  N_10 
REMARK       I    between atoms: N_10  and  C_11 
REMARK    5  A    between atoms: C_11  and  C_13 
ROOT
HETATM    1  C   UNK N   1      26.022  24.184  -6.969  0.00  0.00     0.032 A 
HETATM    2  C   UNK N   1      26.147  25.525  -7.325  0.00  0.00     0.018 A 
HETATM    3  C   UNK N   1      26.069  26.513  -6.349  0.00  0.00     0.024 A 
HETATM    4  C   UNK N   1      25.870  26.151  -5.012  0.00  0.00     0.044 A 
HETATM    5  C   UNK N   1      25.839  24.814  -4.640  0.00  0.00     0.024 A 
HETATM    6  C   UNK N   1      25.904  23.835  -5.617  0.00  0.00     0.018 A 
HETATM    7  C   UNK N   1      25.666  27.159  -4.028  0.00  0.00     0.099 C 
HETATM    8  N   UNK N   1      25.506  28.008  -3.263  0.00  0.00    -0.191 NA
ENDROOT
BRANCH   1   9
HETATM    9  C   UNK N   1      25.651  23.257  -8.047  0.00  0.00     0.251 C 
HETATM   10  N   UNK N   1      26.561  22.388  -8.558  0.00  0.00    -0.357 N 
HETATM   11  H   UNK N   1      26.225  21.632  -9.090  0.00  0.00     0.162 HD
HETATM   12  O   UNK N   1      24.475  23.116  -8.337  0.00  0.00    -0.268 OA
BRANCH  10  13
HETATM   13  C   UNK N   1      27.992  22.498  -8.371  0.00  0.00     0.129 C 
BRANCH  13  14
HETATM   14  C   UNK N   1      28.498  21.214  -7.691  0.00  0.00     0.076 C 
BRANCH  14  15
HETATM   15  C   UNK N   1      29.324  21.584  -6.508  0.00  0.00     0.013 A 
HETATM   16  N   UNK N   1      30.200  20.679  -5.987  0.00  0.00    -0.346 N 
HETATM   17  C   UNK N   1      30.811  20.860  -4.797  0.00  0.00     0.099 A 
ATOM     18  HN  UNK N   1      30.402  19.832  -6.516  1.00  0.00     0.167 HD
HETATM   19  C   UNK N   1      30.579  22.036  -4.084  0.00  0.00     0.054 A 
HETATM   20  C   UNK N   1      29.725  23.005  -4.631  0.00  0.00    -0.057 A 
HETATM   21  C   UNK N   1      29.075  22.769  -5.839  0.00  0.00     0.032 A 
HETATM   22  C   UNK N   1      29.470  24.269  -3.903  0.00  0.00     0.048 C 
BRANCH  17  23
HETATM   23  N   UNK N   1      31.603  19.826  -4.256  0.00  0.00    -0.385 N 
HETATM   24  H   UNK N   1      32.162  19.998  -3.463  0.00  0.00     0.157 HD
HETATM   25  H   UNK N   1      31.597  18.934  -4.669  0.00  0.00     0.157 HD
ENDBRANCH  17  23
ENDBRANCH  14  15
ENDBRANCH  13  14
ENDBRANCH  10  13
ENDBRANCH   1   9
TORSDOF 5
ENDMDL
MODEL 9
REMARK VINA RESULT:      -6.5     14.165     18.157
REMARK  5 active torsions:
REMARK  status: ('A' for Active; 'I' for Inactive)
REMARK    1  A    between atoms: C_3  and  N_21 
REMARK    2  A    between atoms: C_6  and  C_8 
REMARK    3  A    between atoms: C_8  and  C_9 
REMARK    4  A    between atoms: C_9  and  N_10 
REMARK       I    between atoms: N_10  and  C_11 
REMARK    5  A    between atoms: C_11  and  C_13 
ROOT
HETATM    1  C   UNK N   1      33.579  17.489   7.572  0.00  0.00     0.032 A 
HETATM    2  C   UNK N   1      32.261  17.330   7.993  0.00  0.00     0.018 A 
HETATM    3  C   UNK N   1      31.245  17.184   7.054  0.00  0.00     0.024 A 
HETATM    4  C   UNK N   1      31.556  17.191   5.691  0.00  0.00     0.044 A 
HETATM    5  C   UNK N   1      32.877  17.254   5.269  0.00  0.00     0.024 A 
HETATM    6  C   UNK N   1      33.882  17.414   6.206  0.00  0.00     0.018 A 
HETATM    7  C   UNK N   1      30.510  17.165   4.725  0.00  0.00     0.099 C 
HETATM    8  N   UNK N   1      29.632  17.143   3.977  0.00  0.00    -0.191 NA
ENDROOT
BRANCH   1   9
HETATM    9  C   UNK N   1      34.503  18.091   8.543  0.00  0.00     0.251 C 
HETATM   10  N   UNK N   1      35.020  17.351   9.558  0.00  0.00    -0.357 N 
HETATM   11  H   UNK N   1      35.807  17.706  10.030  0.00  0.00     0.162 HD
HETATM   12  O   UNK N   1      34.975  19.192   8.317  0.00  0.00    -0.268 OA
BRANCH  10  13
HETATM   13  C   UNK N   1      34.493  16.074   9.991  0.00  0.00     0.129 C 
BRANCH  13  14
HETATM   14  C   UNK N   1      35.549  14.989   9.718  0.00  0.00     0.076 C 
BRANCH  14  15
HETATM   15  C   UNK N   1      35.341  14.442   8.349  0.00  0.00     0.013 A 
HETATM   16  N   UNK N   1      36.378  14.422   7.465  0.00  0.00    -0.346 N 
HETATM   17  C   UNK N   1      36.210  14.151   6.153  0.00  0.00     0.099 A 
ATOM     18  HN  UNK N   1      37.317  14.619   7.807  1.00  0.00     0.167 HD
HETATM   19  C   UNK N   1      34.938  13.836   5.680  0.00  0.00     0.054 A 
HETATM   20  C   UNK N   1      33.867  13.795   6.584  0.00  0.00    -0.057 A 
HETATM   21  C   UNK N   1      34.063  14.123   7.923  0.00  0.00     0.032 A 
HETATM   22  C   UNK N   1      32.506  13.450   6.113  0.00  0.00     0.048 C 
BRANCH  17  23
HETATM   23  N   UNK N   1      37.304  14.276   5.271  0.00  0.00    -0.385 N 
HETATM   24  H   UNK N   1      38.160  13.838   5.483  0.00  0.00     0.157 HD
HETATM   25  H   UNK N   1      37.211  14.800   4.443  0.00  0.00     0.157 HD
ENDBRANCH  17  23
ENDBRANCH  14  15
ENDBRANCH  13  14
ENDBRANCH  10  13
ENDBRANCH   1   9
TORSDOF 5
ENDMDL
