REMARK  5 active torsions:
REMARK  status: ('A' for Active; 'I' for Inactive)
REMARK    1  A    between atoms: C_3  and  N_21 
REMARK    2  A    between atoms: C_6  and  C_8 
REMARK    3  A    between atoms: C_8  and  C_9 
REMARK    4  A    between atoms: C_9  and  N_10 
REMARK       I    between atoms: N_10  and  C_11 
REMARK    5  A    between atoms: C_11  and  C_13 
ROOT
HETATM    1  C   UNK N   1       2.804   0.401  -0.084  0.00  0.00     0.032 A 
HETATM    2  C   UNK N   1       4.107   0.813   0.187  0.00  0.00     0.018 A 
HETATM    3  C   UNK N   1       5.156  -0.096   0.093  0.00  0.00     0.024 A 
HETATM    4  C   UNK N   1       4.895  -1.418  -0.281  0.00  0.00     0.044 A 
HETATM    5  C   UNK N   1       3.613  -1.809  -0.643  0.00  0.00     0.024 A 
HETATM    6  C   UNK N   1       2.571  -0.905  -0.534  0.00  0.00     0.018 A 
HETATM    7  C   UNK N   1       5.944  -2.381  -0.260  0.00  0.00     0.099 C 
HETATM    8  N   UNK N   1       6.823  -3.128  -0.229  0.00  0.00    -0.191 NA
ENDROOT
BRANCH   1   9
HETATM    9  C   UNK N   1       1.730   1.237   0.469  0.00  0.00     0.251 C 
HETATM   10  N   UNK N   1       0.781   0.700   1.280  0.00  0.00    -0.357 N 
HETATM   11  H   UNK N   1       0.236   1.317   1.819  0.00  0.00     0.162 HD
HETATM   12  O   UNK N   1       1.808   2.450   0.378  0.00  0.00    -0.268 OA
BRANCH  10  13
HETATM   13  C   UNK N   1       0.519  -0.718   1.405  0.00  0.00     0.129 C 
BRANCH  13  14
HETATM   14  C   UNK N   1      -0.180  -1.202   0.123  0.00  0.00     0.076 C 
BRANCH  14  15
HETATM   15  C   UNK N   1      -1.351  -0.324  -0.153  0.00  0.00     0.013 A 
HETATM   16  N   UNK N   1      -1.176   1.024  -0.252  0.00  0.00    -0.346 N 
HETATM   17  C   UNK N   1      -2.209   1.892  -0.278  0.00  0.00     0.099 A 
ATOM     18  HN  UNK N   1      -0.227   1.392  -0.309  1.00  0.00     0.167 HD
HETATM   19  C   UNK N   1      -3.513   1.400  -0.246  0.00  0.00     0.054 A 
HETATM   20  C   UNK N   1      -3.715   0.013  -0.202  0.00  0.00    -0.057 A 
HETATM   21  C   UNK N   1      -2.629  -0.855  -0.131  0.00  0.00     0.032 A 
HETATM   22  C   UNK N   1      -5.089  -0.540  -0.181  0.00  0.00     0.048 C 
BRANCH  17  23
HETATM   23  N   UNK N   1      -1.955   3.279  -0.249  0.00  0.00    -0.385 N 
HETATM   24  H   UNK N   1      -1.027   3.609  -0.229  0.00  0.00     0.157 HD
HETATM   25  H   UNK N   1      -2.704   3.917  -0.249  0.00  0.00     0.157 HD
ENDBRANCH  17  23
ENDBRANCH  14  15
ENDBRANCH  13  14
ENDBRANCH  10  13
ENDBRANCH   1   9
TORSDOF 5
