MODEL 1
REMARK VINA RESULT:      -7.2      0.000      0.000
REMARK  6 active torsions:
REMARK  status: ('A' for Active; 'I' for Inactive)
REMARK    1  A    between atoms: C_1  and  C_2 
REMARK    2  A    between atoms: C_1  and  N_19 
REMARK    3  A    between atoms: C_1  and  C_22 
REMARK       I    between atoms: C_2  and  N_21 
REMARK    4  A    between atoms: C_8  and  N_16 
REMARK    5  A    between atoms: C_9  and  S_15 
REMARK       I    between atoms: N_16  and  C_17 
REMARK       I    between atoms: C_17  and  N_19 
REMARK    6  A    between atoms: C_22  and  C_23 
ROOT
HETATM    1  N   UNK N   1      34.924  16.222  10.767  0.00  0.00    -0.288 N 
HETATM    2  C   UNK N   1      34.280  16.134   9.575  0.00  0.00     0.322 C 
HETATM    3  O   UNK N   1      34.487  15.183   8.832  0.00  0.00    -0.247 OA
HETATM    4  N   UNK N   1      33.378  17.088   9.215  0.00  0.00    -0.329 N 
HETATM    5  H   UNK N   1      34.816  17.038  11.307  0.00  0.00     0.172 HD
HETATM    6  H   UNK N   1      33.249  17.874   9.794  0.00  0.00     0.165 HD
ENDROOT
BRANCH   4   7
HETATM    7  C   UNK N   1      32.602  16.967   7.990  0.00  0.00     0.182 C 
BRANCH   7   8
HETATM    8  C   UNK N   1      31.184  17.487   8.208  0.00  0.00     0.240 C 
HETATM    9  O   UNK N   1      30.393  17.528   7.274  0.00  0.00    -0.271 OA
HETATM   10  N   UNK N   1      30.813  17.949   9.425  0.00  0.00    -0.364 N 
HETATM   11  C   UNK N   1      29.507  18.509   9.660  0.00  0.00     0.149 C 
HETATM   12  H   UNK N   1      31.454  17.900  10.171  0.00  0.00     0.161 HD
ENDBRANCH   7   8
BRANCH   7  13
HETATM   13  C   UNK N   1      33.312  17.731   6.863  0.00  0.00     0.073 C 
BRANCH  13  14
HETATM   14  C   UNK N   1      33.309  17.067   5.510  0.00  0.00    -0.056 A 
HETATM   15  C   UNK N   1      32.648  17.637   4.408  0.00  0.00     0.007 A 
HETATM   16  C   UNK N   1      32.670  17.001   3.165  0.00  0.00     0.001 A 
HETATM   17  C   UNK N   1      33.339  15.784   3.014  0.00  0.00     0.000 A 
HETATM   18  C   UNK N   1      33.983  15.202   4.110  0.00  0.00     0.001 A 
HETATM   19  C   UNK N   1      33.967  15.842   5.354  0.00  0.00     0.007 A 
ENDBRANCH  13  14
ENDBRANCH   7  13
ENDBRANCH   4   7
BRANCH   1  20
HETATM   20  C   UNK N   1      35.751  15.174  11.262  0.00  0.00     0.169 A 
HETATM   21  N   UNK N   1      37.006  14.897  10.810  0.00  0.00    -0.278 N 
HETATM   22  N   UNK N   1      37.569  13.829  11.406  0.00  0.00    -0.286 N 
ATOM     23  HN  UNK N   1      37.474  15.446  10.089  1.00  0.00     0.189 HD
HETATM   24  C   UNK N   1      36.768  13.241  12.332  0.00  0.00     0.127 A 
ATOM     25  HN  UNK N   1      38.507  13.493  11.184  1.00  0.00     0.188 HD
HETATM   26  S   UNK N   1      35.336  14.064  12.405  0.00  0.00    -0.026 SA
BRANCH  24  27
HETATM   27  S   UNK N   1      37.225  11.814  13.302  0.00  0.00    -0.117 SA
HETATM   28  H   UNK N   1      37.258  11.897  14.660  0.00  0.00     0.109 HD
ENDBRANCH  24  27
ENDBRANCH   1  20
TORSDOF 6
ENDMDL
MODEL 2
REMARK VINA RESULT:      -7.0      4.187      9.579
REMARK  6 active torsions:
REMARK  status: ('A' for Active; 'I' for Inactive)
REMARK    1  A    between atoms: C_1  and  C_2 
REMARK    2  A    between atoms: C_1  and  N_19 
REMARK    3  A    between atoms: C_1  and  C_22 
REMARK       I    between atoms: C_2  and  N_21 
REMARK    4  A    between atoms: C_8  and  N_16 
REMARK    5  A    between atoms: C_9  and  S_15 
REMARK       I    between atoms: N_16  and  C_17 
REMARK       I    between atoms: C_17  and  N_19 
REMARK    6  A    between atoms: C_22  and  C_23 
ROOT
HETATM    1  N   UNK N   1      36.329  14.913  11.379  0.00  0.00    -0.288 N 
HETATM    2  C   UNK N   1      35.664  14.088  12.229  0.00  0.00     0.322 C 
HETATM    3  O   UNK N   1      34.442  14.128  12.297  0.00  0.00    -0.247 OA
HETATM    4  N   UNK N   1      36.353  13.190  12.985  0.00  0.00    -0.329 N 
HETATM    5  H   UNK N   1      37.313  14.931  11.407  0.00  0.00     0.172 HD
HETATM    6  H   UNK N   1      37.337  13.191  12.961  0.00  0.00     0.165 HD
ENDROOT
BRANCH   4   7
HETATM    7  C   UNK N   1      35.660  12.227  13.829  0.00  0.00     0.182 C 
BRANCH   7   8
HETATM    8  C   UNK N   1      35.244  11.009  13.010  0.00  0.00     0.240 C 
HETATM    9  O   UNK N   1      36.016  10.068  12.871  0.00  0.00    -0.271 OA
HETATM   10  N   UNK N   1      34.038  10.987  12.395  0.00  0.00    -0.364 N 
HETATM   11  C   UNK N   1      33.630   9.887  11.560  0.00  0.00     0.149 C 
HETATM   12  H   UNK N   1      33.422  11.744  12.523  0.00  0.00     0.161 HD
ENDBRANCH   7   8
BRANCH   7  13
HETATM   13  C   UNK N   1      36.573  11.831  14.999  0.00  0.00     0.073 C 
BRANCH  13  14
HETATM   14  C   UNK N   1      36.042  12.123  16.379  0.00  0.00    -0.056 A 
HETATM   15  C   UNK N   1      35.869  11.108  17.335  0.00  0.00     0.007 A 
HETATM   16  C   UNK N   1      35.383  11.411  18.609  0.00  0.00     0.001 A 
HETATM   17  C   UNK N   1      35.051  12.729  18.934  0.00  0.00     0.000 A 
HETATM   18  C   UNK N   1      35.203  13.741  17.982  0.00  0.00     0.001 A 
HETATM   19  C   UNK N   1      35.697  13.439  16.709  0.00  0.00     0.007 A 
ENDBRANCH  13  14
ENDBRANCH   7  13
ENDBRANCH   4   7
BRANCH   1  20
HETATM   20  C   UNK N   1      35.651  15.752  10.451  0.00  0.00     0.169 A 
HETATM   21  N   UNK N   1      35.072  16.946  10.764  0.00  0.00    -0.278 N 
HETATM   22  N   UNK N   1      34.453  17.534   9.722  0.00  0.00    -0.286 N 
ATOM     23  HN  UNK N   1      35.106  17.355  11.698  1.00  0.00     0.189 HD
HETATM   24  C   UNK N   1      34.526  16.813   8.573  0.00  0.00     0.127 A 
ATOM     25  HN  UNK N   1      33.976  18.433   9.790  1.00  0.00     0.188 HD
HETATM   26  S   UNK N   1      35.370  15.422   8.863  0.00  0.00    -0.026 SA
BRANCH  24  27
HETATM   27  S   UNK N   1      33.816  17.321   7.017  0.00  0.00    -0.117 SA
HETATM   28  H   UNK N   1      34.576  17.317   5.889  0.00  0.00     0.109 HD
ENDBRANCH  24  27
ENDBRANCH   1  20
TORSDOF 6
ENDMDL
MODEL 3
REMARK VINA RESULT:      -6.9      3.870      9.082
REMARK  6 active torsions:
REMARK  status: ('A' for Active; 'I' for Inactive)
REMARK    1  A    between atoms: C_1  and  C_2 
REMARK    2  A    between atoms: C_1  and  N_19 
REMARK    3  A    between atoms: C_1  and  C_22 
REMARK       I    between atoms: C_2  and  N_21 
REMARK    4  A    between atoms: C_8  and  N_16 
REMARK    5  A    between atoms: C_9  and  S_15 
REMARK       I    between atoms: N_16  and  C_17 
REMARK       I    between atoms: C_17  and  N_19 
REMARK    6  A    between atoms: C_22  and  C_23 
ROOT
HETATM    1  N   UNK N   1      36.044  15.178  10.669  0.00  0.00    -0.288 N 
HETATM    2  C   UNK N   1      35.495  14.483  11.699  0.00  0.00     0.322 C 
HETATM    3  O   UNK N   1      34.303  14.600  11.954  0.00  0.00    -0.247 OA
HETATM    4  N   UNK N   1      36.262  13.629  12.431  0.00  0.00    -0.329 N 
HETATM    5  H   UNK N   1      37.020  15.142  10.539  0.00  0.00     0.172 HD
HETATM    6  H   UNK N   1      37.229  13.572  12.252  0.00  0.00     0.165 HD
ENDROOT
BRANCH   4   7
HETATM    7  C   UNK N   1      35.678  12.799  13.474  0.00  0.00     0.182 C 
BRANCH   7   8
HETATM    8  C   UNK N   1      35.298  11.433  12.912  0.00  0.00     0.240 C 
HETATM    9  O   UNK N   1      36.037  10.470  13.081  0.00  0.00    -0.271 OA
HETATM   10  N   UNK N   1      34.166  11.291  12.184  0.00  0.00    -0.364 N 
HETATM   11  C   UNK N   1      33.800  10.036  11.580  0.00  0.00     0.149 C 
HETATM   12  H   UNK N   1      33.574  12.070  12.065  0.00  0.00     0.161 HD
ENDBRANCH   7   8
BRANCH   7  13
HETATM   13  C   UNK N   1      36.676  12.669  14.635  0.00  0.00     0.073 C 
BRANCH  13  14
HETATM   14  C   UNK N   1      36.506  13.652  15.765  0.00  0.00    -0.056 A 
HETATM   15  C   UNK N   1      35.605  13.419  16.818  0.00  0.00     0.007 A 
HETATM   16  C   UNK N   1      35.476  14.345  17.856  0.00  0.00     0.001 A 
HETATM   17  C   UNK N   1      36.235  15.519  17.842  0.00  0.00     0.000 A 
HETATM   18  C   UNK N   1      37.119  15.766  16.789  0.00  0.00     0.001 A 
HETATM   19  C   UNK N   1      37.254  14.835  15.754  0.00  0.00     0.007 A 
ENDBRANCH  13  14
ENDBRANCH   7  13
ENDBRANCH   4   7
BRANCH   1  20
HETATM   20  C   UNK N   1      35.258  15.955   9.774  0.00  0.00     0.169 A 
HETATM   21  N   UNK N   1      34.615  17.109  10.108  0.00  0.00    -0.278 N 
HETATM   22  N   UNK N   1      33.898  17.638   9.098  0.00  0.00    -0.286 N 
ATOM     23  HN  UNK N   1      34.671  17.532  11.034  1.00  0.00     0.189 HD
HETATM   24  C   UNK N   1      33.958  16.910   7.953  0.00  0.00     0.127 A 
ATOM     25  HN  UNK N   1      33.363  18.503   9.183  1.00  0.00     0.188 HD
HETATM   26  S   UNK N   1      34.914  15.585   8.207  0.00  0.00    -0.026 SA
BRANCH  24  27
HETATM   27  S   UNK N   1      33.128  17.347   6.434  0.00  0.00    -0.117 SA
HETATM   28  H   UNK N   1      32.030  18.148   6.465  0.00  0.00     0.109 HD
ENDBRANCH  24  27
ENDBRANCH   1  20
TORSDOF 6
ENDMDL
MODEL 4
REMARK VINA RESULT:      -6.5      1.595      3.871
REMARK  6 active torsions:
REMARK  status: ('A' for Active; 'I' for Inactive)
REMARK    1  A    between atoms: C_1  and  C_2 
REMARK    2  A    between atoms: C_1  and  N_19 
REMARK    3  A    between atoms: C_1  and  C_22 
REMARK       I    between atoms: C_2  and  N_21 
REMARK    4  A    between atoms: C_8  and  N_16 
REMARK    5  A    between atoms: C_9  and  S_15 
REMARK       I    between atoms: N_16  and  C_17 
REMARK       I    between atoms: C_17  and  N_19 
REMARK    6  A    between atoms: C_22  and  C_23 
ROOT
HETATM    1  N   UNK N   1      35.523  16.488  10.786  0.00  0.00    -0.288 N 
HETATM    2  C   UNK N   1      34.731  16.516   9.683  0.00  0.00     0.322 C 
HETATM    3  O   UNK N   1      34.664  15.538   8.949  0.00  0.00    -0.247 OA
HETATM    4  N   UNK N   1      33.983  17.619   9.408  0.00  0.00    -0.329 N 
HETATM    5  H   UNK N   1      35.636  17.314  11.311  0.00  0.00     0.172 HD
HETATM    6  H   UNK N   1      34.074  18.419   9.976  0.00  0.00     0.165 HD
ENDROOT
BRANCH   4   7
HETATM    7  C   UNK N   1      33.051  17.638   8.290  0.00  0.00     0.182 C 
BRANCH   7   8
HETATM    8  C   UNK N   1      33.759  17.225   7.004  0.00  0.00     0.240 C 
HETATM    9  O   UNK N   1      34.599  17.960   6.500  0.00  0.00    -0.271 OA
HETATM   10  N   UNK N   1      33.425  16.066   6.390  0.00  0.00    -0.364 N 
HETATM   11  C   UNK N   1      34.020  15.666   5.141  0.00  0.00     0.149 C 
HETATM   12  H   UNK N   1      32.756  15.478   6.811  0.00  0.00     0.161 HD
ENDBRANCH   7   8
BRANCH   7  13
HETATM   13  C   UNK N   1      31.869  16.709   8.603  0.00  0.00     0.073 C 
BRANCH  13  14
HETATM   14  C   UNK N   1      30.496  17.279   8.350  0.00  0.00    -0.056 A 
HETATM   15  C   UNK N   1      29.747  17.882   9.374  0.00  0.00     0.007 A 
HETATM   16  C   UNK N   1      28.481  18.409   9.108  0.00  0.00     0.001 A 
HETATM   17  C   UNK N   1      27.946  18.324   7.819  0.00  0.00     0.000 A 
HETATM   18  C   UNK N   1      28.678  17.709   6.800  0.00  0.00     0.001 A 
HETATM   19  C   UNK N   1      29.949  17.188   7.065  0.00  0.00     0.007 A 
ENDBRANCH  13  14
ENDBRANCH   7  13
ENDBRANCH   4   7
BRANCH   1  20
HETATM   20  C   UNK N   1      36.197  15.308  11.208  0.00  0.00     0.169 A 
HETATM   21  N   UNK N   1      37.320  14.805  10.623  0.00  0.00    -0.278 N 
HETATM   22  N   UNK N   1      37.745  13.652  11.175  0.00  0.00    -0.286 N 
ATOM     23  HN  UNK N   1      37.794  15.258   9.842  1.00  0.00     0.189 HD
HETATM   24  C   UNK N   1      36.962  13.222  12.199  0.00  0.00     0.127 A 
ATOM     25  HN  UNK N   1      38.574  13.150  10.856  1.00  0.00     0.188 HD
HETATM   26  S   UNK N   1      35.721  14.293  12.414  0.00  0.00    -0.026 SA
BRANCH  24  27
HETATM   27  S   UNK N   1      37.260  11.737  13.142  0.00  0.00    -0.117 SA
HETATM   28  H   UNK N   1      37.754  11.822  14.406  0.00  0.00     0.109 HD
ENDBRANCH  24  27
ENDBRANCH   1  20
TORSDOF 6
ENDMDL
MODEL 5
REMARK VINA RESULT:      -6.3      2.300      3.673
REMARK  6 active torsions:
REMARK  status: ('A' for Active; 'I' for Inactive)
REMARK    1  A    between atoms: C_1  and  C_2 
REMARK    2  A    between atoms: C_1  and  N_19 
REMARK    3  A    between atoms: C_1  and  C_22 
REMARK       I    between atoms: C_2  and  N_21 
REMARK    4  A    between atoms: C_8  and  N_16 
REMARK    5  A    between atoms: C_9  and  S_15 
REMARK       I    between atoms: N_16  and  C_17 
REMARK       I    between atoms: C_17  and  N_19 
REMARK    6  A    between atoms: C_22  and  C_23 
ROOT
HETATM    1  N   UNK N   1      34.361  15.141  11.216  0.00  0.00    -0.288 N 
HETATM    2  C   UNK N   1      34.869  15.760  10.119  0.00  0.00     0.322 C 
HETATM    3  O   UNK N   1      36.079  15.905   9.999  0.00  0.00    -0.247 OA
HETATM    4  N   UNK N   1      34.035  16.192   9.133  0.00  0.00    -0.329 N 
HETATM    5  H   UNK N   1      33.384  15.117  11.339  0.00  0.00     0.172 HD
HETATM    6  H   UNK N   1      33.061  16.114   9.255  0.00  0.00     0.165 HD
ENDROOT
BRANCH   4   7
HETATM    7  C   UNK N   1      34.559  16.768   7.903  0.00  0.00     0.182 C 
BRANCH   7   8
HETATM    8  C   UNK N   1      34.650  15.702   6.817  0.00  0.00     0.240 C 
HETATM    9  O   UNK N   1      35.294  15.916   5.797  0.00  0.00    -0.271 OA
HETATM   10  N   UNK N   1      33.979  14.534   6.956  0.00  0.00    -0.364 N 
HETATM   11  C   UNK N   1      33.984  13.526   5.927  0.00  0.00     0.149 C 
HETATM   12  H   UNK N   1      33.474  14.369   7.785  0.00  0.00     0.161 HD
ENDBRANCH   7   8
BRANCH   7  13
HETATM   13  C   UNK N   1      33.659  17.935   7.469  0.00  0.00     0.073 C 
BRANCH  13  14
HETATM   14  C   UNK N   1      32.174  17.685   7.536  0.00  0.00    -0.056 A 
HETATM   15  C   UNK N   1      31.418  18.026   8.670  0.00  0.00     0.007 A 
HETATM   16  C   UNK N   1      30.041  17.790   8.699  0.00  0.00     0.001 A 
HETATM   17  C   UNK N   1      29.411  17.197   7.602  0.00  0.00     0.000 A 
HETATM   18  C   UNK N   1      30.160  16.837   6.478  0.00  0.00     0.001 A 
HETATM   19  C   UNK N   1      31.538  17.081   6.446  0.00  0.00     0.007 A 
ENDBRANCH  13  14
ENDBRANCH   7  13
ENDBRANCH   4   7
BRANCH   1  20
HETATM   20  C   UNK N   1      35.193  14.527  12.194  0.00  0.00     0.169 A 
HETATM   21  N   UNK N   1      36.210  15.153  12.849  0.00  0.00    -0.278 N 
HETATM   22  N   UNK N   1      36.880  14.348  13.697  0.00  0.00    -0.286 N 
ATOM     23  HN  UNK N   1      36.442  16.136  12.712  1.00  0.00     0.189 HD
HETATM   24  C   UNK N   1      36.409  13.074  13.720  0.00  0.00     0.127 A 
ATOM     25  HN  UNK N   1      37.666  14.664  14.267  1.00  0.00     0.188 HD
HETATM   26  S   UNK N   1      35.141  12.950  12.666  0.00  0.00    -0.026 SA
BRANCH  24  27
HETATM   27  S   UNK N   1      37.072  11.771  14.743  0.00  0.00    -0.117 SA
HETATM   28  H   UNK N   1      36.656  10.488  14.564  0.00  0.00     0.109 HD
ENDBRANCH  24  27
ENDBRANCH   1  20
TORSDOF 6
ENDMDL
MODEL 6
REMARK VINA RESULT:      -6.2      1.994      3.987
REMARK  6 active torsions:
REMARK  status: ('A' for Active; 'I' for Inactive)
REMARK    1  A    between atoms: C_1  and  C_2 
REMARK    2  A    between atoms: C_1  and  N_19 
REMARK    3  A    between atoms: C_1  and  C_22 
REMARK       I    between atoms: C_2  and  N_21 
REMARK    4  A    between atoms: C_8  and  N_16 
REMARK    5  A    between atoms: C_9  and  S_15 
REMARK       I    between atoms: N_16  and  C_17 
REMARK       I    between atoms: C_17  and  N_19 
REMARK    6  A    between atoms: C_22  and  C_23 
ROOT
HETATM    1  N   UNK N   1      33.805  15.001  11.042  0.00  0.00    -0.288 N 
HETATM    2  C   UNK N   1      33.930  15.382   9.744  0.00  0.00     0.322 C 
HETATM    3  O   UNK N   1      35.016  15.311   9.184  0.00  0.00    -0.247 OA
HETATM    4  N   UNK N   1      32.840  15.814   9.052  0.00  0.00    -0.329 N 
HETATM    5  H   UNK N   1      32.947  15.153  11.501  0.00  0.00     0.172 HD
HETATM    6  H   UNK N   1      31.978  15.912   9.519  0.00  0.00     0.165 HD
ENDROOT
BRANCH   4   7
HETATM    7  C   UNK N   1      32.926  16.132   7.635  0.00  0.00     0.182 C 
BRANCH   7   8
HETATM    8  C   UNK N   1      32.302  15.017   6.803  0.00  0.00     0.240 C 
HETATM    9  O   UNK N   1      31.944  13.975   7.339  0.00  0.00    -0.271 OA
HETATM   10  N   UNK N   1      32.188  15.156   5.461  0.00  0.00    -0.364 N 
HETATM   11  C   UNK N   1      31.666  14.103   4.628  0.00  0.00     0.149 C 
HETATM   12  H   UNK N   1      32.469  16.002   5.043  0.00  0.00     0.161 HD
ENDBRANCH   7   8
BRANCH   7  13
HETATM   13  C   UNK N   1      32.232  17.478   7.377  0.00  0.00     0.073 C 
BRANCH  13  14
HETATM   14  C   UNK N   1      30.856  17.638   7.975  0.00  0.00    -0.056 A 
HETATM   15  C   UNK N   1      29.719  17.075   7.372  0.00  0.00     0.007 A 
HETATM   16  C   UNK N   1      28.459  17.233   7.954  0.00  0.00     0.001 A 
HETATM   17  C   UNK N   1      28.323  17.968   9.136  0.00  0.00     0.000 A 
HETATM   18  C   UNK N   1      29.448  18.546   9.730  0.00  0.00     0.001 A 
HETATM   19  C   UNK N   1      30.711  18.381   9.151  0.00  0.00     0.007 A 
ENDBRANCH  13  14
ENDBRANCH   7  13
ENDBRANCH   4   7
BRANCH   1  20
HETATM   20  C   UNK N   1      34.871  14.391  11.760  0.00  0.00     0.169 A 
HETATM   21  N   UNK N   1      36.022  15.024  12.126  0.00  0.00    -0.278 N 
HETATM   22  N   UNK N   1      36.899  14.222  12.760  0.00  0.00    -0.286 N 
ATOM     23  HN  UNK N   1      36.200  16.010  11.938  1.00  0.00     0.189 HD
HETATM   24  C   UNK N   1      36.461  12.944  12.898  0.00  0.00     0.127 A 
ATOM     25  HN  UNK N   1      37.805  14.543  13.102  1.00  0.00     0.188 HD
HETATM   26  S   UNK N   1      34.960  12.812  12.217  0.00  0.00    -0.026 SA
BRANCH  24  27
HETATM   27  S   UNK N   1      37.383  11.642  13.700  0.00  0.00    -0.117 SA
HETATM   28  H   UNK N   1      38.669  11.395  13.333  0.00  0.00     0.109 HD
ENDBRANCH  24  27
ENDBRANCH   1  20
TORSDOF 6
ENDMDL
MODEL 7
REMARK VINA RESULT:      -6.2     14.998     17.706
REMARK  6 active torsions:
REMARK  status: ('A' for Active; 'I' for Inactive)
REMARK    1  A    between atoms: C_1  and  C_2 
REMARK    2  A    between atoms: C_1  and  N_19 
REMARK    3  A    between atoms: C_1  and  C_22 
REMARK       I    between atoms: C_2  and  N_21 
REMARK    4  A    between atoms: C_8  and  N_16 
REMARK    5  A    between atoms: C_9  and  S_15 
REMARK       I    between atoms: N_16  and  C_17 
REMARK       I    between atoms: C_17  and  N_19 
REMARK    6  A    between atoms: C_22  and  C_23 
ROOT
HETATM    1  N   UNK N   1      28.825  23.481  -3.995  0.00  0.00    -0.288 N 
HETATM    2  C   UNK N   1      28.278  24.066  -5.091  0.00  0.00     0.322 C 
HETATM    3  O   UNK N   1      28.978  24.336  -6.060  0.00  0.00    -0.247 OA
HETATM    4  N   UNK N   1      26.942  24.326  -5.130  0.00  0.00    -0.329 N 
HETATM    5  H   UNK N   1      28.267  23.358  -3.193  0.00  0.00     0.172 HD
HETATM    6  H   UNK N   1      26.392  24.150  -4.333  0.00  0.00     0.165 HD
ENDROOT
BRANCH   4   7
HETATM    7  C   UNK N   1      26.313  24.860  -6.329  0.00  0.00     0.182 C 
BRANCH   7   8
HETATM    8  C   UNK N   1      25.583  23.753  -7.082  0.00  0.00     0.240 C 
HETATM    9  O   UNK N   1      25.154  23.956  -8.212  0.00  0.00    -0.271 OA
HETATM   10  N   UNK N   1      25.363  22.559  -6.484  0.00  0.00    -0.364 N 
HETATM   11  C   UNK N   1      24.622  21.507  -7.131  0.00  0.00     0.149 C 
HETATM   12  H   UNK N   1      25.723  22.404  -5.579  0.00  0.00     0.161 HD
ENDBRANCH   7   8
BRANCH   7  13
HETATM   13  C   UNK N   1      25.357  25.996  -5.936  0.00  0.00     0.073 C 
BRANCH  13  14
HETATM   14  C   UNK N   1      26.005  27.302  -5.549  0.00  0.00    -0.056 A 
HETATM   15  C   UNK N   1      27.043  27.864  -6.310  0.00  0.00     0.007 A 
HETATM   16  C   UNK N   1      27.618  29.080  -5.931  0.00  0.00     0.001 A 
HETATM   17  C   UNK N   1      27.171  29.735  -4.780  0.00  0.00     0.000 A 
HETATM   18  C   UNK N   1      26.151  29.172  -4.009  0.00  0.00     0.001 A 
HETATM   19  C   UNK N   1      25.570  27.958  -4.392  0.00  0.00     0.007 A 
ENDBRANCH  13  14
ENDBRANCH   7  13
ENDBRANCH   4   7
BRANCH   1  20
HETATM   20  C   UNK N   1      30.178  23.041  -3.966  0.00  0.00     0.169 A 
HETATM   21  N   UNK N   1      31.250  23.803  -4.323  0.00  0.00    -0.278 N 
HETATM   22  N   UNK N   1      32.425  23.148  -4.251  0.00  0.00    -0.286 N 
ATOM     23  HN  UNK N   1      31.170  24.777  -4.615  1.00  0.00     0.189 HD
HETATM   24  C   UNK N   1      32.300  21.857  -3.844  0.00  0.00     0.127 A 
ATOM     25  HN  UNK N   1      33.321  23.578  -4.480  1.00  0.00     0.188 HD
HETATM   26  S   UNK N   1      30.702  21.529  -3.574  0.00  0.00    -0.026 SA
BRANCH  24  27
HETATM   27  S   UNK N   1      33.667  20.728  -3.639  0.00  0.00    -0.117 SA
HETATM   28  H   UNK N   1      34.796  21.136  -3.000  0.00  0.00     0.109 HD
ENDBRANCH  24  27
ENDBRANCH   1  20
TORSDOF 6
ENDMDL
MODEL 8
REMARK VINA RESULT:      -6.2      4.540     10.256
REMARK  6 active torsions:
REMARK  status: ('A' for Active; 'I' for Inactive)
REMARK    1  A    between atoms: C_1  and  C_2 
REMARK    2  A    between atoms: C_1  and  N_19 
REMARK    3  A    between atoms: C_1  and  C_22 
REMARK       I    between atoms: C_2  and  N_21 
REMARK    4  A    between atoms: C_8  and  N_16 
REMARK    5  A    between atoms: C_9  and  S_15 
REMARK       I    between atoms: N_16  and  C_17 
REMARK       I    between atoms: C_17  and  N_19 
REMARK    6  A    between atoms: C_22  and  C_23 
ROOT
HETATM    1  N   UNK N   1      35.491  14.553  12.689  0.00  0.00    -0.288 N 
HETATM    2  C   UNK N   1      35.356  13.215  12.880  0.00  0.00     0.322 C 
HETATM    3  O   UNK N   1      34.648  12.555  12.129  0.00  0.00    -0.247 OA
HETATM    4  N   UNK N   1      36.032  12.598  13.887  0.00  0.00    -0.329 N 
HETATM    5  H   UNK N   1      35.987  15.080  13.356  0.00  0.00     0.172 HD
HETATM    6  H   UNK N   1      36.564  13.139  14.515  0.00  0.00     0.165 HD
ENDROOT
BRANCH   4   7
HETATM    7  C   UNK N   1      35.984  11.153  14.052  0.00  0.00     0.182 C 
BRANCH   7   8
HETATM    8  C   UNK N   1      37.353  10.621  14.464  0.00  0.00     0.240 C 
HETATM    9  O   UNK N   1      38.315  11.377  14.523  0.00  0.00    -0.271 OA
HETATM   10  N   UNK N   1      37.518   9.302  14.718  0.00  0.00    -0.364 N 
HETATM   11  C   UNK N   1      38.805   8.745  15.046  0.00  0.00     0.149 C 
HETATM   12  H   UNK N   1      36.735   8.705  14.677  0.00  0.00     0.161 HD
ENDBRANCH   7   8
BRANCH   7  13
HETATM   13  C   UNK N   1      34.909  10.798  15.090  0.00  0.00     0.073 C 
BRANCH  13  14
HETATM   14  C   UNK N   1      35.058  11.447  16.443  0.00  0.00    -0.056 A 
HETATM   15  C   UNK N   1      34.914  12.834  16.617  0.00  0.00     0.007 A 
HETATM   16  C   UNK N   1      35.050  13.405  17.885  0.00  0.00     0.001 A 
HETATM   17  C   UNK N   1      35.346  12.598  18.987  0.00  0.00     0.000 A 
HETATM   18  C   UNK N   1      35.509  11.220  18.818  0.00  0.00     0.001 A 
HETATM   19  C   UNK N   1      35.366  10.647  17.550  0.00  0.00     0.007 A 
ENDBRANCH  13  14
ENDBRANCH   7  13
ENDBRANCH   4   7
BRANCH   1  20
HETATM   20  C   UNK N   1      34.938  15.218  11.559  0.00  0.00     0.169 A 
HETATM   21  N   UNK N   1      33.718  14.945  11.018  0.00  0.00    -0.278 N 
HETATM   22  N   UNK N   1      33.436  15.679   9.924  0.00  0.00    -0.286 N 
ATOM     23  HN  UNK N   1      33.078  14.251  11.405  1.00  0.00     0.189 HD
HETATM   24  C   UNK N   1      34.431  16.538   9.579  0.00  0.00     0.127 A 
ATOM     25  HN  UNK N   1      32.561  15.598   9.406  1.00  0.00     0.188 HD
HETATM   26  S   UNK N   1      35.679  16.375  10.651  0.00  0.00    -0.026 SA
BRANCH  24  27
HETATM   27  S   UNK N   1      34.363  17.653   8.187  0.00  0.00    -0.117 SA
HETATM   28  H   UNK N   1      35.191  17.467   7.125  0.00  0.00     0.109 HD
ENDBRANCH  24  27
ENDBRANCH   1  20
TORSDOF 6
ENDMDL
MODEL 9
REMARK VINA RESULT:      -6.1      3.473      5.471
REMARK  6 active torsions:
REMARK  status: ('A' for Active; 'I' for Inactive)
REMARK    1  A    between atoms: C_1  and  C_2 
REMARK    2  A    between atoms: C_1  and  N_19 
REMARK    3  A    between atoms: C_1  and  C_22 
REMARK       I    between atoms: C_2  and  N_21 
REMARK    4  A    between atoms: C_8  and  N_16 
REMARK    5  A    between atoms: C_9  and  S_15 
REMARK       I    between atoms: N_16  and  C_17 
REMARK       I    between atoms: C_17  and  N_19 
REMARK    6  A    between atoms: C_22  and  C_23 
ROOT
HETATM    1  N   UNK N   1      31.669  15.832   8.214  0.00  0.00    -0.288 N 
HETATM    2  C   UNK N   1      31.464  16.664   7.161  0.00  0.00     0.322 C 
HETATM    3  O   UNK N   1      32.228  17.599   6.957  0.00  0.00    -0.247 OA
HETATM    4  N   UNK N   1      30.425  16.443   6.309  0.00  0.00    -0.329 N 
HETATM    5  H   UNK N   1      30.994  15.145   8.416  0.00  0.00     0.172 HD
HETATM    6  H   UNK N   1      29.788  15.717   6.502  0.00  0.00     0.165 HD
ENDROOT
BRANCH   4   7
HETATM    7  C   UNK N   1      30.241  17.258   5.117  0.00  0.00     0.182 C 
BRANCH   7   8
HETATM    8  C   UNK N   1      31.033  16.677   3.951  0.00  0.00     0.240 C 
HETATM    9  O   UNK N   1      30.465  16.020   3.087  0.00  0.00    -0.271 OA
HETATM   10  N   UNK N   1      32.375  16.846   3.893  0.00  0.00    -0.364 N 
HETATM   11  C   UNK N   1      33.172  16.261   2.845  0.00  0.00     0.149 C 
HETATM   12  H   UNK N   1      32.819  17.385   4.587  0.00  0.00     0.161 HD
ENDBRANCH   7   8
BRANCH   7  13
HETATM   13  C   UNK N   1      28.743  17.344   4.790  0.00  0.00     0.073 C 
BRANCH  13  14
HETATM   14  C   UNK N   1      28.066  18.649   5.127  0.00  0.00    -0.056 A 
HETATM   15  C   UNK N   1      28.010  19.133   6.445  0.00  0.00     0.007 A 
HETATM   16  C   UNK N   1      27.384  20.350   6.724  0.00  0.00     0.001 A 
HETATM   17  C   UNK N   1      26.794  21.085   5.692  0.00  0.00     0.000 A 
HETATM   18  C   UNK N   1      26.830  20.600   4.382  0.00  0.00     0.001 A 
HETATM   19  C   UNK N   1      27.465  19.385   4.100  0.00  0.00     0.007 A 
ENDBRANCH  13  14
ENDBRANCH   7  13
ENDBRANCH   4   7
BRANCH   1  20
HETATM   20  C   UNK N   1      32.827  15.920   9.036  0.00  0.00     0.169 A 
HETATM   21  N   UNK N   1      33.405  17.087   9.439  0.00  0.00    -0.278 N 
HETATM   22  N   UNK N   1      34.518  16.910  10.177  0.00  0.00    -0.286 N 
ATOM     23  HN  UNK N   1      33.030  18.006   9.206  1.00  0.00     0.189 HD
HETATM   24  C   UNK N   1      34.842  15.604  10.363  0.00  0.00     0.127 A 
ATOM     25  HN  UNK N   1      35.065  17.682  10.559  1.00  0.00     0.188 HD
HETATM   26  S   UNK N   1      33.726  14.658   9.592  0.00  0.00    -0.026 SA
BRANCH  24  27
HETATM   27  S   UNK N   1      36.251  15.036  11.300  0.00  0.00    -0.117 SA
HETATM   28  H   UNK N   1      36.391  13.714  11.583  0.00  0.00     0.109 HD
ENDBRANCH  24  27
ENDBRANCH   1  20
TORSDOF 6
ENDMDL
