REMARK  4 active torsions:
REMARK  status: ('A' for Active; 'I' for Inactive)
REMARK    1  A    between atoms: C_2  and  N_1 
REMARK    2  A    between atoms: C_2  and  C_3 
REMARK    3  A    between atoms: C_3  and  C_6 
REMARK    4  A    between atoms: C_11  and  C_13 
ROOT
HETATM    1  C   UNK N   1       0.064  -0.721   0.028  0.00  0.00     0.212 A 
HETATM    2  N   UNK N   1      -1.099  -0.741  -0.650  0.00  0.00    -0.275 N 
ATOM      3  HN  UNK N   1      -1.556  -1.560  -1.052  1.00  0.00     0.189 HD
HETATM    4  N   UNK N   1      -1.533   0.509  -0.694  0.00  0.00    -0.281 N 
ATOM      5  HN  UNK N   1      -2.388   0.842  -1.140  1.00  0.00     0.189 HD
HETATM    6  C   UNK N   1      -0.626   1.256  -0.034  0.00  0.00     0.148 A 
HETATM    7  O   UNK N   1       0.355   0.501   0.405  0.00  0.00    -0.274 OA
ENDROOT
BRANCH   1   8
HETATM    8  C   UNK N   1       0.912  -1.899   0.282  0.00  0.00     0.223 C 
HETATM    9  O   UNK N   1       2.015  -1.741   0.786  0.00  0.00    -0.286 OA
BRANCH   8  10
HETATM   10  C   UNK N   1       0.437  -3.282  -0.088  0.00  0.00     0.149 C 
HETATM   11  C   UNK N   1      -0.767  -3.655   0.758  0.00  0.00     0.040 C 
BRANCH  10  12
HETATM   12  N   UNK N   1       1.484  -4.267   0.131  0.00  0.00    -0.420 N 
HETATM   13  H   UNK N   1       1.254  -5.249   0.285  0.00  0.00     0.150 HD
HETATM   14  H   UNK N   1       2.461  -3.973   0.131  0.00  0.00     0.150 HD
ENDBRANCH  10  12
ENDBRANCH   8  10
ENDBRANCH   1   8
BRANCH   6  15
HETATM   15  C   UNK N   1      -0.731   2.740   0.168  0.00  0.00     0.016 C 
HETATM   16  C   UNK N   1      -0.682   3.442  -1.175  0.00  0.00     0.023 C 
HETATM   17  C   UNK N   1       0.412   3.251   1.028  0.00  0.00     0.023 C 
HETATM   18  C   UNK N   1      -2.041   3.072   0.856  0.00  0.00     0.023 C 
ENDBRANCH   6  15
TORSDOF 4
