MODEL 1
REMARK VINA RESULT:      -5.6      0.000      0.000
REMARK  4 active torsions:
REMARK  status: ('A' for Active; 'I' for Inactive)
REMARK    1  A    between atoms: C_2  and  N_1 
REMARK    2  A    between atoms: C_2  and  C_3 
REMARK    3  A    between atoms: C_3  and  C_6 
REMARK    4  A    between atoms: C_11  and  C_13 
ROOT
HETATM    1  C   UNK N   1      36.060  15.125  11.489  0.00  0.00     0.212 A 
HETATM    2  N   UNK N   1      37.060  14.294  11.139  0.00  0.00    -0.275 N 
ATOM      3  HN  UNK N   1      37.523  14.246  10.231  1.00  0.00     0.189 HD
HETATM    4  N   UNK N   1      37.323  13.551  12.203  0.00  0.00    -0.281 N 
ATOM      5  HN  UNK N   1      38.027  12.815  12.273  1.00  0.00     0.189 HD
HETATM    6  C   UNK N   1      36.482  13.955  13.175  0.00  0.00     0.148 A 
HETATM    7  O   UNK N   1      35.705  14.918  12.734  0.00  0.00    -0.274 OA
ENDROOT
BRANCH   1   8
HETATM    8  C   UNK N   1      35.427  16.107  10.591  0.00  0.00     0.223 C 
HETATM    9  O   UNK N   1      35.874  17.244  10.541  0.00  0.00    -0.286 OA
BRANCH   8  10
HETATM   10  C   UNK N   1      34.232  15.723   9.754  0.00  0.00     0.149 C 
HETATM   11  C   UNK N   1      33.684  16.951   9.048  0.00  0.00     0.040 C 
BRANCH  10  12
HETATM   12  N   UNK N   1      33.180  15.152  10.580  0.00  0.00    -0.420 N 
HETATM   13  H   UNK N   1      32.215  15.125  10.252  0.00  0.00     0.150 HD
HETATM   14  H   UNK N   1      33.410  14.774  11.499  0.00  0.00     0.150 HD
ENDBRANCH  10  12
ENDBRANCH   8  10
ENDBRANCH   1   8
BRANCH   6  15
HETATM   15  C   UNK N   1      36.446  13.382  14.562  0.00  0.00     0.016 C 
HETATM   16  C   UNK N   1      36.999  14.394  15.546  0.00  0.00     0.023 C 
HETATM   17  C   UNK N   1      37.279  12.114  14.645  0.00  0.00     0.023 C 
HETATM   18  C   UNK N   1      35.016  13.048  14.941  0.00  0.00     0.023 C 
ENDBRANCH   6  15
TORSDOF 4
ENDMDL
MODEL 2
REMARK VINA RESULT:      -5.5      1.417      1.873
REMARK  4 active torsions:
REMARK  status: ('A' for Active; 'I' for Inactive)
REMARK    1  A    between atoms: C_2  and  N_1 
REMARK    2  A    between atoms: C_2  and  C_3 
REMARK    3  A    between atoms: C_3  and  C_6 
REMARK    4  A    between atoms: C_11  and  C_13 
ROOT
HETATM    1  C   UNK N   1      35.883  14.735  12.574  0.00  0.00     0.212 A 
HETATM    2  N   UNK N   1      36.811  15.112  13.474  0.00  0.00    -0.275 N 
ATOM      3  HN  UNK N   1      37.496  15.861  13.366  1.00  0.00     0.189 HD
HETATM    4  N   UNK N   1      36.663  14.320  14.524  0.00  0.00    -0.281 N 
ATOM      5  HN  UNK N   1      37.213  14.337  15.383  1.00  0.00     0.189 HD
HETATM    6  C   UNK N   1      35.642  13.487  14.239  0.00  0.00     0.148 A 
HETATM    7  O   UNK N   1      35.167  13.741  13.041  0.00  0.00    -0.274 OA
ENDROOT
BRANCH   1   8
HETATM    8  C   UNK N   1      35.715  15.331  11.237  0.00  0.00     0.223 C 
HETATM    9  O   UNK N   1      36.436  16.261  10.905  0.00  0.00    -0.286 OA
BRANCH   8  10
HETATM   10  C   UNK N   1      34.658  14.815  10.293  0.00  0.00     0.149 C 
HETATM   11  C   UNK N   1      34.713  15.588   8.988  0.00  0.00     0.040 C 
BRANCH  10  12
HETATM   12  N   UNK N   1      33.330  14.964  10.868  0.00  0.00    -0.420 N 
HETATM   13  H   UNK N   1      33.191  14.927  11.878  0.00  0.00     0.150 HD
HETATM   14  H   UNK N   1      32.528  15.107  10.254  0.00  0.00     0.150 HD
ENDBRANCH  10  12
ENDBRANCH   8  10
ENDBRANCH   1   8
BRANCH   6  15
HETATM   15  C   UNK N   1      35.126  12.425  15.166  0.00  0.00     0.016 C 
HETATM   16  C   UNK N   1      36.275  11.551  15.630  0.00  0.00     0.023 C 
HETATM   17  C   UNK N   1      34.098  11.551  14.469  0.00  0.00     0.023 C 
HETATM   18  C   UNK N   1      34.473  13.071  16.373  0.00  0.00     0.023 C 
ENDBRANCH   6  15
TORSDOF 4
ENDMDL
MODEL 3
REMARK VINA RESULT:      -5.2     21.279     22.903
REMARK  4 active torsions:
REMARK  status: ('A' for Active; 'I' for Inactive)
REMARK    1  A    between atoms: C_2  and  N_1 
REMARK    2  A    between atoms: C_2  and  C_3 
REMARK    3  A    between atoms: C_3  and  C_6 
REMARK    4  A    between atoms: C_11  and  C_13 
ROOT
HETATM    1  C   UNK N   1      26.610  26.431  -3.600  0.00  0.00     0.212 A 
HETATM    2  N   UNK N   1      26.018  27.228  -2.690  0.00  0.00    -0.275 N 
ATOM      3  HN  UNK N   1      25.403  26.934  -1.931  1.00  0.00     0.189 HD
HETATM    4  N   UNK N   1      26.389  28.467  -2.973  0.00  0.00    -0.281 N 
ATOM      5  HN  UNK N   1      26.113  29.314  -2.478  1.00  0.00     0.189 HD
HETATM    6  C   UNK N   1      27.204  28.390  -4.044  0.00  0.00     0.148 A 
HETATM    7  O   UNK N   1      27.336  27.142  -4.429  0.00  0.00    -0.274 OA
ENDROOT
BRANCH   1   8
HETATM    8  C   UNK N   1      26.441  24.969  -3.677  0.00  0.00     0.223 C 
HETATM    9  O   UNK N   1      26.773  24.280  -2.723  0.00  0.00    -0.286 OA
BRANCH   8  10
HETATM   10  C   UNK N   1      25.880  24.326  -4.921  0.00  0.00     0.149 C 
HETATM   11  C   UNK N   1      27.009  23.736  -5.747  0.00  0.00     0.040 C 
BRANCH  10  12
HETATM   12  N   UNK N   1      25.168  25.299  -5.734  0.00  0.00    -0.420 N 
HETATM   13  H   UNK N   1      24.148  25.304  -5.769  0.00  0.00     0.150 HD
HETATM   14  H   UNK N   1      25.693  25.985  -6.276  0.00  0.00     0.150 HD
ENDBRANCH  10  12
ENDBRANCH   8  10
ENDBRANCH   1   8
BRANCH   6  15
HETATM   15  C   UNK N   1      27.866  29.570  -4.696  0.00  0.00     0.016 C 
HETATM   16  C   UNK N   1      27.964  29.338  -6.191  0.00  0.00     0.023 C 
HETATM   17  C   UNK N   1      29.264  29.780  -4.142  0.00  0.00     0.023 C 
HETATM   18  C   UNK N   1      27.049  30.822  -4.439  0.00  0.00     0.023 C 
ENDBRANCH   6  15
TORSDOF 4
ENDMDL
MODEL 4
REMARK VINA RESULT:      -5.1      1.565      2.117
REMARK  4 active torsions:
REMARK  status: ('A' for Active; 'I' for Inactive)
REMARK    1  A    between atoms: C_2  and  N_1 
REMARK    2  A    between atoms: C_2  and  C_3 
REMARK    3  A    between atoms: C_3  and  C_6 
REMARK    4  A    between atoms: C_11  and  C_13 
ROOT
HETATM    1  C   UNK N   1      34.814  15.440  10.735  0.00  0.00     0.212 A 
HETATM    2  N   UNK N   1      33.955  14.424  10.530  0.00  0.00    -0.275 N 
ATOM      3  HN  UNK N   1      33.227  14.376   9.817  1.00  0.00     0.189 HD
HETATM    4  N   UNK N   1      34.238  13.501  11.436  0.00  0.00    -0.281 N 
ATOM      5  HN  UNK N   1      33.768  12.604  11.559  1.00  0.00     0.189 HD
HETATM    6  C   UNK N   1      35.268  13.976  12.163  0.00  0.00     0.148 A 
HETATM    7  O   UNK N   1      35.618  15.168  11.735  0.00  0.00    -0.274 OA
ENDROOT
BRANCH   1   8
HETATM    8  C   UNK N   1      34.829  16.699   9.969  0.00  0.00     0.223 C 
HETATM    9  O   UNK N   1      35.573  17.603  10.324  0.00  0.00    -0.286 OA
BRANCH   8  10
HETATM   10  C   UNK N   1      33.929  16.881   8.773  0.00  0.00     0.149 C 
HETATM   11  C   UNK N   1      34.415  18.052   7.938  0.00  0.00     0.040 C 
BRANCH  10  12
HETATM   12  N   UNK N   1      32.560  17.141   9.187  0.00  0.00    -0.420 N 
HETATM   13  H   UNK N   1      32.343  17.379  10.156  0.00  0.00     0.150 HD
HETATM   14  H   UNK N   1      31.806  17.085   8.502  0.00  0.00     0.150 HD
ENDBRANCH  10  12
ENDBRANCH   8  10
ENDBRANCH   1   8
BRANCH   6  15
HETATM   15  C   UNK N   1      35.919  13.241  13.299  0.00  0.00     0.016 C 
HETATM   16  C   UNK N   1      37.038  12.367  12.766  0.00  0.00     0.023 C 
HETATM   17  C   UNK N   1      34.913  12.360  14.020  0.00  0.00     0.023 C 
HETATM   18  C   UNK N   1      36.491  14.234  14.291  0.00  0.00     0.023 C 
ENDBRANCH   6  15
TORSDOF 4
ENDMDL
MODEL 5
REMARK VINA RESULT:      -5.0      2.447      6.012
REMARK  4 active torsions:
REMARK  status: ('A' for Active; 'I' for Inactive)
REMARK    1  A    between atoms: C_2  and  N_1 
REMARK    2  A    between atoms: C_2  and  C_3 
REMARK    3  A    between atoms: C_3  and  C_6 
REMARK    4  A    between atoms: C_11  and  C_13 
ROOT
HETATM    1  C   UNK N   1      34.818  15.528  10.627  0.00  0.00     0.212 A 
HETATM    2  N   UNK N   1      35.112  16.832  10.780  0.00  0.00    -0.275 N 
ATOM      3  HN  UNK N   1      35.714  17.242  11.496  1.00  0.00     0.189 HD
HETATM    4  N   UNK N   1      34.467  17.481   9.823  0.00  0.00    -0.281 N 
ATOM      5  HN  UNK N   1      34.472  18.488   9.658  1.00  0.00     0.189 HD
HETATM    6  C   UNK N   1      33.804  16.552   9.107  0.00  0.00     0.148 A 
HETATM    7  O   UNK N   1      34.016  15.354   9.604  0.00  0.00    -0.274 OA
ENDROOT
BRANCH   1   8
HETATM    8  C   UNK N   1      35.297  14.447  11.506  0.00  0.00     0.223 C 
HETATM    9  O   UNK N   1      34.576  14.051  12.411  0.00  0.00    -0.286 OA
BRANCH   8  10
HETATM   10  C   UNK N   1      36.666  13.844  11.307  0.00  0.00     0.149 C 
HETATM   11  C   UNK N   1      36.570  12.649  10.376  0.00  0.00     0.040 C 
BRANCH  10  12
HETATM   12  N   UNK N   1      37.230  13.405  12.573  0.00  0.00    -0.420 N 
HETATM   13  H   UNK N   1      37.697  14.066  13.194  0.00  0.00     0.150 HD
HETATM   14  H   UNK N   1      37.158  12.424  12.844  0.00  0.00     0.150 HD
ENDBRANCH  10  12
ENDBRANCH   8  10
ENDBRANCH   1   8
BRANCH   6  15
HETATM   15  C   UNK N   1      32.947  16.851   7.911  0.00  0.00     0.016 C 
HETATM   16  C   UNK N   1      32.372  15.561   7.360  0.00  0.00     0.023 C 
HETATM   17  C   UNK N   1      33.759  17.529   6.820  0.00  0.00     0.023 C 
HETATM   18  C   UNK N   1      31.811  17.772   8.312  0.00  0.00     0.023 C 
ENDBRANCH   6  15
TORSDOF 4
ENDMDL
MODEL 6
REMARK VINA RESULT:      -5.0     14.014     16.303
REMARK  4 active torsions:
REMARK  status: ('A' for Active; 'I' for Inactive)
REMARK    1  A    between atoms: C_2  and  N_1 
REMARK    2  A    between atoms: C_2  and  C_3 
REMARK    3  A    between atoms: C_3  and  C_6 
REMARK    4  A    between atoms: C_11  and  C_13 
ROOT
HETATM    1  C   UNK N   1      22.124  19.063   4.139  0.00  0.00     0.212 A 
HETATM    2  N   UNK N   1      22.464  18.249   5.156  0.00  0.00    -0.275 N 
ATOM      3  HN  UNK N   1      21.829  17.699   5.735  1.00  0.00     0.189 HD
HETATM    4  N   UNK N   1      23.783  18.303   5.259  0.00  0.00    -0.281 N 
ATOM      5  HN  UNK N   1      24.362  17.805   5.935  1.00  0.00     0.189 HD
HETATM    6  C   UNK N   1      24.211  19.143   4.296  0.00  0.00     0.148 A 
HETATM    7  O   UNK N   1      23.192  19.611   3.612  0.00  0.00    -0.274 OA
ENDROOT
BRANCH   1   8
HETATM    8  C   UNK N   1      20.743  19.331   3.699  0.00  0.00     0.223 C 
HETATM    9  O   UNK N   1      20.305  20.470   3.775  0.00  0.00    -0.286 OA
BRANCH   8  10
HETATM   10  C   UNK N   1      19.872  18.215   3.178  0.00  0.00     0.149 C 
HETATM   11  C   UNK N   1      20.689  17.304   2.280  0.00  0.00     0.040 C 
BRANCH  10  12
HETATM   12  N   UNK N   1      18.754  18.743   2.413  0.00  0.00    -0.420 N 
HETATM   13  H   UNK N   1      17.871  18.235   2.359  0.00  0.00     0.150 HD
HETATM   14  H   UNK N   1      18.853  19.633   1.923  0.00  0.00     0.150 HD
ENDBRANCH  10  12
ENDBRANCH   8  10
ENDBRANCH   1   8
BRANCH   6  15
HETATM   15  C   UNK N   1      25.651  19.487   4.046  0.00  0.00     0.016 C 
HETATM   16  C   UNK N   1      26.438  18.219   3.775  0.00  0.00     0.023 C 
HETATM   17  C   UNK N   1      26.256  20.190   5.249  0.00  0.00     0.023 C 
HETATM   18  C   UNK N   1      25.757  20.405   2.844  0.00  0.00     0.023 C 
ENDBRANCH   6  15
TORSDOF 4
ENDMDL
MODEL 7
REMARK VINA RESULT:      -4.8     18.648     21.706
REMARK  4 active torsions:
REMARK  status: ('A' for Active; 'I' for Inactive)
REMARK    1  A    between atoms: C_2  and  N_1 
REMARK    2  A    between atoms: C_2  and  C_3 
REMARK    3  A    between atoms: C_3  and  C_6 
REMARK    4  A    between atoms: C_11  and  C_13 
ROOT
HETATM    1  C   UNK N   1      27.261  24.445  -3.587  0.00  0.00     0.212 A 
HETATM    2  N   UNK N   1      26.263  23.879  -4.293  0.00  0.00    -0.275 N 
ATOM      3  HN  UNK N   1      26.039  22.885  -4.342  1.00  0.00     0.189 HD
HETATM    4  N   UNK N   1      25.632  24.865  -4.913  0.00  0.00    -0.281 N 
ATOM      5  HN  UNK N   1      24.828  24.778  -5.535  1.00  0.00     0.189 HD
HETATM    6  C   UNK N   1      26.258  26.005  -4.561  0.00  0.00     0.148 A 
HETATM    7  O   UNK N   1      27.259  25.746  -3.751  0.00  0.00    -0.274 OA
ENDROOT
BRANCH   1   8
HETATM    8  C   UNK N   1      28.241  23.706  -2.773  0.00  0.00     0.223 C 
HETATM    9  O   UNK N   1      27.872  23.170  -1.738  0.00  0.00    -0.286 OA
BRANCH   8  10
HETATM   10  C   UNK N   1      29.686  23.622  -3.198  0.00  0.00     0.149 C 
HETATM   11  C   UNK N   1      29.785  22.941  -4.551  0.00  0.00     0.040 C 
BRANCH  10  12
HETATM   12  N   UNK N   1      30.467  22.862  -2.236  0.00  0.00    -0.420 N 
HETATM   13  H   UNK N   1      30.046  22.524  -1.370  0.00  0.00     0.150 HD
HETATM   14  H   UNK N   1      31.450  22.664  -2.428  0.00  0.00     0.150 HD
ENDBRANCH  10  12
ENDBRANCH   8  10
ENDBRANCH   1   8
BRANCH   6  15
HETATM   15  C   UNK N   1      25.859  27.374  -5.030  0.00  0.00     0.016 C 
HETATM   16  C   UNK N   1      26.881  27.890  -6.024  0.00  0.00     0.023 C 
HETATM   17  C   UNK N   1      25.779  28.344  -3.864  0.00  0.00     0.023 C 
HETATM   18  C   UNK N   1      24.500  27.310  -5.701  0.00  0.00     0.023 C 
ENDBRANCH   6  15
TORSDOF 4
ENDMDL
MODEL 8
REMARK VINA RESULT:      -4.8      6.202      7.935
REMARK  4 active torsions:
REMARK  status: ('A' for Active; 'I' for Inactive)
REMARK    1  A    between atoms: C_2  and  N_1 
REMARK    2  A    between atoms: C_2  and  C_3 
REMARK    3  A    between atoms: C_3  and  C_6 
REMARK    4  A    between atoms: C_11  and  C_13 
ROOT
HETATM    1  C   UNK N   1      30.100  17.359   8.358  0.00  0.00     0.212 A 
HETATM    2  N   UNK N   1      30.645  16.854   9.481  0.00  0.00    -0.275 N 
ATOM      3  HN  UNK N   1      30.152  16.607  10.339  1.00  0.00     0.189 HD
HETATM    4  N   UNK N   1      31.944  16.743   9.254  0.00  0.00    -0.281 N 
ATOM      5  HN  UNK N   1      32.649  16.396   9.905  1.00  0.00     0.189 HD
HETATM    6  C   UNK N   1      32.155  17.175   7.995  0.00  0.00     0.148 A 
HETATM    7  O   UNK N   1      31.024  17.557   7.448  0.00  0.00    -0.274 OA
ENDROOT
BRANCH   1   8
HETATM    8  C   UNK N   1      28.673  17.680   8.184  0.00  0.00     0.223 C 
HETATM    9  O   UNK N   1      27.905  17.509   9.121  0.00  0.00    -0.286 OA
BRANCH   8  10
HETATM   10  C   UNK N   1      28.157  18.199   6.865  0.00  0.00     0.149 C 
HETATM   11  C   UNK N   1      27.800  19.668   6.995  0.00  0.00     0.040 C 
BRANCH  10  12
HETATM   12  N   UNK N   1      26.972  17.466   6.446  0.00  0.00    -0.420 N 
HETATM   13  H   UNK N   1      26.763  17.333   5.457  0.00  0.00     0.150 HD
HETATM   14  H   UNK N   1      26.342  17.081   7.151  0.00  0.00     0.150 HD
ENDBRANCH  10  12
ENDBRANCH   8  10
ENDBRANCH   1   8
BRANCH   6  15
HETATM   15  C   UNK N   1      33.496  17.210   7.321  0.00  0.00     0.016 C 
HETATM   16  C   UNK N   1      34.365  18.270   7.969  0.00  0.00     0.023 C 
HETATM   17  C   UNK N   1      33.351  17.535   5.844  0.00  0.00     0.023 C 
HETATM   18  C   UNK N   1      34.173  15.860   7.456  0.00  0.00     0.023 C 
ENDBRANCH   6  15
TORSDOF 4
ENDMDL
MODEL 9
REMARK VINA RESULT:      -4.8      6.394      8.190
REMARK  4 active torsions:
REMARK  status: ('A' for Active; 'I' for Inactive)
REMARK    1  A    between atoms: C_2  and  N_1 
REMARK    2  A    between atoms: C_2  and  C_3 
REMARK    3  A    between atoms: C_3  and  C_6 
REMARK    4  A    between atoms: C_11  and  C_13 
ROOT
HETATM    1  C   UNK N   1      32.203  17.392   7.496  0.00  0.00     0.212 A 
HETATM    2  N   UNK N   1      32.187  17.733   8.798  0.00  0.00    -0.275 N 
ATOM      3  HN  UNK N   1      32.997  17.836   9.411  1.00  0.00     0.189 HD
HETATM    4  N   UNK N   1      30.917  17.907   9.128  0.00  0.00    -0.281 N 
ATOM      5  HN  UNK N   1      30.556  18.167  10.047  1.00  0.00     0.189 HD
HETATM    6  C   UNK N   1      30.193  17.676   8.015  0.00  0.00     0.148 A 
HETATM    7  O   UNK N   1      30.983  17.356   7.015  0.00  0.00    -0.274 OA
ENDROOT
BRANCH   1   8
HETATM    8  C   UNK N   1      33.416  17.069   6.723  0.00  0.00     0.223 C 
HETATM    9  O   UNK N   1      34.276  17.926   6.580  0.00  0.00    -0.286 OA
BRANCH   8  10
HETATM   10  C   UNK N   1      33.590  15.706   6.102  0.00  0.00     0.149 C 
HETATM   11  C   UNK N   1      33.261  14.631   7.121  0.00  0.00     0.040 C 
BRANCH  10  12
HETATM   12  N   UNK N   1      34.958  15.514   5.647  0.00  0.00    -0.420 N 
HETATM   13  H   UNK N   1      35.413  16.207   5.052  0.00  0.00     0.150 HD
HETATM   14  H   UNK N   1      35.469  14.676   5.926  0.00  0.00     0.150 HD
ENDBRANCH  10  12
ENDBRANCH   8  10
ENDBRANCH   1   8
BRANCH   6  15
HETATM   15  C   UNK N   1      28.697  17.774   7.937  0.00  0.00     0.016 C 
HETATM   16  C   UNK N   1      28.178  16.814   6.885  0.00  0.00     0.023 C 
HETATM   17  C   UNK N   1      28.266  19.183   7.569  0.00  0.00     0.023 C 
HETATM   18  C   UNK N   1      28.090  17.416   9.280  0.00  0.00     0.023 C 
ENDBRANCH   6  15
TORSDOF 4
ENDMDL
