MODEL 1
REMARK VINA RESULT:      -6.9      0.000      0.000
REMARK  3 active torsions:
REMARK  status: ('A' for Active; 'I' for Inactive)
REMARK    1  A    between atoms: C_7  and  C_25 
REMARK    2  A    between atoms: P_8  and  C_20 
REMARK    3  A    between atoms: C_9  and  C_16 
ROOT
HETATM    1  C   UNK N   1      29.967  17.336   7.537  0.00  0.00    -0.037 C 
HETATM    2  C   UNK N   1      28.978  16.963   6.654  0.00  0.00    -0.037 C 
HETATM    3  C   UNK N   1      27.649  17.683   6.578  0.00  0.00     0.040 C 
HETATM    4  C   UNK N   1      27.527  18.881   7.531  0.00  0.00     0.005 C 
HETATM    5  C   UNK N   1      28.315  18.673   8.818  0.00  0.00     0.005 C 
HETATM    6  C   UNK N   1      29.788  18.500   8.471  0.00  0.00     0.040 C 
HETATM    7  C   UNK N   1      31.130  16.589   7.376  0.00  0.00     0.012 C 
HETATM    8  P   UNK N   1      30.905  15.200   6.324  0.00  0.00    -0.010 P 
HETATM    9  C   UNK N   1      29.379  15.917   5.826  0.00  0.00     0.012 C 
ENDROOT
BRANCH   7  10
HETATM   10  C   UNK N   1      32.440  16.901   8.016  0.00  0.00     0.044 A 
HETATM   11  N   UNK N   1      32.911  16.102   9.013  0.00  0.00    -0.365 N 
HETATM   12  C   UNK N   1      34.142  16.289   9.566  0.00  0.00     0.088 A 
ATOM     13  HN  UNK N   1      32.326  15.341   9.356  1.00  0.00     0.165 HD
HETATM   14  C   UNK N   1      34.962  17.325   9.118  0.00  0.00     0.017 A 
HETATM   15  C   UNK N   1      34.506  18.164   8.105  0.00  0.00     0.004 A 
HETATM   16  C   UNK N   1      33.247  17.950   7.546  0.00  0.00     0.030 A 
ENDBRANCH   7  10
BRANCH   8  17
HETATM   17  C   UNK N   1      32.050  15.550   4.925  0.00  0.00    -0.022 A 
HETATM   18  C   UNK N   1      32.119  16.799   4.298  0.00  0.00     0.013 A 
HETATM   19  C   UNK N   1      32.935  16.968   3.172  0.00  0.00     0.001 A 
HETATM   20  C   UNK N   1      33.672  15.891   2.668  0.00  0.00     0.000 A 
HETATM   21  C   UNK N   1      33.599  14.643   3.288  0.00  0.00     0.001 A 
HETATM   22  C   UNK N   1      32.782  14.474   4.408  0.00  0.00     0.013 A 
ENDBRANCH   8  17
BRANCH   9  23
HETATM   23  C   UNK N   1      28.625  15.430   4.637  0.00  0.00     0.044 A 
HETATM   24  N   UNK N   1      27.928  14.260   4.714  0.00  0.00    -0.365 N 
HETATM   25  C   UNK N   1      27.296  13.727   3.633  0.00  0.00     0.088 A 
ATOM     26  HN  UNK N   1      27.877  13.771   5.608  1.00  0.00     0.165 HD
HETATM   27  C   UNK N   1      27.355  14.372   2.396  0.00  0.00     0.017 A 
HETATM   28  C   UNK N   1      28.060  15.568   2.286  0.00  0.00     0.004 A 
HETATM   29  C   UNK N   1      28.701  16.097   3.406  0.00  0.00     0.030 A 
ENDBRANCH   9  23
TORSDOF 3
ENDMDL
MODEL 2
REMARK VINA RESULT:      -6.9      2.775      7.348
REMARK  3 active torsions:
REMARK  status: ('A' for Active; 'I' for Inactive)
REMARK    1  A    between atoms: C_7  and  C_25 
REMARK    2  A    between atoms: P_8  and  C_20 
REMARK    3  A    between atoms: C_9  and  C_16 
ROOT
HETATM    1  C   UNK N   1      27.146  15.509   3.858  0.00  0.00    -0.037 C 
HETATM    2  C   UNK N   1      28.520  15.602   3.821  0.00  0.00    -0.037 C 
HETATM    3  C   UNK N   1      29.343  14.980   2.715  0.00  0.00     0.040 C 
HETATM    4  C   UNK N   1      28.512  14.287   1.625  0.00  0.00     0.005 C 
HETATM    5  C   UNK N   1      27.229  13.681   2.180  0.00  0.00     0.005 C 
HETATM    6  C   UNK N   1      26.379  14.793   2.781  0.00  0.00     0.040 C 
HETATM    7  C   UNK N   1      26.594  16.221   4.918  0.00  0.00     0.012 C 
HETATM    8  P   UNK N   1      27.802  16.771   6.069  0.00  0.00    -0.010 P 
HETATM    9  C   UNK N   1      29.021  16.374   4.866  0.00  0.00     0.012 C 
ENDROOT
BRANCH   7  10
HETATM   10  C   UNK N   1      25.141  16.502   5.091  0.00  0.00     0.044 A 
HETATM   11  N   UNK N   1      24.418  15.786   5.997  0.00  0.00    -0.365 N 
HETATM   12  C   UNK N   1      23.112  16.065   6.261  0.00  0.00     0.088 A 
ATOM     13  HN  UNK N   1      24.870  15.018   6.494  1.00  0.00     0.165 HD
HETATM   14  C   UNK N   1      22.469  17.108   5.593  0.00  0.00     0.017 A 
HETATM   15  C   UNK N   1      23.178  17.854   4.655  0.00  0.00     0.004 A 
HETATM   16  C   UNK N   1      24.517  17.558   4.407  0.00  0.00     0.030 A 
ENDBRANCH   7  10
BRANCH   8  17
HETATM   17  C   UNK N   1      27.655  18.604   5.982  0.00  0.00    -0.022 A 
HETATM   18  C   UNK N   1      27.441  19.401   7.112  0.00  0.00     0.013 A 
HETATM   19  C   UNK N   1      27.233  20.778   6.962  0.00  0.00     0.001 A 
HETATM   20  C   UNK N   1      27.229  21.356   5.688  0.00  0.00     0.000 A 
HETATM   21  C   UNK N   1      27.436  20.561   4.560  0.00  0.00     0.001 A 
HETATM   22  C   UNK N   1      27.639  19.188   4.709  0.00  0.00     0.013 A 
ENDBRANCH   8  17
BRANCH   9  23
HETATM   23  C   UNK N   1      30.432  16.837   4.987  0.00  0.00     0.044 A 
HETATM   24  N   UNK N   1      31.004  17.534   3.964  0.00  0.00    -0.365 N 
HETATM   25  C   UNK N   1      32.314  17.903   3.987  0.00  0.00     0.088 A 
ATOM     26  HN  UNK N   1      30.433  17.789   3.157  1.00  0.00     0.165 HD
HETATM   27  C   UNK N   1      33.120  17.562   5.076  0.00  0.00     0.017 A 
HETATM   28  C   UNK N   1      32.565  16.850   6.136  0.00  0.00     0.004 A 
HETATM   29  C   UNK N   1      31.221  16.481   6.091  0.00  0.00     0.030 A 
ENDBRANCH   9  23
TORSDOF 3
ENDMDL
MODEL 3
REMARK VINA RESULT:      -6.7     12.375     15.192
REMARK  3 active torsions:
REMARK  status: ('A' for Active; 'I' for Inactive)
REMARK    1  A    between atoms: C_7  and  C_25 
REMARK    2  A    between atoms: P_8  and  C_20 
REMARK    3  A    between atoms: C_9  and  C_16 
ROOT
HETATM    1  C   UNK N   1      29.099  23.437  -4.932  0.00  0.00    -0.037 C 
HETATM    2  C   UNK N   1      29.836  22.321  -5.263  0.00  0.00    -0.037 C 
HETATM    3  C   UNK N   1      30.532  21.474  -4.221  0.00  0.00     0.040 C 
HETATM    4  C   UNK N   1      30.303  21.939  -2.776  0.00  0.00     0.005 C 
HETATM    5  C   UNK N   1      30.139  23.450  -2.678  0.00  0.00     0.005 C 
HETATM    6  C   UNK N   1      28.928  23.869  -3.502  0.00  0.00     0.040 C 
HETATM    7  C   UNK N   1      28.484  24.013  -6.039  0.00  0.00     0.012 C 
HETATM    8  P   UNK N   1      29.063  23.351  -7.560  0.00  0.00    -0.010 P 
HETATM    9  C   UNK N   1      29.798  22.053  -6.629  0.00  0.00     0.012 C 
ENDROOT
BRANCH   7  10
HETATM   10  C   UNK N   1      27.447  25.082  -5.977  0.00  0.00     0.044 A 
HETATM   11  N   UNK N   1      27.723  26.320  -6.473  0.00  0.00    -0.365 N 
HETATM   12  C   UNK N   1      26.782  27.303  -6.526  0.00  0.00     0.088 A 
ATOM     13  HN  UNK N   1      28.663  26.517  -6.816  1.00  0.00     0.165 HD
HETATM   14  C   UNK N   1      25.489  27.061  -6.061  0.00  0.00     0.017 A 
HETATM   15  C   UNK N   1      25.176  25.807  -5.541  0.00  0.00     0.004 A 
HETATM   16  C   UNK N   1      26.152  24.812  -5.505  0.00  0.00     0.030 A 
ENDBRANCH   7  10
BRANCH   8  17
HETATM   17  C   UNK N   1      27.550  22.592  -8.284  0.00  0.00    -0.022 A 
HETATM   18  C   UNK N   1      26.555  21.994  -7.503  0.00  0.00     0.013 A 
HETATM   19  C   UNK N   1      25.482  21.342  -8.123  0.00  0.00     0.001 A 
HETATM   20  C   UNK N   1      25.407  21.279  -9.519  0.00  0.00     0.000 A 
HETATM   21  C   UNK N   1      26.403  21.868 -10.299  0.00  0.00     0.001 A 
HETATM   22  C   UNK N   1      27.474  22.514  -9.680  0.00  0.00     0.013 A 
ENDBRANCH   8  17
BRANCH   9  23
HETATM   23  C   UNK N   1      30.313  20.812  -7.272  0.00  0.00     0.044 A 
HETATM   24  N   UNK N   1      31.609  20.757  -7.693  0.00  0.00    -0.365 N 
HETATM   25  C   UNK N   1      32.103  19.682  -8.364  0.00  0.00     0.088 A 
ATOM     26  HN  UNK N   1      32.227  21.546  -7.499  1.00  0.00     0.165 HD
HETATM   27  C   UNK N   1      31.278  18.592  -8.649  0.00  0.00     0.017 A 
HETATM   28  C   UNK N   1      29.949  18.618  -8.232  0.00  0.00     0.004 A 
HETATM   29  C   UNK N   1      29.463  19.730  -7.548  0.00  0.00     0.030 A 
ENDBRANCH   9  23
TORSDOF 3
ENDMDL
MODEL 4
REMARK VINA RESULT:      -6.7      2.231      5.622
REMARK  3 active torsions:
REMARK  status: ('A' for Active; 'I' for Inactive)
REMARK    1  A    between atoms: C_7  and  C_25 
REMARK    2  A    between atoms: P_8  and  C_20 
REMARK    3  A    between atoms: C_9  and  C_16 
ROOT
HETATM    1  C   UNK N   1      29.102  17.915   7.061  0.00  0.00    -0.037 C 
HETATM    2  C   UNK N   1      30.225  17.163   7.326  0.00  0.00    -0.037 C 
HETATM    3  C   UNK N   1      30.700  16.889   8.737  0.00  0.00     0.040 C 
HETATM    4  C   UNK N   1      29.798  17.480   9.830  0.00  0.00     0.005 C 
HETATM    5  C   UNK N   1      29.134  18.778   9.388  0.00  0.00     0.005 C 
HETATM    6  C   UNK N   1      28.266  18.496   8.167  0.00  0.00     0.040 C 
HETATM    7  C   UNK N   1      28.809  17.968   5.701  0.00  0.00     0.012 C 
HETATM    8  P   UNK N   1      30.107  17.332   4.701  0.00  0.00    -0.010 P 
HETATM    9  C   UNK N   1      30.802  16.653   6.166  0.00  0.00     0.012 C 
ENDROOT
BRANCH   7  10
HETATM   10  C   UNK N   1      27.544  18.503   5.122  0.00  0.00     0.044 A 
HETATM   11  N   UNK N   1      26.366  17.866   5.371  0.00  0.00    -0.365 N 
HETATM   12  C   UNK N   1      25.173  18.365   4.944  0.00  0.00     0.088 A 
ATOM     13  HN  UNK N   1      26.377  16.991   5.893  1.00  0.00     0.165 HD
HETATM   14  C   UNK N   1      25.129  19.560   4.225  0.00  0.00     0.017 A 
HETATM   15  C   UNK N   1      26.317  20.231   3.947  0.00  0.00     0.004 A 
HETATM   16  C   UNK N   1      27.527  19.708   4.402  0.00  0.00     0.030 A 
ENDBRANCH   7  10
BRANCH   8  17
HETATM   17  C   UNK N   1      29.318  15.895   3.863  0.00  0.00    -0.022 A 
HETATM   18  C   UNK N   1      29.318  15.736   2.473  0.00  0.00     0.013 A 
HETATM   19  C   UNK N   1      28.610  14.676   1.893  0.00  0.00     0.001 A 
HETATM   20  C   UNK N   1      27.894  13.783   2.699  0.00  0.00     0.000 A 
HETATM   21  C   UNK N   1      27.888  13.945   4.085  0.00  0.00     0.001 A 
HETATM   22  C   UNK N   1      28.591  15.004   4.662  0.00  0.00     0.013 A 
ENDBRANCH   8  17
BRANCH   9  23
HETATM   23  C   UNK N   1      31.893  15.638   6.127  0.00  0.00     0.044 A 
HETATM   24  N   UNK N   1      31.629  14.350   6.488  0.00  0.00    -0.365 N 
HETATM   25  C   UNK N   1      32.608  13.407   6.554  0.00  0.00     0.088 A 
ATOM     26  HN  UNK N   1      30.670  14.084   6.714  1.00  0.00     0.165 HD
HETATM   27  C   UNK N   1      33.930  13.744   6.257  0.00  0.00     0.017 A 
HETATM   28  C   UNK N   1      34.231  15.052   5.885  0.00  0.00     0.004 A 
HETATM   29  C   UNK N   1      33.213  16.003   5.825  0.00  0.00     0.030 A 
ENDBRANCH   9  23
TORSDOF 3
ENDMDL
MODEL 5
REMARK VINA RESULT:      -6.7      2.822      4.426
REMARK  3 active torsions:
REMARK  status: ('A' for Active; 'I' for Inactive)
REMARK    1  A    between atoms: C_7  and  C_25 
REMARK    2  A    between atoms: P_8  and  C_20 
REMARK    3  A    between atoms: C_9  and  C_16 
ROOT
HETATM    1  C   UNK N   1      27.905  18.586   5.240  0.00  0.00    -0.037 C 
HETATM    2  C   UNK N   1      26.552  18.336   5.174  0.00  0.00    -0.037 C 
HETATM    3  C   UNK N   1      25.536  19.437   4.964  0.00  0.00     0.040 C 
HETATM    4  C   UNK N   1      26.149  20.834   4.784  0.00  0.00     0.005 C 
HETATM    5  C   UNK N   1      27.439  21.000   5.578  0.00  0.00     0.005 C 
HETATM    6  C   UNK N   1      28.455  19.977   5.087  0.00  0.00     0.040 C 
HETATM    7  C   UNK N   1      28.655  17.419   5.357  0.00  0.00     0.012 C 
HETATM    8  P   UNK N   1      27.665  16.007   5.694  0.00  0.00    -0.010 P 
HETATM    9  C   UNK N   1      26.265  16.976   5.257  0.00  0.00     0.012 C 
ENDROOT
BRANCH   7  10
HETATM   10  C   UNK N   1      30.137  17.341   5.221  0.00  0.00     0.044 A 
HETATM   11  N   UNK N   1      30.713  17.531   4.001  0.00  0.00    -0.365 N 
HETATM   12  C   UNK N   1      32.065  17.563   3.840  0.00  0.00     0.088 A 
ATOM     13  HN  UNK N   1      30.115  17.655   3.185  1.00  0.00     0.165 HD
HETATM   14  C   UNK N   1      32.907  17.393   4.940  0.00  0.00     0.017 A 
HETATM   15  C   UNK N   1      32.348  17.187   6.199  0.00  0.00     0.004 A 
HETATM   16  C   UNK N   1      30.962  17.169   6.344  0.00  0.00     0.030 A 
ENDBRANCH   7  10
BRANCH   8  17
HETATM   17  C   UNK N   1      27.955  14.937   4.224  0.00  0.00    -0.022 A 
HETATM   18  C   UNK N   1      28.025  15.443   2.922  0.00  0.00     0.013 A 
HETATM   19  C   UNK N   1      28.143  14.563   1.839  0.00  0.00     0.001 A 
HETATM   20  C   UNK N   1      28.180  13.180   2.055  0.00  0.00     0.000 A 
HETATM   21  C   UNK N   1      28.103  12.674   3.353  0.00  0.00     0.001 A 
HETATM   22  C   UNK N   1      27.982  13.552   4.432  0.00  0.00     0.013 A 
ENDBRANCH   8  17
BRANCH   9  23
HETATM   23  C   UNK N   1      24.928  16.367   5.008  0.00  0.00     0.044 A 
HETATM   24  N   UNK N   1      24.118  16.062   6.062  0.00  0.00    -0.365 N 
HETATM   25  C   UNK N   1      22.927  15.426   5.895  0.00  0.00     0.088 A 
ATOM     26  HN  UNK N   1      24.413  16.319   7.005  1.00  0.00     0.165 HD
HETATM   27  C   UNK N   1      22.501  15.057   4.617  0.00  0.00     0.017 A 
HETATM   28  C   UNK N   1      23.306  15.355   3.520  0.00  0.00     0.004 A 
HETATM   29  C   UNK N   1      24.524  16.006   3.714  0.00  0.00     0.030 A 
ENDBRANCH   9  23
TORSDOF 3
ENDMDL
MODEL 6
REMARK VINA RESULT:      -6.7     11.754     14.837
REMARK  3 active torsions:
REMARK  status: ('A' for Active; 'I' for Inactive)
REMARK    1  A    between atoms: C_7  and  C_25 
REMARK    2  A    between atoms: P_8  and  C_20 
REMARK    3  A    between atoms: C_9  and  C_16 
ROOT
HETATM    1  C   UNK N   1      28.611  22.464  -6.340  0.00  0.00    -0.037 C 
HETATM    2  C   UNK N   1      29.718  21.729  -5.975  0.00  0.00    -0.037 C 
HETATM    3  C   UNK N   1      30.155  20.497  -6.735  0.00  0.00     0.040 C 
HETATM    4  C   UNK N   1      29.291  20.173  -7.962  0.00  0.00     0.005 C 
HETATM    5  C   UNK N   1      27.838  20.585  -7.765  0.00  0.00     0.005 C 
HETATM    6  C   UNK N   1      27.779  22.090  -7.535  0.00  0.00     0.040 C 
HETATM    7  C   UNK N   1      28.445  23.599  -5.551  0.00  0.00     0.012 C 
HETATM    8  P   UNK N   1      29.494  23.606  -4.141  0.00  0.00    -0.010 P 
HETATM    9  C   UNK N   1      30.390  22.294  -4.894  0.00  0.00     0.012 C 
ENDROOT
BRANCH   7  10
HETATM   10  C   UNK N   1      27.487  24.704  -5.839  0.00  0.00     0.044 A 
HETATM   11  N   UNK N   1      27.796  25.636  -6.783  0.00  0.00    -0.365 N 
HETATM   12  C   UNK N   1      26.918  26.610  -7.149  0.00  0.00     0.088 A 
ATOM     13  HN  UNK N   1      28.712  25.603  -7.230  1.00  0.00     0.165 HD
HETATM   14  C   UNK N   1      25.659  26.680  -6.552  0.00  0.00     0.017 A 
HETATM   15  C   UNK N   1      25.316  25.747  -5.577  0.00  0.00     0.004 A 
HETATM   16  C   UNK N   1      26.226  24.752  -5.224  0.00  0.00     0.030 A 
ENDBRANCH   7  10
BRANCH   8  17
HETATM   17  C   UNK N   1      30.546  25.092  -4.415  0.00  0.00    -0.022 A 
HETATM   18  C   UNK N   1      30.629  26.141  -3.493  0.00  0.00     0.013 A 
HETATM   19  C   UNK N   1      31.364  27.290  -3.810  0.00  0.00     0.001 A 
HETATM   20  C   UNK N   1      32.007  27.395  -5.049  0.00  0.00     0.000 A 
HETATM   21  C   UNK N   1      31.919  26.353  -5.972  0.00  0.00     0.001 A 
HETATM   22  C   UNK N   1      31.183  25.210  -5.657  0.00  0.00     0.013 A 
ENDBRANCH   8  17
BRANCH   9  23
HETATM   23  C   UNK N   1      31.727  21.863  -4.398  0.00  0.00     0.044 A 
HETATM   24  N   UNK N   1      32.774  21.777  -5.268  0.00  0.00    -0.365 N 
HETATM   25  C   UNK N   1      33.992  21.305  -4.885  0.00  0.00     0.088 A 
ATOM     26  HN  UNK N   1      32.642  22.077  -6.235  1.00  0.00     0.165 HD
HETATM   27  C   UNK N   1      34.199  20.883  -3.570  0.00  0.00     0.017 A 
HETATM   28  C   UNK N   1      33.149  20.958  -2.658  0.00  0.00     0.004 A 
HETATM   29  C   UNK N   1      31.909  21.443  -3.072  0.00  0.00     0.030 A 
ENDBRANCH   9  23
TORSDOF 3
ENDMDL
MODEL 7
REMARK VINA RESULT:      -6.5     13.903     16.638
REMARK  3 active torsions:
REMARK  status: ('A' for Active; 'I' for Inactive)
REMARK    1  A    between atoms: C_7  and  C_25 
REMARK    2  A    between atoms: P_8  and  C_20 
REMARK    3  A    between atoms: C_9  and  C_16 
ROOT
HETATM    1  C   UNK N   1      27.997  27.222  -6.484  0.00  0.00    -0.037 C 
HETATM    2  C   UNK N   1      28.532  26.722  -5.316  0.00  0.00    -0.037 C 
HETATM    3  C   UNK N   1      28.526  27.508  -4.024  0.00  0.00     0.040 C 
HETATM    4  C   UNK N   1      27.835  28.875  -4.120  0.00  0.00     0.005 C 
HETATM    5  C   UNK N   1      27.992  29.501  -5.501  0.00  0.00     0.005 C 
HETATM    6  C   UNK N   1      27.355  28.581  -6.534  0.00  0.00     0.040 C 
HETATM    7  C   UNK N   1      28.039  26.299  -7.524  0.00  0.00     0.012 C 
HETATM    8  P   UNK N   1      29.026  24.895  -7.147  0.00  0.00    -0.010 P 
HETATM    9  C   UNK N   1      28.999  25.419  -5.469  0.00  0.00     0.012 C 
ENDROOT
BRANCH   7  10
HETATM   10  C   UNK N   1      27.339  26.455  -8.830  0.00  0.00     0.044 A 
HETATM   11  N   UNK N   1      28.037  26.869  -9.925  0.00  0.00    -0.365 N 
HETATM   12  C   UNK N   1      27.467  26.938 -11.160  0.00  0.00     0.088 A 
ATOM     13  HN  UNK N   1      29.015  27.136  -9.816  1.00  0.00     0.165 HD
HETATM   14  C   UNK N   1      26.130  26.583 -11.336  0.00  0.00     0.017 A 
HETATM   15  C   UNK N   1      25.387  26.162 -10.235  0.00  0.00     0.004 A 
HETATM   16  C   UNK N   1      25.992  26.089  -8.981  0.00  0.00     0.030 A 
ENDBRANCH   7  10
BRANCH   8  17
HETATM   17  C   UNK N   1      27.817  23.508  -7.210  0.00  0.00    -0.022 A 
HETATM   18  C   UNK N   1      27.986  22.393  -8.038  0.00  0.00     0.013 A 
HETATM   19  C   UNK N   1      26.977  21.425  -8.116  0.00  0.00     0.001 A 
HETATM   20  C   UNK N   1      25.798  21.575  -7.378  0.00  0.00     0.000 A 
HETATM   21  C   UNK N   1      25.625  22.691  -6.558  0.00  0.00     0.001 A 
HETATM   22  C   UNK N   1      26.629  23.657  -6.483  0.00  0.00     0.013 A 
ENDBRANCH   8  17
BRANCH   9  23
HETATM   23  C   UNK N   1      29.438  24.532  -4.356  0.00  0.00     0.044 A 
HETATM   24  N   UNK N   1      30.739  24.129  -4.286  0.00  0.00    -0.365 N 
HETATM   25  C   UNK N   1      31.171  23.250  -3.342  0.00  0.00     0.088 A 
ATOM     26  HN  UNK N   1      31.410  24.498  -4.961  1.00  0.00     0.165 HD
HETATM   27  C   UNK N   1      30.275  22.724  -2.409  0.00  0.00     0.017 A 
HETATM   28  C   UNK N   1      28.939  23.116  -2.455  0.00  0.00     0.004 A 
HETATM   29  C   UNK N   1      28.517  24.017  -3.432  0.00  0.00     0.030 A 
ENDBRANCH   9  23
TORSDOF 3
ENDMDL
MODEL 8
REMARK VINA RESULT:      -6.5      5.551      7.867
REMARK  3 active torsions:
REMARK  status: ('A' for Active; 'I' for Inactive)
REMARK    1  A    between atoms: C_7  and  C_25 
REMARK    2  A    between atoms: P_8  and  C_20 
REMARK    3  A    between atoms: C_9  and  C_16 
ROOT
HETATM    1  C   UNK N   1      22.630  18.351   3.849  0.00  0.00    -0.037 C 
HETATM    2  C   UNK N   1      21.852  17.226   3.689  0.00  0.00    -0.037 C 
HETATM    3  C   UNK N   1      20.511  17.263   2.989  0.00  0.00     0.040 C 
HETATM    4  C   UNK N   1      20.126  18.644   2.438  0.00  0.00     0.005 C 
HETATM    5  C   UNK N   1      20.675  19.777   3.296  0.00  0.00     0.005 C 
HETATM    6  C   UNK N   1      22.196  19.688   3.315  0.00  0.00     0.040 C 
HETATM    7  C   UNK N   1      23.854  18.069   4.447  0.00  0.00     0.012 C 
HETATM    8  P   UNK N   1      23.931  16.439   5.101  0.00  0.00    -0.010 P 
HETATM    9  C   UNK N   1      22.475  16.082   4.182  0.00  0.00     0.012 C 
ENDROOT
BRANCH   7  10
HETATM   10  C   UNK N   1      24.996  19.022   4.545  0.00  0.00     0.044 A 
HETATM   11  N   UNK N   1      25.373  19.501   5.763  0.00  0.00    -0.365 N 
HETATM   12  C   UNK N   1      26.465  20.299   5.918  0.00  0.00     0.088 A 
ATOM     13  HN  UNK N   1      24.821  19.253   6.584  1.00  0.00     0.165 HD
HETATM   14  C   UNK N   1      27.235  20.656   4.810  0.00  0.00     0.017 A 
HETATM   15  C   UNK N   1      26.871  20.190   3.550  0.00  0.00     0.004 A 
HETATM   16  C   UNK N   1      25.755  19.365   3.415  0.00  0.00     0.030 A 
ENDBRANCH   7  10
BRANCH   8  17
HETATM   17  C   UNK N   1      25.287  15.665   4.125  0.00  0.00    -0.022 A 
HETATM   18  C   UNK N   1      26.398  15.060   4.722  0.00  0.00     0.013 A 
HETATM   19  C   UNK N   1      27.445  14.584   3.922  0.00  0.00     0.001 A 
HETATM   20  C   UNK N   1      27.385  14.719   2.530  0.00  0.00     0.000 A 
HETATM   21  C   UNK N   1      26.280  15.328   1.934  0.00  0.00     0.001 A 
HETATM   22  C   UNK N   1      25.240  15.807   2.733  0.00  0.00     0.013 A 
ENDBRANCH   8  17
BRANCH   9  23
HETATM   23  C   UNK N   1      21.993  14.688   3.974  0.00  0.00     0.044 A 
HETATM   24  N   UNK N   1      22.063  14.128   2.732  0.00  0.00    -0.365 N 
HETATM   25  C   UNK N   1      21.557  12.892   2.470  0.00  0.00     0.088 A 
ATOM     26  HN  UNK N   1      22.509  14.650   1.977  1.00  0.00     0.165 HD
HETATM   27  C   UNK N   1      20.936  12.159   3.483  0.00  0.00     0.017 A 
HETATM   28  C   UNK N   1      20.849  12.704   4.762  0.00  0.00     0.004 A 
HETATM   29  C   UNK N   1      21.373  13.972   5.008  0.00  0.00     0.030 A 
ENDBRANCH   9  23
TORSDOF 3
ENDMDL
MODEL 9
REMARK VINA RESULT:      -6.4     12.561     14.876
REMARK  3 active torsions:
REMARK  status: ('A' for Active; 'I' for Inactive)
REMARK    1  A    between atoms: C_7  and  C_25 
REMARK    2  A    between atoms: P_8  and  C_20 
REMARK    3  A    between atoms: C_9  and  C_16 
ROOT
HETATM    1  C   UNK N   1      30.642  23.784  -5.016  0.00  0.00    -0.037 C 
HETATM    2  C   UNK N   1      29.783  22.843  -5.539  0.00  0.00    -0.037 C 
HETATM    3  C   UNK N   1      29.918  21.368  -5.235  0.00  0.00     0.040 C 
HETATM    4  C   UNK N   1      31.058  21.027  -4.264  0.00  0.00     0.005 C 
HETATM    5  C   UNK N   1      32.236  21.983  -4.403  0.00  0.00     0.005 C 
HETATM    6  C   UNK N   1      31.762  23.397  -4.091  0.00  0.00     0.040 C 
HETATM    7  C   UNK N   1      30.281  25.083  -5.364  0.00  0.00     0.012 C 
HETATM    8  P   UNK N   1      29.038  25.134  -6.604  0.00  0.00    -0.010 P 
HETATM    9  C   UNK N   1      28.772  23.422  -6.302  0.00  0.00     0.012 C 
ENDROOT
BRANCH   7  10
HETATM   10  C   UNK N   1      30.869  26.318  -4.771  0.00  0.00     0.044 A 
HETATM   11  N   UNK N   1      31.592  27.164  -5.556  0.00  0.00    -0.365 N 
HETATM   12  C   UNK N   1      32.071  28.350  -5.088  0.00  0.00     0.088 A 
ATOM     13  HN  UNK N   1      31.781  26.902  -6.524  1.00  0.00     0.165 HD
HETATM   14  C   UNK N   1      31.830  28.731  -3.768  0.00  0.00     0.017 A 
HETATM   15  C   UNK N   1      31.100  27.884  -2.937  0.00  0.00     0.004 A 
HETATM   16  C   UNK N   1      30.611  26.679  -3.439  0.00  0.00     0.030 A 
ENDBRANCH   7  10
BRANCH   8  17
HETATM   17  C   UNK N   1      27.636  25.969  -5.751  0.00  0.00    -0.022 A 
HETATM   18  C   UNK N   1      26.923  27.027  -6.326  0.00  0.00     0.013 A 
HETATM   19  C   UNK N   1      25.937  27.687  -5.582  0.00  0.00     0.001 A 
HETATM   20  C   UNK N   1      25.671  27.300  -4.264  0.00  0.00     0.000 A 
HETATM   21  C   UNK N   1      26.387  26.249  -3.687  0.00  0.00     0.001 A 
HETATM   22  C   UNK N   1      27.372  25.594  -4.428  0.00  0.00     0.013 A 
ENDBRANCH   8  17
BRANCH   9  23
HETATM   23  C   UNK N   1      27.576  22.703  -6.825  0.00  0.00     0.044 A 
HETATM   24  N   UNK N   1      27.698  21.899  -7.920  0.00  0.00    -0.365 N 
HETATM   25  C   UNK N   1      26.622  21.290  -8.489  0.00  0.00     0.088 A 
ATOM     26  HN  UNK N   1      28.622  21.748  -8.324  1.00  0.00     0.165 HD
HETATM   27  C   UNK N   1      25.344  21.484  -7.960  0.00  0.00     0.017 A 
HETATM   28  C   UNK N   1      25.188  22.300  -6.842  0.00  0.00     0.004 A 
HETATM   29  C   UNK N   1      26.303  22.916  -6.276  0.00  0.00     0.030 A 
ENDBRANCH   9  23
TORSDOF 3
ENDMDL
