REMARK  3 active torsions:
REMARK  status: ('A' for Active; 'I' for Inactive)
REMARK    1  A    between atoms: C_7  and  C_25 
REMARK    2  A    between atoms: P_8  and  C_20 
REMARK    3  A    between atoms: C_9  and  C_16 
ROOT
HETATM    1  C   UNK N   1       2.121  -0.774   0.037  0.00  0.00    -0.037 C 
HETATM    2  C   UNK N   1       2.098   0.603   0.002  0.00  0.00    -0.037 C 
HETATM    3  C   UNK N   1       3.227   1.415  -0.593  0.00  0.00     0.040 C 
HETATM    4  C   UNK N   1       4.363   0.572  -1.190  0.00  0.00     0.005 C 
HETATM    5  C   UNK N   1       4.556  -0.742  -0.443  0.00  0.00     0.005 C 
HETATM    6  C   UNK N   1       3.271  -1.555  -0.536  0.00  0.00     0.040 C 
HETATM    7  C   UNK N   1       0.946  -1.311   0.554  0.00  0.00     0.012 C 
HETATM    8  P   UNK N   1      -0.089  -0.097   1.291  0.00  0.00    -0.010 P 
HETATM    9  C   UNK N   1       0.909   1.121   0.509  0.00  0.00     0.012 C 
ENDROOT
BRANCH   7  10
HETATM   10  C   UNK N   1       0.576  -2.754   0.509  0.00  0.00     0.044 A 
HETATM   11  N   UNK N   1      -0.663  -3.146   0.918  0.00  0.00    -0.365 N 
HETATM   12  C   UNK N   1      -1.083  -4.437   0.810  0.00  0.00     0.088 A 
ATOM     13  HN  UNK N   1      -1.295  -2.452   1.316  1.00  0.00     0.165 HD
HETATM   14  C   UNK N   1      -0.237  -5.407   0.272  0.00  0.00     0.017 A 
HETATM   15  C   UNK N   1       1.039  -5.040  -0.148  0.00  0.00     0.004 A 
HETATM   16  C   UNK N   1       1.446  -3.711  -0.038  0.00  0.00     0.030 A 
ENDBRANCH   7  10
BRANCH   8  17
HETATM   17  C   UNK N   1      -1.612  -0.169   0.259  0.00  0.00    -0.022 A 
HETATM   18  C   UNK N   1      -1.726   0.492  -0.969  0.00  0.00     0.013 A 
HETATM   19  C   UNK N   1      -2.948   0.483  -1.653  0.00  0.00     0.001 A 
HETATM   20  C   UNK N   1      -4.056  -0.176  -1.108  0.00  0.00     0.000 A 
HETATM   21  C   UNK N   1      -3.945  -0.830   0.120  0.00  0.00     0.001 A 
HETATM   22  C   UNK N   1      -2.728  -0.817   0.803  0.00  0.00     0.013 A 
ENDBRANCH   8  17
BRANCH   9  23
HETATM   23  C   UNK N   1       0.490   2.548   0.418  0.00  0.00     0.044 A 
HETATM   24  N   UNK N   1      -0.720   2.929   0.919  0.00  0.00    -0.365 N 
HETATM   25  C   UNK N   1      -1.187   4.200   0.783  0.00  0.00     0.088 A 
ATOM     26  HN  UNK N   1      -1.292   2.242   1.411  1.00  0.00     0.165 HD
HETATM   27  C   UNK N   1      -0.428   5.159   0.109  0.00  0.00     0.017 A 
HETATM   28  C   UNK N   1       0.812   4.800  -0.414  0.00  0.00     0.004 A 
HETATM   29  C   UNK N   1       1.271   3.492  -0.265  0.00  0.00     0.030 A 
ENDBRANCH   9  23
TORSDOF 3
