MODEL 1
REMARK VINA RESULT:      -7.1      0.000      0.000
REMARK  9 active torsions:
REMARK  status: ('A' for Active; 'I' for Inactive)
REMARK    1  A    between atoms: C_3  and  C_2 
REMARK    2  A    between atoms: C_5  and  O_15 
REMARK    3  A    between atoms: C_7  and  O_16 
REMARK    4  A    between atoms: C_8  and  C_18 
REMARK    5  A    between atoms: C_12  and  O_15 
REMARK    6  A    between atoms: C_19  and  C_20 
REMARK    7  A    between atoms: C_21  and  C_22 
REMARK    8  A    between atoms: C_23  and  C_24 
REMARK    9  A    between atoms: C_26  and  O_32 
ROOT
HETATM    1  C   UNK N   1      22.142  15.295   2.026  0.00  0.00     0.159 C 
HETATM    2  C   UNK N   1      21.298  15.917   3.188  0.00  0.00     0.114 C 
HETATM    3  C   UNK N   1      19.915  15.501   2.752  0.00  0.00     0.205 C 
HETATM    4  C   UNK N   1      20.071  15.879   1.272  0.00  0.00     0.116 C 
HETATM    5  C   UNK N   1      20.034  17.415   1.160  0.00  0.00     0.187 C 
HETATM    6  C   UNK N   1      21.211  17.987   1.975  0.00  0.00     0.177 C 
HETATM    7  C   UNK N   1      21.675  15.406   4.573  0.00  0.00     0.051 C 
HETATM    8  C   UNK N   1      18.969  15.268   0.415  0.00  0.00     0.052 C 
HETATM    9  O   UNK N   1      21.348  15.422   0.852  0.00  0.00    -0.367 OA
HETATM   10  O   UNK N   1      21.341  17.355   3.243  0.00  0.00    -0.363 OA
ENDROOT
BRANCH   6  11
HETATM   11  C   UNK N   1      20.987  19.467   2.163  0.00  0.00     0.007 C 
HETATM   12  C   UNK N   1      21.837  20.367   2.683  0.00  0.00    -0.001 C 
BRANCH  12  13
HETATM   13  C   UNK N   1      23.210  20.131   3.171  0.00  0.00    -0.000 C 
HETATM   14  C   UNK N   1      24.330  20.585   2.595  0.00  0.00     0.000 C 
BRANCH  14  15
HETATM   15  C   UNK N   1      25.641  20.128   3.074  0.00  0.00     0.003 C 
HETATM   16  C   UNK N   1      25.900  20.141   4.379  0.00  0.00     0.038 C 
BRANCH  16  17
HETATM   17  C   UNK N   1      27.018  19.414   4.981  0.00  0.00     0.088 A 
HETATM   18  C   UNK N   1      27.379  19.686   6.314  0.00  0.00     0.005 A 
HETATM   19  C   UNK N   1      28.392  18.894   6.912  0.00  0.00     0.082 A 
HETATM   20  C   UNK N   1      26.670  20.784   7.051  0.00  0.00     0.054 C 
HETATM   21  C   UNK N   1      28.983  17.890   6.147  0.00  0.00     0.119 A 
HETATM   22  C   UNK N   1      28.573  17.684   4.830  0.00  0.00     0.290 A 
HETATM   23  O   UNK N   1      27.616  18.441   4.301  0.00  0.00    -0.275 OA
HETATM   24  O   UNK N   1      29.080  16.800   4.170  0.00  0.00    -0.260 OA
BRANCH  19  25
HETATM   25  O   UNK N   1      28.820  19.037   8.196  0.00  0.00    -0.355 OA
HETATM   26  C   UNK N   1      28.506  18.221   9.258  0.00  0.00     0.210 C 
ENDBRANCH  19  25
ENDBRANCH  16  17
ENDBRANCH  14  15
ENDBRANCH  12  13
ENDBRANCH   6  11
BRANCH   5  27
HETATM   27  O   UNK N   1      18.809  17.892   1.647  0.00  0.00    -0.390 OA
HETATM   28  H   UNK N   1      18.373  18.643   1.215  0.00  0.00     0.210 HD
ENDBRANCH   5  27
BRANCH   3  29
HETATM   29  O   UNK N   1      19.710  14.135   2.898  0.00  0.00    -0.310 OA
BRANCH  29  30
HETATM   30  C   UNK N   1      19.082  13.576   3.970  0.00  0.00     0.255 C 
HETATM   31  C   UNK N   1      19.360  12.159   4.327  0.00  0.00     0.126 C 
HETATM   32  O   UNK N   1      18.274  14.212   4.633  0.00  0.00    -0.266 OA
ENDBRANCH  29  30
ENDBRANCH   3  29
BRANCH   1  33
HETATM   33  C   UNK N   1      22.472  13.802   2.176  0.00  0.00     0.030 C 
HETATM   34  C   UNK N   1      22.517  13.087   0.836  0.00  0.00     0.007 C 
ENDBRANCH   1  33
TORSDOF 9
ENDMDL
MODEL 2
REMARK VINA RESULT:      -7.0      8.525     15.274
REMARK  9 active torsions:
REMARK  status: ('A' for Active; 'I' for Inactive)
REMARK    1  A    between atoms: C_3  and  C_2 
REMARK    2  A    between atoms: C_5  and  O_15 
REMARK    3  A    between atoms: C_7  and  O_16 
REMARK    4  A    between atoms: C_8  and  C_18 
REMARK    5  A    between atoms: C_12  and  O_15 
REMARK    6  A    between atoms: C_19  and  C_20 
REMARK    7  A    between atoms: C_21  and  C_22 
REMARK    8  A    between atoms: C_23  and  C_24 
REMARK    9  A    between atoms: C_26  and  O_32 
ROOT
HETATM    1  C   UNK N   1      34.643  11.645  12.326  0.00  0.00     0.159 C 
HETATM    2  C   UNK N   1      36.153  11.957  12.059  0.00  0.00     0.114 C 
HETATM    3  C   UNK N   1      36.667  11.968  13.478  0.00  0.00     0.205 C 
HETATM    4  C   UNK N   1      35.529  12.807  14.075  0.00  0.00     0.116 C 
HETATM    5  C   UNK N   1      35.714  14.266  13.618  0.00  0.00     0.187 C 
HETATM    6  C   UNK N   1      35.640  14.302  12.078  0.00  0.00     0.177 C 
HETATM    7  C   UNK N   1      36.852  10.935  11.171  0.00  0.00     0.051 C 
HETATM    8  C   UNK N   1      35.516  12.737  15.597  0.00  0.00     0.052 C 
HETATM    9  O   UNK N   1      34.311  12.312  13.538  0.00  0.00    -0.367 OA
HETATM   10  O   UNK N   1      36.394  13.253  11.481  0.00  0.00    -0.363 OA
ENDROOT
BRANCH   6  11
HETATM   11  C   UNK N   1      36.161  15.637  11.606  0.00  0.00     0.007 C 
HETATM   12  C   UNK N   1      35.674  16.405  10.618  0.00  0.00    -0.001 C 
BRANCH  12  13
HETATM   13  C   UNK N   1      34.493  16.143   9.772  0.00  0.00    -0.000 C 
HETATM   14  C   UNK N   1      34.413  16.374   8.455  0.00  0.00     0.000 C 
BRANCH  14  15
HETATM   15  C   UNK N   1      33.123  16.243   7.764  0.00  0.00     0.003 C 
HETATM   16  C   UNK N   1      32.039  16.805   8.292  0.00  0.00     0.038 C 
BRANCH  16  17
HETATM   17  C   UNK N   1      30.801  17.018   7.542  0.00  0.00     0.088 A 
HETATM   18  C   UNK N   1      29.873  17.972   8.000  0.00  0.00     0.005 A 
HETATM   19  C   UNK N   1      28.734  18.241   7.200  0.00  0.00     0.082 A 
HETATM   20  C   UNK N   1      30.133  18.676   9.299  0.00  0.00     0.054 C 
HETATM   21  C   UNK N   1      28.588  17.542   6.002  0.00  0.00     0.119 A 
HETATM   22  C   UNK N   1      29.551  16.608   5.618  0.00  0.00     0.290 A 
HETATM   23  O   UNK N   1      30.610  16.384   6.389  0.00  0.00    -0.275 OA
HETATM   24  O   UNK N   1      29.428  16.011   4.568  0.00  0.00    -0.260 OA
BRANCH  19  25
HETATM   25  O   UNK N   1      27.773  19.152   7.514  0.00  0.00    -0.355 OA
HETATM   26  C   UNK N   1      27.402  20.242   6.760  0.00  0.00     0.210 C 
ENDBRANCH  19  25
ENDBRANCH  16  17
ENDBRANCH  14  15
ENDBRANCH  12  13
ENDBRANCH   6  11
BRANCH   5  27
HETATM   27  O   UNK N   1      36.950  14.747  14.071  0.00  0.00    -0.390 OA
HETATM   28  H   UNK N   1      37.093  15.701  14.171  0.00  0.00     0.210 HD
ENDBRANCH   5  27
BRANCH   3  29
HETATM   29  O   UNK N   1      36.692  10.694  14.034  0.00  0.00    -0.310 OA
BRANCH  29  30
HETATM   30  C   UNK N   1      37.783  10.161  14.650  0.00  0.00     0.255 C 
HETATM   31  C   UNK N   1      37.618   8.996  15.559  0.00  0.00     0.126 C 
HETATM   32  O   UNK N   1      38.898  10.640  14.489  0.00  0.00    -0.266 OA
ENDBRANCH  29  30
ENDBRANCH   3  29
BRANCH   1  33
HETATM   33  C   UNK N   1      34.301  10.161  12.530  0.00  0.00     0.030 C 
HETATM   34  C   UNK N   1      33.435   9.612  11.407  0.00  0.00     0.007 C 
ENDBRANCH   1  33
TORSDOF 9
ENDMDL
MODEL 3
REMARK VINA RESULT:      -6.9      3.378      9.202
REMARK  9 active torsions:
REMARK  status: ('A' for Active; 'I' for Inactive)
REMARK    1  A    between atoms: C_3  and  C_2 
REMARK    2  A    between atoms: C_5  and  O_15 
REMARK    3  A    between atoms: C_7  and  O_16 
REMARK    4  A    between atoms: C_8  and  C_18 
REMARK    5  A    between atoms: C_12  and  O_15 
REMARK    6  A    between atoms: C_19  and  C_20 
REMARK    7  A    between atoms: C_21  and  C_22 
REMARK    8  A    between atoms: C_23  and  C_24 
REMARK    9  A    between atoms: C_26  and  O_32 
ROOT
HETATM    1  C   UNK N   1      29.354  15.875   5.325  0.00  0.00     0.159 C 
HETATM    2  C   UNK N   1      30.092  17.255   5.318  0.00  0.00     0.114 C 
HETATM    3  C   UNK N   1      29.996  17.604   6.783  0.00  0.00     0.205 C 
HETATM    4  C   UNK N   1      28.520  17.222   6.964  0.00  0.00     0.116 C 
HETATM    5  C   UNK N   1      27.656  18.300   6.283  0.00  0.00     0.187 C 
HETATM    6  C   UNK N   1      28.012  18.327   4.783  0.00  0.00     0.177 C 
HETATM    7  C   UNK N   1      31.524  17.193   4.803  0.00  0.00     0.051 C 
HETATM    8  C   UNK N   1      28.144  17.106   8.436  0.00  0.00     0.052 C 
HETATM    9  O   UNK N   1      28.319  15.986   6.294  0.00  0.00    -0.367 OA
HETATM   10  O   UNK N   1      29.416  18.280   4.565  0.00  0.00    -0.363 OA
ENDROOT
BRANCH   6  11
HETATM   11  C   UNK N   1      27.444  19.589   4.181  0.00  0.00     0.007 C 
HETATM   12  C   UNK N   1      26.151  19.918   4.029  0.00  0.00    -0.001 C 
BRANCH  12  13
HETATM   13  C   UNK N   1      24.969  19.135   4.442  0.00  0.00    -0.000 C 
HETATM   14  C   UNK N   1      23.753  19.212   3.887  0.00  0.00     0.000 C 
BRANCH  14  15
HETATM   15  C   UNK N   1      22.617  18.517   4.508  0.00  0.00     0.003 C 
HETATM   16  C   UNK N   1      22.844  17.619   5.463  0.00  0.00     0.038 C 
BRANCH  16  17
HETATM   17  C   UNK N   1      21.800  17.123   6.360  0.00  0.00     0.088 A 
HETATM   18  C   UNK N   1      21.571  15.737   6.451  0.00  0.00     0.005 A 
HETATM   19  C   UNK N   1      20.632  15.271   7.406  0.00  0.00     0.082 A 
HETATM   20  C   UNK N   1      22.339  14.812   5.553  0.00  0.00     0.054 C 
HETATM   21  C   UNK N   1      19.980  16.211   8.203  0.00  0.00     0.119 A 
HETATM   22  C   UNK N   1      20.258  17.569   8.050  0.00  0.00     0.290 A 
HETATM   23  O   UNK N   1      21.148  17.972   7.149  0.00  0.00    -0.275 OA
HETATM   24  O   UNK N   1      19.697  18.384   8.754  0.00  0.00    -0.260 OA
BRANCH  19  25
HETATM   25  O   UNK N   1      20.335  13.960   7.612  0.00  0.00    -0.355 OA
HETATM   26  C   UNK N   1      21.104  13.043   8.291  0.00  0.00     0.210 C 
ENDBRANCH  19  25
ENDBRANCH  16  17
ENDBRANCH  14  15
ENDBRANCH  12  13
ENDBRANCH   6  11
BRANCH   5  27
HETATM   27  O   UNK N   1      27.903  19.545   6.879  0.00  0.00    -0.390 OA
HETATM   28  H   UNK N   1      27.653  19.700   7.803  0.00  0.00     0.210 HD
ENDBRANCH   5  27
BRANCH   3  29
HETATM   29  O   UNK N   1      30.818  16.802   7.566  0.00  0.00    -0.310 OA
BRANCH  29  30
HETATM   30  C   UNK N   1      31.880  17.275   8.276  0.00  0.00     0.255 C 
HETATM   31  C   UNK N   1      32.943  16.335   8.720  0.00  0.00     0.126 C 
HETATM   32  O   UNK N   1      31.963  18.458   8.577  0.00  0.00    -0.266 OA
ENDBRANCH  29  30
ENDBRANCH   3  29
BRANCH   1  33
HETATM   33  C   UNK N   1      30.215  14.669   5.735  0.00  0.00     0.030 C 
HETATM   34  C   UNK N   1      30.218  13.580   4.674  0.00  0.00     0.007 C 
ENDBRANCH   1  33
TORSDOF 9
ENDMDL
MODEL 4
REMARK VINA RESULT:      -6.8      1.879      9.017
REMARK  9 active torsions:
REMARK  status: ('A' for Active; 'I' for Inactive)
REMARK    1  A    between atoms: C_3  and  C_2 
REMARK    2  A    between atoms: C_5  and  O_15 
REMARK    3  A    between atoms: C_7  and  O_16 
REMARK    4  A    between atoms: C_8  and  C_18 
REMARK    5  A    between atoms: C_12  and  O_15 
REMARK    6  A    between atoms: C_19  and  C_20 
REMARK    7  A    between atoms: C_21  and  C_22 
REMARK    8  A    between atoms: C_23  and  C_24 
REMARK    9  A    between atoms: C_26  and  O_32 
ROOT
HETATM    1  C   UNK N   1      27.214  16.310   5.172  0.00  0.00     0.159 C 
HETATM    2  C   UNK N   1      28.020  17.239   4.204  0.00  0.00     0.114 C 
HETATM    3  C   UNK N   1      28.974  17.869   5.188  0.00  0.00     0.205 C 
HETATM    4  C   UNK N   1      27.936  18.167   6.280  0.00  0.00     0.116 C 
HETATM    5  C   UNK N   1      27.071  19.352   5.813  0.00  0.00     0.187 C 
HETATM    6  C   UNK N   1      26.358  18.944   4.508  0.00  0.00     0.177 C 
HETATM    7  C   UNK N   1      28.722  16.500   3.071  0.00  0.00     0.051 C 
HETATM    8  C   UNK N   1      28.598  18.499   7.612  0.00  0.00     0.052 C 
HETATM    9  O   UNK N   1      27.109  17.019   6.401  0.00  0.00    -0.367 OA
HETATM   10  O   UNK N   1      27.235  18.285   3.602  0.00  0.00    -0.363 OA
ENDROOT
BRANCH   6  11
HETATM   11  C   UNK N   1      25.797  20.188   3.862  0.00  0.00     0.007 C 
HETATM   12  C   UNK N   1      24.542  20.395   3.432  0.00  0.00    -0.001 C 
BRANCH  12  13
HETATM   13  C   UNK N   1      23.398  19.466   3.514  0.00  0.00    -0.000 C 
HETATM   14  C   UNK N   1      22.135  19.755   3.173  0.00  0.00     0.000 C 
BRANCH  14  15
HETATM   15  C   UNK N   1      21.057  18.803   3.474  0.00  0.00     0.003 C 
HETATM   16  C   UNK N   1      21.135  17.560   3.009  0.00  0.00     0.038 C 
BRANCH  16  17
HETATM   17  C   UNK N   1      20.307  16.463   3.511  0.00  0.00     0.088 A 
HETATM   18  C   UNK N   1      20.536  15.156   3.043  0.00  0.00     0.005 A 
HETATM   19  C   UNK N   1      19.798  14.094   3.625  0.00  0.00     0.082 A 
HETATM   20  C   UNK N   1      21.559  14.936   1.968  0.00  0.00     0.054 C 
HETATM   21  C   UNK N   1      18.878  14.400   4.627  0.00  0.00     0.119 A 
HETATM   22  C   UNK N   1      18.705  15.722   5.034  0.00  0.00     0.290 A 
HETATM   23  O   UNK N   1      19.417  16.694   4.473  0.00  0.00    -0.275 OA
HETATM   24  O   UNK N   1      17.913  15.984   5.916  0.00  0.00    -0.260 OA
BRANCH  19  25
HETATM   25  O   UNK N   1      19.938  12.785   3.281  0.00  0.00    -0.355 OA
HETATM   26  C   UNK N   1      19.355  11.707   3.908  0.00  0.00     0.210 C 
ENDBRANCH  19  25
ENDBRANCH  16  17
ENDBRANCH  14  15
ENDBRANCH  12  13
ENDBRANCH   6  11
BRANCH   5  27
HETATM   27  O   UNK N   1      27.884  20.476   5.609  0.00  0.00    -0.390 OA
HETATM   28  H   UNK N   1      27.962  21.151   6.301  0.00  0.00     0.210 HD
ENDBRANCH   5  27
BRANCH   3  29
HETATM   29  O   UNK N   1      29.929  16.967   5.642  0.00  0.00    -0.310 OA
BRANCH  29  30
HETATM   30  C   UNK N   1      31.264  17.237   5.681  0.00  0.00     0.255 C 
HETATM   31  C   UNK N   1      31.984  17.564   4.421  0.00  0.00     0.126 C 
HETATM   32  O   UNK N   1      31.888  17.189   6.732  0.00  0.00    -0.266 OA
ENDBRANCH  29  30
ENDBRANCH   3  29
BRANCH   1  33
HETATM   33  C   UNK N   1      27.875  14.961   5.494  0.00  0.00     0.030 C 
HETATM   34  C   UNK N   1      26.977  13.785   5.148  0.00  0.00     0.007 C 
ENDBRANCH   1  33
TORSDOF 9
ENDMDL
MODEL 5
REMARK VINA RESULT:      -6.8     11.880     14.100
REMARK  9 active torsions:
REMARK  status: ('A' for Active; 'I' for Inactive)
REMARK    1  A    between atoms: C_3  and  C_2 
REMARK    2  A    between atoms: C_5  and  O_15 
REMARK    3  A    between atoms: C_7  and  O_16 
REMARK    4  A    between atoms: C_8  and  C_18 
REMARK    5  A    between atoms: C_12  and  O_15 
REMARK    6  A    between atoms: C_19  and  C_20 
REMARK    7  A    between atoms: C_21  and  C_22 
REMARK    8  A    between atoms: C_23  and  C_24 
REMARK    9  A    between atoms: C_26  and  O_32 
ROOT
HETATM    1  C   UNK N   1      25.753  26.884  -4.733  0.00  0.00     0.159 C 
HETATM    2  C   UNK N   1      26.669  25.623  -4.870  0.00  0.00     0.114 C 
HETATM    3  C   UNK N   1      27.927  26.274  -5.389  0.00  0.00     0.205 C 
HETATM    4  C   UNK N   1      27.248  27.176  -6.430  0.00  0.00     0.116 C 
HETATM    5  C   UNK N   1      26.791  26.294  -7.607  0.00  0.00     0.187 C 
HETATM    6  C   UNK N   1      25.783  25.258  -7.071  0.00  0.00     0.177 C 
HETATM    7  C   UNK N   1      26.876  24.859  -3.568  0.00  0.00     0.051 C 
HETATM    8  C   UNK N   1      28.187  28.266  -6.929  0.00  0.00     0.052 C 
HETATM    9  O   UNK N   1      26.100  27.742  -5.813  0.00  0.00    -0.367 OA
HETATM   10  O   UNK N   1      26.217  24.670  -5.851  0.00  0.00    -0.363 OA
ENDROOT
BRANCH   6  11
HETATM   11  C   UNK N   1      25.600  24.185  -8.117  0.00  0.00     0.007 C 
HETATM   12  C   UNK N   1      26.215  22.994  -8.189  0.00  0.00    -0.001 C 
BRANCH  12  13
HETATM   13  C   UNK N   1      27.202  22.432  -7.246  0.00  0.00    -0.000 C 
HETATM   14  C   UNK N   1      28.494  22.205  -7.515  0.00  0.00     0.000 C 
BRANCH  14  15
HETATM   15  C   UNK N   1      29.327  21.472  -6.551  0.00  0.00     0.003 C 
HETATM   16  C   UNK N   1      30.631  21.727  -6.490  0.00  0.00     0.038 C 
BRANCH  16  17
HETATM   17  C   UNK N   1      31.476  21.310  -5.371  0.00  0.00     0.088 A 
HETATM   18  C   UNK N   1      32.558  20.441  -5.610  0.00  0.00     0.005 A 
HETATM   19  C   UNK N   1      33.429  20.138  -4.533  0.00  0.00     0.082 A 
HETATM   20  C   UNK N   1      32.756  19.888  -6.990  0.00  0.00     0.054 C 
HETATM   21  C   UNK N   1      33.167  20.713  -3.290  0.00  0.00     0.119 A 
HETATM   22  C   UNK N   1      32.072  21.562  -3.131  0.00  0.00     0.290 A 
HETATM   23  O   UNK N   1      31.278  21.830  -4.163  0.00  0.00    -0.275 OA
HETATM   24  O   UNK N   1      31.853  22.072  -2.051  0.00  0.00    -0.260 OA
BRANCH  19  25
HETATM   25  O   UNK N   1      34.521  19.333  -4.633  0.00  0.00    -0.355 OA
HETATM   26  C   UNK N   1      34.590  18.002  -4.287  0.00  0.00     0.210 C 
ENDBRANCH  19  25
ENDBRANCH  16  17
ENDBRANCH  14  15
ENDBRANCH  12  13
ENDBRANCH   6  11
BRANCH   5  27
HETATM   27  O   UNK N   1      27.904  25.661  -8.178  0.00  0.00    -0.390 OA
HETATM   28  H   UNK N   1      28.304  24.893  -7.741  0.00  0.00     0.210 HD
ENDBRANCH   5  27
BRANCH   3  29
HETATM   29  O   UNK N   1      28.563  27.032  -4.413  0.00  0.00    -0.310 OA
BRANCH  29  30
HETATM   30  C   UNK N   1      29.827  26.784  -3.969  0.00  0.00     0.255 C 
HETATM   31  C   UNK N   1      30.474  25.483  -4.285  0.00  0.00     0.126 C 
HETATM   32  O   UNK N   1      30.432  27.605  -3.291  0.00  0.00    -0.266 OA
ENDBRANCH  29  30
ENDBRANCH   3  29
BRANCH   1  33
HETATM   33  C   UNK N   1      25.940  27.698  -3.444  0.00  0.00     0.030 C 
HETATM   34  C   UNK N   1      26.089  29.185  -3.722  0.00  0.00     0.007 C 
ENDBRANCH   1  33
TORSDOF 9
ENDMDL
MODEL 6
REMARK VINA RESULT:      -6.8      2.137      3.323
REMARK  9 active torsions:
REMARK  status: ('A' for Active; 'I' for Inactive)
REMARK    1  A    between atoms: C_3  and  C_2 
REMARK    2  A    between atoms: C_5  and  O_15 
REMARK    3  A    between atoms: C_7  and  O_16 
REMARK    4  A    between atoms: C_8  and  C_18 
REMARK    5  A    between atoms: C_12  and  O_15 
REMARK    6  A    between atoms: C_19  and  C_20 
REMARK    7  A    between atoms: C_21  and  C_22 
REMARK    8  A    between atoms: C_23  and  C_24 
REMARK    9  A    between atoms: C_26  and  O_32 
ROOT
HETATM    1  C   UNK N   1      22.398  14.773   4.043  0.00  0.00     0.159 C 
HETATM    2  C   UNK N   1      21.927  15.875   5.049  0.00  0.00     0.114 C 
HETATM    3  C   UNK N   1      20.851  15.112   5.780  0.00  0.00     0.205 C 
HETATM    4  C   UNK N   1      20.190  14.497   4.538  0.00  0.00     0.116 C 
HETATM    5  C   UNK N   1      19.409  15.605   3.808  0.00  0.00     0.187 C 
HETATM    6  C   UNK N   1      20.407  16.701   3.385  0.00  0.00     0.177 C 
HETATM    7  C   UNK N   1      23.029  16.394   5.965  0.00  0.00     0.051 C 
HETATM    8  C   UNK N   1      19.252  13.354   4.906  0.00  0.00     0.052 C 
HETATM    9  O   UNK N   1      21.232  14.039   3.688  0.00  0.00    -0.367 OA
HETATM   10  O   UNK N   1      21.322  17.023   4.425  0.00  0.00    -0.363 OA
ENDROOT
BRANCH   6  11
HETATM   11  C   UNK N   1      19.628  17.932   2.991  0.00  0.00     0.007 C 
HETATM   12  C   UNK N   1      20.032  19.211   3.043  0.00  0.00    -0.001 C 
BRANCH  12  13
HETATM   13  C   UNK N   1      21.349  19.722   3.470  0.00  0.00    -0.000 C 
HETATM   14  C   UNK N   1      22.412  19.895   2.674  0.00  0.00     0.000 C 
BRANCH  14  15
HETATM   15  C   UNK N   1      23.718  20.236   3.256  0.00  0.00     0.003 C 
HETATM   16  C   UNK N   1      24.237  19.454   4.198  0.00  0.00     0.038 C 
BRANCH  16  17
HETATM   17  C   UNK N   1      25.643  19.509   4.599  0.00  0.00     0.088 A 
HETATM   18  C   UNK N   1      26.520  18.491   4.181  0.00  0.00     0.005 A 
HETATM   19  C   UNK N   1      27.898  18.622   4.487  0.00  0.00     0.082 A 
HETATM   20  C   UNK N   1      25.969  17.324   3.416  0.00  0.00     0.054 C 
HETATM   21  C   UNK N   1      28.314  19.751   5.192  0.00  0.00     0.119 A 
HETATM   22  C   UNK N   1      27.382  20.715   5.575  0.00  0.00     0.290 A 
HETATM   23  O   UNK N   1      26.098  20.565   5.267  0.00  0.00    -0.275 OA
HETATM   24  O   UNK N   1      27.749  21.704   6.178  0.00  0.00    -0.260 OA
BRANCH  19  25
HETATM   25  O   UNK N   1      28.853  17.724   4.124  0.00  0.00    -0.355 OA
HETATM   26  C   UNK N   1      29.366  16.713   4.905  0.00  0.00     0.210 C 
ENDBRANCH  19  25
ENDBRANCH  16  17
ENDBRANCH  14  15
ENDBRANCH  12  13
ENDBRANCH   6  11
BRANCH   5  27
HETATM   27  O   UNK N   1      18.426  16.127   4.662  0.00  0.00    -0.390 OA
HETATM   28  H   UNK N   1      17.547  15.720   4.697  0.00  0.00     0.210 HD
ENDBRANCH   5  27
BRANCH   3  29
HETATM   29  O   UNK N   1      21.378  14.124   6.604  0.00  0.00    -0.310 OA
BRANCH  29  30
HETATM   30  C   UNK N   1      20.998  13.939   7.899  0.00  0.00     0.255 C 
HETATM   31  C   UNK N   1      20.756  15.121   8.769  0.00  0.00     0.126 C 
HETATM   32  O   UNK N   1      20.876  12.816   8.368  0.00  0.00    -0.266 OA
ENDBRANCH  29  30
ENDBRANCH   3  29
BRANCH   1  33
HETATM   33  C   UNK N   1      23.407  13.757   4.601  0.00  0.00     0.030 C 
HETATM   34  C   UNK N   1      23.195  12.365   4.027  0.00  0.00     0.007 C 
ENDBRANCH   1  33
TORSDOF 9
ENDMDL
MODEL 7
REMARK VINA RESULT:      -6.8      4.170      5.954
REMARK  9 active torsions:
REMARK  status: ('A' for Active; 'I' for Inactive)
REMARK    1  A    between atoms: C_3  and  C_2 
REMARK    2  A    between atoms: C_5  and  O_15 
REMARK    3  A    between atoms: C_7  and  O_16 
REMARK    4  A    between atoms: C_8  and  C_18 
REMARK    5  A    between atoms: C_12  and  O_15 
REMARK    6  A    between atoms: C_19  and  C_20 
REMARK    7  A    between atoms: C_21  and  C_22 
REMARK    8  A    between atoms: C_23  and  C_24 
REMARK    9  A    between atoms: C_26  and  O_32 
ROOT
HETATM    1  C   UNK N   1      22.445  14.627   1.987  0.00  0.00     0.159 C 
HETATM    2  C   UNK N   1      21.602  14.711   3.302  0.00  0.00     0.114 C 
HETATM    3  C   UNK N   1      20.211  14.658   2.720  0.00  0.00     0.205 C 
HETATM    4  C   UNK N   1      20.454  15.660   1.582  0.00  0.00     0.116 C 
HETATM    5  C   UNK N   1      20.531  17.072   2.191  0.00  0.00     0.187 C 
HETATM    6  C   UNK N   1      21.712  17.106   3.182  0.00  0.00     0.177 C 
HETATM    7  C   UNK N   1      21.885  13.591   4.296  0.00  0.00     0.051 C 
HETATM    8  C   UNK N   1      19.347  15.604   0.536  0.00  0.00     0.052 C 
HETATM    9  O   UNK N   1      21.711  15.345   1.002  0.00  0.00    -0.367 OA
HETATM   10  O   UNK N   1      21.745  15.954   4.015  0.00  0.00    -0.363 OA
ENDROOT
BRANCH   6  11
HETATM   11  C   UNK N   1      21.587  18.347   4.032  0.00  0.00     0.007 C 
HETATM   12  C   UNK N   1      21.393  18.418   5.358  0.00  0.00    -0.001 C 
BRANCH  12  13
HETATM   13  C   UNK N   1      21.285  17.297   6.314  0.00  0.00    -0.000 C 
HETATM   14  C   UNK N   1      20.223  17.033   7.085  0.00  0.00     0.000 C 
BRANCH  14  15
HETATM   15  C   UNK N   1      20.310  15.999   8.125  0.00  0.00     0.003 C 
HETATM   16  C   UNK N   1      20.743  14.783   7.803  0.00  0.00     0.038 C 
BRANCH  16  17
HETATM   17  C   UNK N   1      21.175  13.798   8.794  0.00  0.00     0.088 A 
HETATM   18  C   UNK N   1      22.508  13.346   8.780  0.00  0.00     0.005 A 
HETATM   19  C   UNK N   1      22.935  12.477   9.816  0.00  0.00     0.082 A 
HETATM   20  C   UNK N   1      23.424  13.813   7.687  0.00  0.00     0.054 C 
HETATM   21  C   UNK N   1      22.011  12.110  10.793  0.00  0.00     0.119 A 
HETATM   22  C   UNK N   1      20.705  12.598  10.736  0.00  0.00     0.290 A 
HETATM   23  O   UNK N   1      20.339  13.416   9.755  0.00  0.00    -0.275 OA
HETATM   24  O   UNK N   1      19.906  12.288  11.596  0.00  0.00    -0.260 OA
BRANCH  19  25
HETATM   25  O   UNK N   1      24.198  11.985   9.933  0.00  0.00    -0.355 OA
HETATM   26  C   UNK N   1      25.038  12.135  11.012  0.00  0.00     0.210 C 
ENDBRANCH  19  25
ENDBRANCH  16  17
ENDBRANCH  14  15
ENDBRANCH  12  13
ENDBRANCH   6  11
BRANCH   5  27
HETATM   27  O   UNK N   1      19.324  17.370   2.841  0.00  0.00    -0.390 OA
HETATM   28  H   UNK N   1      19.000  18.284   2.868  0.00  0.00     0.210 HD
ENDBRANCH   5  27
BRANCH   3  29
HETATM   29  O   UNK N   1      19.903  13.399   2.217  0.00  0.00    -0.310 OA
BRANCH  29  30
HETATM   30  C   UNK N   1      18.759  12.725   2.520  0.00  0.00     0.255 C 
HETATM   31  C   UNK N   1      18.071  11.935   1.464  0.00  0.00     0.126 C 
HETATM   32  O   UNK N   1      18.272  12.777   3.641  0.00  0.00    -0.266 OA
ENDBRANCH  29  30
ENDBRANCH   3  29
BRANCH   1  33
HETATM   33  C   UNK N   1      22.662  13.211   1.431  0.00  0.00     0.030 C 
HETATM   34  C   UNK N   1      23.536  13.211   0.187  0.00  0.00     0.007 C 
ENDBRANCH   1  33
TORSDOF 9
ENDMDL
MODEL 8
REMARK VINA RESULT:      -6.7      1.943      4.382
REMARK  9 active torsions:
REMARK  status: ('A' for Active; 'I' for Inactive)
REMARK    1  A    between atoms: C_3  and  C_2 
REMARK    2  A    between atoms: C_5  and  O_15 
REMARK    3  A    between atoms: C_7  and  O_16 
REMARK    4  A    between atoms: C_8  and  C_18 
REMARK    5  A    between atoms: C_12  and  O_15 
REMARK    6  A    between atoms: C_19  and  C_20 
REMARK    7  A    between atoms: C_21  and  C_22 
REMARK    8  A    between atoms: C_23  and  C_24 
REMARK    9  A    between atoms: C_26  and  O_32 
ROOT
HETATM    1  C   UNK N   1      20.990  16.033   4.902  0.00  0.00     0.159 C 
HETATM    2  C   UNK N   1      22.168  16.533   4.002  0.00  0.00     0.114 C 
HETATM    3  C   UNK N   1      21.455  17.607   3.219  0.00  0.00     0.205 C 
HETATM    4  C   UNK N   1      20.191  16.793   2.907  0.00  0.00     0.116 C 
HETATM    5  C   UNK N   1      20.544  15.744   1.836  0.00  0.00     0.187 C 
HETATM    6  C   UNK N   1      21.637  14.820   2.408  0.00  0.00     0.177 C 
HETATM    7  C   UNK N   1      23.371  17.051   4.782  0.00  0.00     0.051 C 
HETATM    8  C   UNK N   1      19.057  17.682   2.412  0.00  0.00     0.052 C 
HETATM    9  O   UNK N   1      19.818  16.118   4.100  0.00  0.00    -0.367 OA
HETATM   10  O   UNK N   1      22.661  15.548   3.075  0.00  0.00    -0.363 OA
ENDROOT
BRANCH   6  11
HETATM   11  C   UNK N   1      22.233  14.025   1.271  0.00  0.00     0.007 C 
HETATM   12  C   UNK N   1      23.499  14.055   0.824  0.00  0.00    -0.001 C 
BRANCH  12  13
HETATM   13  C   UNK N   1      24.622  14.853   1.354  0.00  0.00    -0.000 C 
HETATM   14  C   UNK N   1      25.775  14.357   1.822  0.00  0.00     0.000 C 
BRANCH  14  15
HETATM   15  C   UNK N   1      26.738  15.243   2.490  0.00  0.00     0.003 C 
HETATM   16  C   UNK N   1      26.322  16.407   2.982  0.00  0.00     0.038 C 
BRANCH  16  17
HETATM   17  C   UNK N   1      27.101  17.197   3.935  0.00  0.00     0.088 A 
HETATM   18  C   UNK N   1      26.834  18.573   4.069  0.00  0.00     0.005 A 
HETATM   19  C   UNK N   1      27.523  19.296   5.076  0.00  0.00     0.082 A 
HETATM   20  C   UNK N   1      25.826  19.211   3.161  0.00  0.00     0.054 C 
HETATM   21  C   UNK N   1      28.433  18.609   5.878  0.00  0.00     0.119 A 
HETATM   22  C   UNK N   1      28.645  17.245   5.681  0.00  0.00     0.290 A 
HETATM   23  O   UNK N   1      27.979  16.595   4.732  0.00  0.00    -0.275 OA
HETATM   24  O   UNK N   1      29.428  16.646   6.389  0.00  0.00    -0.260 OA
BRANCH  19  25
HETATM   25  O   UNK N   1      27.344  20.622   5.326  0.00  0.00    -0.355 OA
HETATM   26  C   UNK N   1      26.555  21.169   6.312  0.00  0.00     0.210 C 
ENDBRANCH  19  25
ENDBRANCH  16  17
ENDBRANCH  14  15
ENDBRANCH  12  13
ENDBRANCH   6  11
BRANCH   5  27
HETATM   27  O   UNK N   1      20.993  16.391   0.676  0.00  0.00    -0.390 OA
HETATM   28  H   UNK N   1      21.738  17.011   0.722  0.00  0.00     0.210 HD
ENDBRANCH   5  27
BRANCH   3  29
HETATM   29  O   UNK N   1      21.154  18.714   4.003  0.00  0.00    -0.310 OA
BRANCH  29  30
HETATM   30  C   UNK N   1      21.176  19.995   3.542  0.00  0.00     0.255 C 
HETATM   31  C   UNK N   1      22.320  20.457   2.711  0.00  0.00     0.126 C 
HETATM   32  O   UNK N   1      20.282  20.783   3.819  0.00  0.00    -0.266 OA
ENDBRANCH  29  30
ENDBRANCH   3  29
BRANCH   1  33
HETATM   33  C   UNK N   1      20.723  16.867   6.164  0.00  0.00     0.030 C 
HETATM   34  C   UNK N   1      20.975  16.077   7.438  0.00  0.00     0.007 C 
ENDBRANCH   1  33
TORSDOF 9
ENDMDL
MODEL 9
REMARK VINA RESULT:      -6.7      4.957      8.482
REMARK  9 active torsions:
REMARK  status: ('A' for Active; 'I' for Inactive)
REMARK    1  A    between atoms: C_3  and  C_2 
REMARK    2  A    between atoms: C_5  and  O_15 
REMARK    3  A    between atoms: C_7  and  O_16 
REMARK    4  A    between atoms: C_8  and  C_18 
REMARK    5  A    between atoms: C_12  and  O_15 
REMARK    6  A    between atoms: C_19  and  C_20 
REMARK    7  A    between atoms: C_21  and  C_22 
REMARK    8  A    between atoms: C_23  and  C_24 
REMARK    9  A    between atoms: C_26  and  O_32 
ROOT
HETATM    1  C   UNK N   1      28.298  16.622   4.660  0.00  0.00     0.159 C 
HETATM    2  C   UNK N   1      27.129  16.562   5.698  0.00  0.00     0.114 C 
HETATM    3  C   UNK N   1      26.220  17.619   5.122  0.00  0.00     0.205 C 
HETATM    4  C   UNK N   1      27.309  18.667   4.853  0.00  0.00     0.116 C 
HETATM    5  C   UNK N   1      27.745  19.268   6.202  0.00  0.00     0.187 C 
HETATM    6  C   UNK N   1      28.313  18.132   7.075  0.00  0.00     0.177 C 
HETATM    7  C   UNK N   1      26.468  15.194   5.813  0.00  0.00     0.051 C 
HETATM    8  C   UNK N   1      26.813  19.771   3.927  0.00  0.00     0.052 C 
HETATM    9  O   UNK N   1      28.416  17.987   4.278  0.00  0.00    -0.367 OA
HETATM   10  O   UNK N   1      27.502  16.964   7.029  0.00  0.00    -0.363 OA
ENDROOT
BRANCH   6  11
HETATM   11  C   UNK N   1      28.414  18.627   8.497  0.00  0.00     0.007 C 
HETATM   12  C   UNK N   1      29.455  18.508   9.336  0.00  0.00    -0.001 C 
BRANCH  12  13
HETATM   13  C   UNK N   1      30.766  17.887   9.062  0.00  0.00    -0.000 C 
HETATM   14  C   UNK N   1      31.761  18.448   8.362  0.00  0.00     0.000 C 
BRANCH  14  15
HETATM   15  C   UNK N   1      32.945  17.655   8.003  0.00  0.00     0.003 C 
HETATM   16  C   UNK N   1      33.656  17.072   8.965  0.00  0.00     0.038 C 
BRANCH  16  17
HETATM   17  C   UNK N   1      34.632  16.013   8.709  0.00  0.00     0.088 A 
HETATM   18  C   UNK N   1      35.540  15.653   9.723  0.00  0.00     0.005 A 
HETATM   19  C   UNK N   1      36.402  14.551   9.493  0.00  0.00     0.082 A 
HETATM   20  C   UNK N   1      35.545  16.431  11.005  0.00  0.00     0.054 C 
HETATM   21  C   UNK N   1      36.311  13.884   8.272  0.00  0.00     0.119 A 
HETATM   22  C   UNK N   1      35.388  14.305   7.315  0.00  0.00     0.290 A 
HETATM   23  O   UNK N   1      34.589  15.338   7.564  0.00  0.00    -0.275 OA
HETATM   24  O   UNK N   1      35.302  13.714   6.258  0.00  0.00    -0.260 OA
BRANCH  19  25
HETATM   25  O   UNK N   1      37.309  14.086  10.395  0.00  0.00    -0.355 OA
HETATM   26  C   UNK N   1      37.143  13.015  11.243  0.00  0.00     0.210 C 
ENDBRANCH  19  25
ENDBRANCH  16  17
ENDBRANCH  14  15
ENDBRANCH  12  13
ENDBRANCH   6  11
BRANCH   5  27
HETATM   27  O   UNK N   1      26.643  19.874   6.823  0.00  0.00    -0.390 OA
HETATM   28  H   UNK N   1      26.111  20.526   6.341  0.00  0.00     0.210 HD
ENDBRANCH   5  27
BRANCH   3  29
HETATM   29  O   UNK N   1      25.623  17.206   3.937  0.00  0.00    -0.310 OA
BRANCH  29  30
HETATM   30  C   UNK N   1      24.275  17.118   3.761  0.00  0.00     0.255 C 
HETATM   31  C   UNK N   1      23.668  15.819   3.367  0.00  0.00     0.126 C 
HETATM   32  O   UNK N   1      23.555  18.098   3.896  0.00  0.00    -0.266 OA
ENDBRANCH  29  30
ENDBRANCH   3  29
BRANCH   1  33
HETATM   33  C   UNK N   1      28.076  15.820   3.369  0.00  0.00     0.030 C 
HETATM   34  C   UNK N   1      29.364  15.198   2.851  0.00  0.00     0.007 C 
ENDBRANCH   1  33
TORSDOF 9
ENDMDL
