REMARK  9 active torsions:
REMARK  status: ('A' for Active; 'I' for Inactive)
REMARK    1  A    between atoms: C_3  and  C_2 
REMARK    2  A    between atoms: C_5  and  O_15 
REMARK    3  A    between atoms: C_7  and  O_16 
REMARK    4  A    between atoms: C_8  and  C_18 
REMARK    5  A    between atoms: C_12  and  O_15 
REMARK    6  A    between atoms: C_19  and  C_20 
REMARK    7  A    between atoms: C_21  and  C_22 
REMARK    8  A    between atoms: C_23  and  C_24 
REMARK    9  A    between atoms: C_26  and  O_32 
ROOT
HETATM    1  C   UNK N   1      -2.910   0.320   0.444  0.00  0.00     0.159 C 
HETATM    2  C   UNK N   1      -2.769   1.639   1.274  0.00  0.00     0.114 C 
HETATM    3  C   UNK N   1      -3.463   2.603   0.344  0.00  0.00     0.205 C 
HETATM    4  C   UNK N   1      -2.792   2.120  -0.950  0.00  0.00     0.116 C 
HETATM    5  C   UNK N   1      -1.333   2.612  -0.950  0.00  0.00     0.187 C 
HETATM    6  C   UNK N   1      -0.618   2.002   0.272  0.00  0.00     0.177 C 
HETATM    7  C   UNK N   1      -3.401   1.574   2.659  0.00  0.00     0.051 C 
HETATM    8  C   UNK N   1      -3.516   2.637  -2.187  0.00  0.00     0.052 C 
HETATM    9  O   UNK N   1      -2.794   0.700  -0.922  0.00  0.00    -0.367 OA
HETATM   10  O   UNK N   1      -1.410   2.081   1.451  0.00  0.00    -0.363 OA
ENDROOT
BRANCH   6  11
HETATM   11  C   UNK N   1       0.683   2.738   0.481  0.00  0.00     0.007 C 
HETATM   12  C   UNK N   1       1.929   2.249   0.377  0.00  0.00    -0.001 C 
BRANCH  12  13
HETATM   13  C   UNK N   1       2.330   0.878   0.004  0.00  0.00    -0.000 C 
HETATM   14  C   UNK N   1       1.605   0.030  -0.737  0.00  0.00     0.000 C 
BRANCH  14  15
HETATM   15  C   UNK N   1       2.033  -1.368  -0.883  0.00  0.00     0.003 C 
HETATM   16  C   UNK N   1       3.300  -1.692  -0.639  0.00  0.00     0.038 C 
BRANCH  16  17
HETATM   17  C   UNK N   1       3.749  -3.069  -0.434  0.00  0.00     0.088 A 
HETATM   18  C   UNK N   1       5.121  -3.327  -0.254  0.00  0.00     0.005 A 
HETATM   19  C   UNK N   1       5.522  -4.652   0.053  0.00  0.00     0.082 A 
HETATM   20  C   UNK N   1       6.097  -2.194  -0.375  0.00  0.00     0.054 C 
HETATM   21  C   UNK N   1       4.537  -5.633   0.156  0.00  0.00     0.119 A 
HETATM   22  C   UNK N   1       3.197  -5.299  -0.040  0.00  0.00     0.290 A 
HETATM   23  O   UNK N   1       2.854  -4.046  -0.321  0.00  0.00    -0.275 OA
HETATM   24  O   UNK N   1       2.340  -6.153   0.063  0.00  0.00    -0.260 OA
BRANCH  19  25
HETATM   25  O   UNK N   1       6.810  -5.032   0.272  0.00  0.00    -0.355 OA
HETATM   26  C   UNK N   1       7.916  -4.213   0.272  0.00  0.00     0.210 C 
ENDBRANCH  19  25
ENDBRANCH  16  17
ENDBRANCH  14  15
ENDBRANCH  12  13
ENDBRANCH   6  11
BRANCH   5  27
HETATM   27  O   UNK N   1      -1.310   4.013  -0.895  0.00  0.00    -0.390 OA
HETATM   28  H   UNK N   1      -0.463   4.484  -0.856  0.00  0.00     0.210 HD
ENDBRANCH   5  27
BRANCH   3  29
HETATM   29  O   UNK N   1      -4.836   2.392   0.302  0.00  0.00    -0.310 OA
BRANCH  29  30
HETATM   30  C   UNK N   1      -5.756   3.394   0.365  0.00  0.00     0.255 C 
HETATM   31  C   UNK N   1      -7.203   3.059   0.442  0.00  0.00     0.126 C 
HETATM   32  O   UNK N   1      -5.415   4.569   0.334  0.00  0.00    -0.266 OA
ENDBRANCH  29  30
ENDBRANCH   3  29
BRANCH   1  33
HETATM   33  C   UNK N   1      -4.255  -0.409   0.587  0.00  0.00     0.030 C 
HETATM   34  C   UNK N   1      -4.314  -1.262   1.844  0.00  0.00     0.007 C 
ENDBRANCH   1  33
TORSDOF 9
