REMARK  6 active torsions:
REMARK  status: ('A' for Active; 'I' for Inactive)
REMARK    1  A    between atoms: C_18  and  C_4 
REMARK       I    between atoms: N_19  and  C_4 
REMARK       I    between atoms: C_5  and  N_21 
REMARK       I    between atoms: N_19  and  C_5 
REMARK    2  A    between atoms: N_21  and  C_6 
REMARK    3  A    between atoms: C_9  and  O_26 
REMARK    4  A    between atoms: C_10  and  O_24 
REMARK    5  A    between atoms: C_23  and  C_10 
REMARK    6  A    between atoms: O_26  and  C_12 
ROOT
HETATM    1  C   UNK N   1      -2.387  -0.968  -0.524  0.00  0.00     0.261 C 
HETATM    2  C   UNK N   1      -0.688   0.144   0.848  0.00  0.00     0.327 C 
HETATM    3  O   UNK N   1      -2.614  -1.988  -1.154  0.00  0.00    -0.267 OA
HETATM    4  N   UNK N   1      -1.102  -0.756  -0.092  0.00  0.00    -0.275 N 
HETATM    5  O   UNK N   1      -1.492   0.733   1.551  0.00  0.00    -0.247 OA
HETATM    6  N   UNK N   1       0.625   0.402   1.039  0.00  0.00    -0.306 N 
HETATM    7  H   UNK N   1      -0.403  -1.314  -0.504  0.00  0.00     0.173 HD
HETATM    8  H   UNK N   1       0.838   1.181   1.603  0.00  0.00     0.171 HD
ENDROOT
BRANCH   6   9
HETATM    9  C   UNK N   1       1.730  -0.318   0.524  0.00  0.00     0.070 A 
HETATM   10  C   UNK N   1       2.919   0.360   0.139  0.00  0.00     0.106 A 
HETATM   11  C   UNK N   1       4.045  -0.396  -0.203  0.00  0.00     0.057 A 
HETATM   12  C   UNK N   1       4.021  -1.793  -0.176  0.00  0.00     0.040 A 
HETATM   13  C   UNK N   1       2.838  -2.453   0.171  0.00  0.00     0.021 A 
HETATM   14  C   UNK N   1       1.702  -1.721   0.523  0.00  0.00     0.033 A 
BRANCH  10  15
HETATM   15  O   UNK N   1       3.041   1.718   0.062  0.00  0.00    -0.253 OA
BRANCH  15  16
HETATM   16  C   UNK N   1       2.065   2.689   0.198  0.00  0.00     0.530 C 
HETATM   17  F   UNK N   1       1.026   2.458  -0.689  0.00  0.00    -0.144 F 
HETATM   18  F   UNK N   1       2.620   3.917  -0.102  0.00  0.00    -0.144 F 
HETATM   19  F   UNK N   1       1.596   2.739   1.498  0.00  0.00    -0.144 F 
ENDBRANCH  15  16
ENDBRANCH  10  15
BRANCH  12  20
HETATM   20  C   UNK N   1       5.247  -2.554  -0.489  0.00  0.00     0.176 C 
HETATM   21  O   UNK N   1       5.243  -3.775  -0.449  0.00  0.00    -0.646 OA
BRANCH  20  22
HETATM   22  O   UNK N   1       6.387  -1.905  -0.798  0.00  0.00    -0.773 OA
HETATM   23  H   UNK N   1       7.174  -2.365  -1.013  0.00  0.00     0.167 HD
ENDBRANCH  20  22
ENDBRANCH  12  20
ENDBRANCH   6   9
BRANCH   1  24
HETATM   24  C   UNK N   1      -3.517   0.010  -0.308  0.00  0.00     0.057 A 
HETATM   25  C   UNK N   1      -3.244   1.387  -0.214  0.00  0.00     0.064 A 
HETATM   26  C   UNK N   1      -4.257   2.319   0.004  0.00  0.00     0.155 A 
HETATM   27  C   UNK N   1      -5.577   1.891   0.121  0.00  0.00     0.156 A 
HETATM   28  F   UNK N   1      -3.950   3.635   0.114  0.00  0.00    -0.203 F 
HETATM   29  C   UNK N   1      -5.882   0.535  -0.005  0.00  0.00     0.070 A 
HETATM   30  F   UNK N   1      -6.566   2.788   0.355  0.00  0.00    -0.203 F 
HETATM   31  C   UNK N   1      -4.871  -0.408  -0.231  0.00  0.00     0.052 A 
HETATM   32 Cl   UNK N   1      -5.350  -2.097  -0.336  0.00  0.00    -0.083 Cl
ENDBRANCH   1  24
TORSDOF 6
