MODEL 1
REMARK VINA RESULT:      -7.8      0.000      0.000
REMARK  6 active torsions:
REMARK  status: ('A' for Active; 'I' for Inactive)
REMARK    1  A    between atoms: C_18  and  C_4 
REMARK       I    between atoms: N_19  and  C_4 
REMARK       I    between atoms: C_5  and  N_21 
REMARK       I    between atoms: N_19  and  C_5 
REMARK    2  A    between atoms: N_21  and  C_6 
REMARK    3  A    between atoms: C_9  and  O_26 
REMARK    4  A    between atoms: C_10  and  O_24 
REMARK    5  A    between atoms: C_23  and  C_10 
REMARK    6  A    between atoms: O_26  and  C_12 
ROOT
HETATM    1  C   UNK N   1      27.749  24.067  -3.364  0.00  0.00     0.261 C 
HETATM    2  C   UNK N   1      29.652  24.339  -4.884  0.00  0.00     0.327 C 
HETATM    3  O   UNK N   1      27.415  23.567  -2.302  0.00  0.00    -0.267 OA
HETATM    4  N   UNK N   1      28.966  23.708  -3.885  0.00  0.00    -0.275 N 
HETATM    5  O   UNK N   1      29.307  25.437  -5.287  0.00  0.00    -0.247 OA
HETATM    6  N   UNK N   1      30.742  23.773  -5.449  0.00  0.00    -0.306 N 
HETATM    7  H   UNK N   1      29.392  22.910  -3.496  0.00  0.00     0.173 HD
HETATM    8  H   UNK N   1      31.076  24.199  -6.272  0.00  0.00     0.171 HD
ENDROOT
BRANCH   6   9
HETATM    9  C   UNK N   1      31.461  22.641  -4.995  0.00  0.00     0.070 A 
HETATM   10  C   UNK N   1      30.999  21.328  -5.283  0.00  0.00     0.106 A 
HETATM   11  C   UNK N   1      31.820  20.240  -4.967  0.00  0.00     0.057 A 
HETATM   12  C   UNK N   1      33.073  20.420  -4.377  0.00  0.00     0.040 A 
HETATM   13  C   UNK N   1      33.507  21.713  -4.065  0.00  0.00     0.021 A 
HETATM   14  C   UNK N   1      32.708  22.816  -4.376  0.00  0.00     0.033 A 
BRANCH  10  15
HETATM   15  O   UNK N   1      29.785  21.043  -5.841  0.00  0.00    -0.253 OA
BRANCH  15  16
HETATM   16  C   UNK N   1      29.499  20.570  -7.109  0.00  0.00     0.530 C 
HETATM   17  F   UNK N   1      29.613  19.190  -7.147  0.00  0.00    -0.144 F 
HETATM   18  F   UNK N   1      30.416  21.101  -7.994  0.00  0.00    -0.144 F 
HETATM   19  F   UNK N   1      28.237  20.968  -7.511  0.00  0.00    -0.144 F 
ENDBRANCH  15  16
ENDBRANCH  10  15
BRANCH  12  20
HETATM   20  C   UNK N   1      33.934  19.251  -4.111  0.00  0.00     0.176 C 
HETATM   21  O   UNK N   1      35.135  19.306  -4.326  0.00  0.00    -0.646 OA
BRANCH  20  22
HETATM   22  O   UNK N   1      33.396  18.104  -3.651  0.00  0.00    -0.773 OA
HETATM   23  H   UNK N   1      33.103  18.016  -2.766  0.00  0.00     0.167 HD
ENDBRANCH  20  22
ENDBRANCH  12  20
ENDBRANCH   6   9
BRANCH   1  24
HETATM   24  C   UNK N   1      26.783  25.000  -4.055  0.00  0.00     0.057 A 
HETATM   25  C   UNK N   1      26.538  26.277  -3.519  0.00  0.00     0.064 A 
HETATM   26  C   UNK N   1      25.639  27.160  -4.116  0.00  0.00     0.155 A 
HETATM   27  C   UNK N   1      24.971  26.784  -5.279  0.00  0.00     0.156 A 
HETATM   28  F   UNK N   1      25.412  28.373  -3.555  0.00  0.00    -0.203 F 
HETATM   29  C   UNK N   1      25.222  25.537  -5.853  0.00  0.00     0.070 A 
HETATM   30  F   UNK N   1      24.079  27.627  -5.854  0.00  0.00    -0.203 F 
HETATM   31  C   UNK N   1      26.128  24.647  -5.264  0.00  0.00     0.052 A 
HETATM   32 Cl   UNK N   1      26.347  23.084  -6.040  0.00  0.00    -0.083 Cl
ENDBRANCH   1  24
TORSDOF 6
ENDMDL
MODEL 2
REMARK VINA RESULT:      -7.8     15.835     17.091
REMARK  6 active torsions:
REMARK  status: ('A' for Active; 'I' for Inactive)
REMARK    1  A    between atoms: C_18  and  C_4 
REMARK       I    between atoms: N_19  and  C_4 
REMARK       I    between atoms: C_5  and  N_21 
REMARK       I    between atoms: N_19  and  C_5 
REMARK    2  A    between atoms: N_21  and  C_6 
REMARK    3  A    between atoms: C_9  and  O_26 
REMARK    4  A    between atoms: C_10  and  O_24 
REMARK    5  A    between atoms: C_23  and  C_10 
REMARK    6  A    between atoms: O_26  and  C_12 
ROOT
HETATM    1  C   UNK N   1      22.724  15.305   4.703  0.00  0.00     0.261 C 
HETATM    2  C   UNK N   1      21.346  13.473   5.569  0.00  0.00     0.327 C 
HETATM    3  O   UNK N   1      23.810  15.849   4.827  0.00  0.00    -0.267 OA
HETATM    4  N   UNK N   1      22.355  14.389   5.655  0.00  0.00    -0.275 N 
HETATM    5  O   UNK N   1      20.780  13.260   4.509  0.00  0.00    -0.247 OA
HETATM    6  N   UNK N   1      20.948  12.765   6.649  0.00  0.00    -0.306 N 
HETATM    7  H   UNK N   1      22.876  14.391   6.491  0.00  0.00     0.173 HD
HETATM    8  H   UNK N   1      20.109  12.259   6.554  0.00  0.00     0.171 HD
ENDROOT
BRANCH   6   9
HETATM    9  C   UNK N   1      21.599  12.666   7.903  0.00  0.00     0.070 A 
HETATM   10  C   UNK N   1      21.036  13.269   9.060  0.00  0.00     0.106 A 
HETATM   11  C   UNK N   1      21.615  13.006  10.306  0.00  0.00     0.057 A 
HETATM   12  C   UNK N   1      22.729  12.172  10.431  0.00  0.00     0.040 A 
HETATM   13  C   UNK N   1      23.298  11.609   9.285  0.00  0.00     0.021 A 
HETATM   14  C   UNK N   1      22.734  11.850   8.030  0.00  0.00     0.033 A 
BRANCH  10  15
HETATM   15  O   UNK N   1      19.962  14.112   9.045  0.00  0.00    -0.253 OA
BRANCH  15  16
HETATM   16  C   UNK N   1      19.920  15.463   8.748  0.00  0.00     0.530 C 
HETATM   17  F   UNK N   1      21.093  16.083   9.148  0.00  0.00    -0.144 F 
HETATM   18  F   UNK N   1      18.874  16.035   9.443  0.00  0.00    -0.144 F 
HETATM   19  F   UNK N   1      19.697  15.665   7.398  0.00  0.00    -0.144 F 
ENDBRANCH  15  16
ENDBRANCH  10  15
BRANCH  12  20
HETATM   20  C   UNK N   1      23.276  11.874  11.770  0.00  0.00     0.176 C 
HETATM   21  O   UNK N   1      24.474  11.977  11.984  0.00  0.00    -0.646 OA
BRANCH  20  22
HETATM   22  O   UNK N   1      22.459  11.463  12.760  0.00  0.00    -0.773 OA
HETATM   23  H   UNK N   1      21.900  10.717  12.661  0.00  0.00     0.167 HD
ENDBRANCH  20  22
ENDBRANCH  12  20
ENDBRANCH   6   9
BRANCH   1  24
HETATM   24  C   UNK N   1      21.844  15.713   3.546  0.00  0.00     0.057 A 
HETATM   25  C   UNK N   1      20.893  16.736   3.715  0.00  0.00     0.064 A 
HETATM   26  C   UNK N   1      20.049  17.128   2.677  0.00  0.00     0.155 A 
HETATM   27  C   UNK N   1      20.149  16.509   1.434  0.00  0.00     0.156 A 
HETATM   28  F   UNK N   1      19.128  18.100   2.888  0.00  0.00    -0.203 F 
HETATM   29  C   UNK N   1      21.109  15.517   1.226  0.00  0.00     0.070 A 
HETATM   30  F   UNK N   1      19.319  16.868   0.425  0.00  0.00    -0.203 F 
HETATM   31  C   UNK N   1      21.966  15.122   2.262  0.00  0.00     0.052 A 
HETATM   32 Cl   UNK N   1      23.115  13.837   1.914  0.00  0.00    -0.083 Cl
ENDBRANCH   1  24
TORSDOF 6
ENDMDL
MODEL 3
REMARK VINA RESULT:      -7.7     11.180     13.981
REMARK  6 active torsions:
REMARK  status: ('A' for Active; 'I' for Inactive)
REMARK    1  A    between atoms: C_18  and  C_4 
REMARK       I    between atoms: N_19  and  C_4 
REMARK       I    between atoms: C_5  and  N_21 
REMARK       I    between atoms: N_19  and  C_5 
REMARK    2  A    between atoms: N_21  and  C_6 
REMARK    3  A    between atoms: C_9  and  O_26 
REMARK    4  A    between atoms: C_10  and  O_24 
REMARK    5  A    between atoms: C_23  and  C_10 
REMARK    6  A    between atoms: O_26  and  C_12 
ROOT
HETATM    1  C   UNK N   1      27.812  18.811   6.627  0.00  0.00     0.261 C 
HETATM    2  C   UNK N   1      26.266  17.087   5.825  0.00  0.00     0.327 C 
HETATM    3  O   UNK N   1      27.859  19.949   7.065  0.00  0.00    -0.267 OA
HETATM    4  N   UNK N   1      26.622  18.377   6.100  0.00  0.00    -0.275 N 
HETATM    5  O   UNK N   1      26.940  16.151   6.220  0.00  0.00    -0.247 OA
HETATM    6  N   UNK N   1      25.149  16.806   5.118  0.00  0.00    -0.306 N 
HETATM    7  H   UNK N   1      25.953  19.070   5.899  0.00  0.00     0.173 HD
HETATM    8  H   UNK N   1      25.051  15.875   4.810  0.00  0.00     0.171 HD
ENDROOT
BRANCH   6   9
HETATM    9  C   UNK N   1      24.102  17.693   4.768  0.00  0.00     0.070 A 
HETATM   10  C   UNK N   1      24.317  18.724   3.813  0.00  0.00     0.106 A 
HETATM   11  C   UNK N   1      23.220  19.470   3.368  0.00  0.00     0.057 A 
HETATM   12  C   UNK N   1      21.930  19.223   3.844  0.00  0.00     0.040 A 
HETATM   13  C   UNK N   1      21.731  18.230   4.809  0.00  0.00     0.021 A 
HETATM   14  C   UNK N   1      22.809  17.468   5.264  0.00  0.00     0.033 A 
BRANCH  10  15
HETATM   15  O   UNK N   1      25.538  19.057   3.299  0.00  0.00    -0.253 OA
BRANCH  15  16
HETATM   16  C   UNK N   1      26.239  20.244   3.419  0.00  0.00     0.530 C 
HETATM   17  F   UNK N   1      25.826  20.937   4.545  0.00  0.00    -0.144 F 
HETATM   18  F   UNK N   1      25.973  21.026   2.312  0.00  0.00    -0.144 F 
HETATM   19  F   UNK N   1      27.601  20.011   3.459  0.00  0.00    -0.144 F 
ENDBRANCH  15  16
ENDBRANCH  10  15
BRANCH  12  20
HETATM   20  C   UNK N   1      20.790  19.994   3.308  0.00  0.00     0.176 C 
HETATM   21  O   UNK N   1      19.730  19.438   3.062  0.00  0.00    -0.646 OA
BRANCH  20  22
HETATM   22  O   UNK N   1      20.919  21.312   3.063  0.00  0.00    -0.773 OA
HETATM   23  H   UNK N   1      20.256  21.927   3.306  0.00  0.00     0.167 HD
ENDBRANCH  20  22
ENDBRANCH  12  20
ENDBRANCH   6   9
BRANCH   1  24
HETATM   24  C   UNK N   1      29.073  17.980   6.649  0.00  0.00     0.057 A 
HETATM   25  C   UNK N   1      29.774  17.739   5.453  0.00  0.00     0.064 A 
HETATM   26  C   UNK N   1      30.931  16.962   5.429  0.00  0.00     0.155 A 
HETATM   27  C   UNK N   1      31.422  16.416   6.612  0.00  0.00     0.156 A 
HETATM   28  F   UNK N   1      31.564  16.732   4.253  0.00  0.00    -0.203 F 
HETATM   29  C   UNK N   1      30.768  16.669   7.819  0.00  0.00     0.070 A 
HETATM   30  F   UNK N   1      32.534  15.641   6.595  0.00  0.00    -0.203 F 
HETATM   31  C   UNK N   1      29.609  17.454   7.854  0.00  0.00     0.052 A 
HETATM   32 Cl   UNK N   1      28.834  17.684   9.416  0.00  0.00    -0.083 Cl
ENDBRANCH   1  24
TORSDOF 6
ENDMDL
MODEL 4
REMARK VINA RESULT:      -7.7     18.822     21.885
REMARK  6 active torsions:
REMARK  status: ('A' for Active; 'I' for Inactive)
REMARK    1  A    between atoms: C_18  and  C_4 
REMARK       I    between atoms: N_19  and  C_4 
REMARK       I    between atoms: C_5  and  N_21 
REMARK       I    between atoms: N_19  and  C_5 
REMARK    2  A    between atoms: N_21  and  C_6 
REMARK    3  A    between atoms: C_9  and  O_26 
REMARK    4  A    between atoms: C_10  and  O_24 
REMARK    5  A    between atoms: C_23  and  C_10 
REMARK    6  A    between atoms: O_26  and  C_12 
ROOT
HETATM    1  C   UNK N   1      36.425  13.764  14.286  0.00  0.00     0.261 C 
HETATM    2  C   UNK N   1      34.905  13.081  12.489  0.00  0.00     0.327 C 
HETATM    3  O   UNK N   1      36.867  14.741  14.868  0.00  0.00    -0.267 OA
HETATM    4  N   UNK N   1      35.713  13.974  13.132  0.00  0.00    -0.275 N 
HETATM    5  O   UNK N   1      34.586  12.029  13.018  0.00  0.00    -0.247 OA
HETATM    6  N   UNK N   1      34.421  13.338  11.254  0.00  0.00    -0.306 N 
HETATM    7  H   UNK N   1      35.794  14.867  12.723  0.00  0.00     0.173 HD
HETATM    8  H   UNK N   1      33.995  12.582  10.787  0.00  0.00     0.171 HD
ENDROOT
BRANCH   6   9
HETATM    9  C   UNK N   1      34.454  14.567  10.552  0.00  0.00     0.070 A 
HETATM   10  C   UNK N   1      35.694  15.190  10.242  0.00  0.00     0.106 A 
HETATM   11  C   UNK N   1      35.695  16.310   9.404  0.00  0.00     0.057 A 
HETATM   12  C   UNK N   1      34.509  16.824   8.874  0.00  0.00     0.040 A 
HETATM   13  C   UNK N   1      33.290  16.227   9.210  0.00  0.00     0.021 A 
HETATM   14  C   UNK N   1      33.263  15.103  10.039  0.00  0.00     0.033 A 
BRANCH  10  15
HETATM   15  O   UNK N   1      36.905  14.778  10.723  0.00  0.00    -0.253 OA
BRANCH  15  16
HETATM   16  C   UNK N   1      37.813  13.900  10.159  0.00  0.00     0.530 C 
HETATM   17  F   UNK N   1      38.811  14.596   9.496  0.00  0.00    -0.144 F 
HETATM   18  F   UNK N   1      37.151  13.115   9.235  0.00  0.00    -0.144 F 
HETATM   19  F   UNK N   1      38.354  13.065  11.119  0.00  0.00    -0.144 F 
ENDBRANCH  15  16
ENDBRANCH  10  15
BRANCH  12  20
HETATM   20  C   UNK N   1      34.557  17.973   7.948  0.00  0.00     0.176 C 
HETATM   21  O   UNK N   1      34.885  19.079   8.352  0.00  0.00    -0.646 OA
BRANCH  20  22
HETATM   22  O   UNK N   1      34.217  17.815   6.653  0.00  0.00    -0.773 OA
HETATM   23  H   UNK N   1      34.283  16.985   6.223  0.00  0.00     0.167 HD
ENDBRANCH  20  22
ENDBRANCH  12  20
ENDBRANCH   6   9
BRANCH   1  24
HETATM   24  C   UNK N   1      36.733  12.395  14.844  0.00  0.00     0.057 A 
HETATM   25  C   UNK N   1      37.715  11.594  14.233  0.00  0.00     0.064 A 
HETATM   26  C   UNK N   1      38.015  10.318  14.706  0.00  0.00     0.155 A 
HETATM   27  C   UNK N   1      37.342   9.817  15.818  0.00  0.00     0.156 A 
HETATM   28  F   UNK N   1      38.950   9.567  14.074  0.00  0.00    -0.203 F 
HETATM   29  C   UNK N   1      36.390  10.604  16.467  0.00  0.00     0.070 A 
HETATM   30  F   UNK N   1      37.611   8.569  16.272  0.00  0.00    -0.203 F 
HETATM   31  C   UNK N   1      36.087  11.890  16.002  0.00  0.00     0.052 A 
HETATM   32 Cl   UNK N   1      34.844  12.789  16.863  0.00  0.00    -0.083 Cl
ENDBRANCH   1  24
TORSDOF 6
ENDMDL
MODEL 5
REMARK VINA RESULT:      -7.5     12.970     15.819
REMARK  6 active torsions:
REMARK  status: ('A' for Active; 'I' for Inactive)
REMARK    1  A    between atoms: C_18  and  C_4 
REMARK       I    between atoms: N_19  and  C_4 
REMARK       I    between atoms: C_5  and  N_21 
REMARK       I    between atoms: N_19  and  C_5 
REMARK    2  A    between atoms: N_21  and  C_6 
REMARK    3  A    between atoms: C_9  and  O_26 
REMARK    4  A    between atoms: C_10  and  O_24 
REMARK    5  A    between atoms: C_23  and  C_10 
REMARK    6  A    between atoms: O_26  and  C_12 
ROOT
HETATM    1  C   UNK N   1      33.853  17.809   8.428  0.00  0.00     0.261 C 
HETATM    2  C   UNK N   1      31.694  16.649   8.455  0.00  0.00     0.327 C 
HETATM    3  O   UNK N   1      34.367  18.904   8.264  0.00  0.00    -0.267 OA
HETATM    4  N   UNK N   1      32.528  17.670   8.097  0.00  0.00    -0.275 N 
HETATM    5  O   UNK N   1      32.027  15.831   9.296  0.00  0.00    -0.247 OA
HETATM    6  N   UNK N   1      30.469  16.519   7.899  0.00  0.00    -0.306 N 
HETATM    7  H   UNK N   1      32.137  18.383   7.543  0.00  0.00     0.173 HD
HETATM    8  H   UNK N   1      30.000  15.670   8.072  0.00  0.00     0.171 HD
ENDROOT
BRANCH   6   9
HETATM    9  C   UNK N   1      29.781  17.461   7.096  0.00  0.00     0.070 A 
HETATM   10  C   UNK N   1      29.827  17.373   5.678  0.00  0.00     0.106 A 
HETATM   11  C   UNK N   1      29.001  18.213   4.924  0.00  0.00     0.057 A 
HETATM   12  C   UNK N   1      28.142  19.131   5.534  0.00  0.00     0.040 A 
HETATM   13  C   UNK N   1      28.128  19.236   6.929  0.00  0.00     0.021 A 
HETATM   14  C   UNK N   1      28.938  18.403   7.704  0.00  0.00     0.033 A 
BRANCH  10  15
HETATM   15  O   UNK N   1      30.642  16.525   4.984  0.00  0.00    -0.253 OA
BRANCH  15  16
HETATM   16  C   UNK N   1      31.813  16.805   4.303  0.00  0.00     0.530 C 
HETATM   17  F   UNK N   1      31.533  17.235   3.016  0.00  0.00    -0.144 F 
HETATM   18  F   UNK N   1      32.561  15.648   4.216  0.00  0.00    -0.144 F 
HETATM   19  F   UNK N   1      32.564  17.748   4.981  0.00  0.00    -0.144 F 
ENDBRANCH  15  16
ENDBRANCH  10  15
BRANCH  12  20
HETATM   20  C   UNK N   1      27.245  19.960   4.705  0.00  0.00     0.176 C 
HETATM   21  O   UNK N   1      26.298  20.542   5.212  0.00  0.00    -0.646 OA
BRANCH  20  22
HETATM   22  O   UNK N   1      27.452  20.062   3.377  0.00  0.00    -0.773 OA
HETATM   23  H   UNK N   1      28.150  20.578   3.025  0.00  0.00     0.167 HD
ENDBRANCH  20  22
ENDBRANCH  12  20
ENDBRANCH   6   9
BRANCH   1  24
HETATM   24  C   UNK N   1      34.716  16.677   8.931  0.00  0.00     0.057 A 
HETATM   25  C   UNK N   1      35.085  16.626  10.287  0.00  0.00     0.064 A 
HETATM   26  C   UNK N   1      35.896  15.608  10.786  0.00  0.00     0.155 A 
HETATM   27  C   UNK N   1      36.348  14.604   9.933  0.00  0.00     0.156 A 
HETATM   28  F   UNK N   1      36.250  15.609  12.094  0.00  0.00    -0.203 F 
HETATM   29  C   UNK N   1      35.968  14.609   8.591  0.00  0.00     0.070 A 
HETATM   30  F   UNK N   1      37.156  13.623  10.404  0.00  0.00    -0.203 F 
HETATM   31  C   UNK N   1      35.148  15.624   8.082  0.00  0.00     0.052 A 
HETATM   32 Cl   UNK N   1      34.755  15.565   6.369  0.00  0.00    -0.083 Cl
ENDBRANCH   1  24
TORSDOF 6
ENDMDL
MODEL 6
REMARK VINA RESULT:      -7.5     12.048     13.222
REMARK  6 active torsions:
REMARK  status: ('A' for Active; 'I' for Inactive)
REMARK    1  A    between atoms: C_18  and  C_4 
REMARK       I    between atoms: N_19  and  C_4 
REMARK       I    between atoms: C_5  and  N_21 
REMARK       I    between atoms: N_19  and  C_5 
REMARK    2  A    between atoms: N_21  and  C_6 
REMARK    3  A    between atoms: C_9  and  O_26 
REMARK    4  A    between atoms: C_10  and  O_24 
REMARK    5  A    between atoms: C_23  and  C_10 
REMARK    6  A    between atoms: O_26  and  C_12 
ROOT
HETATM    1  C   UNK N   1      27.482  19.017   5.526  0.00  0.00     0.261 C 
HETATM    2  C   UNK N   1      29.110  17.268   4.978  0.00  0.00     0.327 C 
HETATM    3  O   UNK N   1      27.385  20.159   5.943  0.00  0.00    -0.267 OA
HETATM    4  N   UNK N   1      28.706  18.403   5.621  0.00  0.00    -0.275 N 
HETATM    5  O   UNK N   1      28.445  16.787   4.076  0.00  0.00    -0.247 OA
HETATM    6  N   UNK N   1      30.264  16.649   5.310  0.00  0.00    -0.306 N 
HETATM    7  H   UNK N   1      29.364  18.828   6.218  0.00  0.00     0.173 HD
HETATM    8  H   UNK N   1      30.401  15.751   4.930  0.00  0.00     0.171 HD
ENDROOT
BRANCH   6   9
HETATM    9  C   UNK N   1      31.300  17.141   6.140  0.00  0.00     0.070 A 
HETATM   10  C   UNK N   1      31.113  17.245   7.546  0.00  0.00     0.106 A 
HETATM   11  C   UNK N   1      32.210  17.572   8.349  0.00  0.00     0.057 A 
HETATM   12  C   UNK N   1      33.474  17.800   7.799  0.00  0.00     0.040 A 
HETATM   13  C   UNK N   1      33.643  17.730   6.413  0.00  0.00     0.021 A 
HETATM   14  C   UNK N   1      32.565  17.398   5.590  0.00  0.00     0.033 A 
BRANCH  10  15
HETATM   15  O   UNK N   1      29.917  17.060   8.180  0.00  0.00    -0.253 OA
BRANCH  15  16
HETATM   16  C   UNK N   1      29.206  17.944   8.972  0.00  0.00     0.530 C 
HETATM   17  F   UNK N   1      29.517  17.753  10.309  0.00  0.00    -0.144 F 
HETATM   18  F   UNK N   1      27.858  17.698   8.806  0.00  0.00    -0.144 F 
HETATM   19  F   UNK N   1      29.451  19.252   8.596  0.00  0.00    -0.144 F 
ENDBRANCH  15  16
ENDBRANCH  10  15
BRANCH  12  20
HETATM   20  C   UNK N   1      34.619  18.088   8.686  0.00  0.00     0.176 C 
HETATM   21  O   UNK N   1      34.897  17.328   9.602  0.00  0.00    -0.646 OA
BRANCH  20  22
HETATM   22  O   UNK N   1      35.352  19.205   8.506  0.00  0.00    -0.773 OA
HETATM   23  H   UNK N   1      35.082  20.033   8.851  0.00  0.00     0.167 HD
ENDBRANCH  20  22
ENDBRANCH  12  20
ENDBRANCH   6   9
BRANCH   1  24
HETATM   24  C   UNK N   1      26.245  18.342   4.984  0.00  0.00     0.057 A 
HETATM   25  C   UNK N   1      25.737  17.194   5.619  0.00  0.00     0.064 A 
HETATM   26  C   UNK N   1      24.609  16.532   5.138  0.00  0.00     0.155 A 
HETATM   27  C   UNK N   1      23.953  17.015   4.009  0.00  0.00     0.156 A 
HETATM   28  F   UNK N   1      24.165  15.414   5.764  0.00  0.00    -0.203 F 
HETATM   29  C   UNK N   1      24.412  18.172   3.380  0.00  0.00     0.070 A 
HETATM   30  F   UNK N   1      22.868  16.364   3.521  0.00  0.00    -0.203 F 
HETATM   31  C   UNK N   1      25.541  18.848   3.861  0.00  0.00     0.052 A 
HETATM   32 Cl   UNK N   1      26.066  20.275   2.976  0.00  0.00    -0.083 Cl
ENDBRANCH   1  24
TORSDOF 6
ENDMDL
MODEL 7
REMARK VINA RESULT:      -7.4     11.732     12.943
REMARK  6 active torsions:
REMARK  status: ('A' for Active; 'I' for Inactive)
REMARK    1  A    between atoms: C_18  and  C_4 
REMARK       I    between atoms: N_19  and  C_4 
REMARK       I    between atoms: C_5  and  N_21 
REMARK       I    between atoms: N_19  and  C_5 
REMARK    2  A    between atoms: N_21  and  C_6 
REMARK    3  A    between atoms: C_9  and  O_26 
REMARK    4  A    between atoms: C_10  and  O_24 
REMARK    5  A    between atoms: C_23  and  C_10 
REMARK    6  A    between atoms: O_26  and  C_12 
ROOT
HETATM    1  C   UNK N   1      22.793  18.207   5.392  0.00  0.00     0.261 C 
HETATM    2  C   UNK N   1      25.034  18.260   4.401  0.00  0.00     0.327 C 
HETATM    3  O   UNK N   1      22.186  18.383   6.435  0.00  0.00    -0.267 OA
HETATM    4  N   UNK N   1      24.163  18.161   5.449  0.00  0.00    -0.275 N 
HETATM    5  O   UNK N   1      24.650  18.602   3.295  0.00  0.00    -0.247 OA
HETATM    6  N   UNK N   1      26.350  17.994   4.559  0.00  0.00    -0.306 N 
HETATM    7  H   UNK N   1      24.561  18.045   6.342  0.00  0.00     0.173 HD
HETATM    8  H   UNK N   1      26.880  17.916   3.732  0.00  0.00     0.171 HD
ENDROOT
BRANCH   6   9
HETATM    9  C   UNK N   1      27.056  17.818   5.773  0.00  0.00     0.070 A 
HETATM   10  C   UNK N   1      27.714  18.915   6.393  0.00  0.00     0.106 A 
HETATM   11  C   UNK N   1      28.254  18.742   7.672  0.00  0.00     0.057 A 
HETATM   12  C   UNK N   1      28.161  17.520   8.343  0.00  0.00     0.040 A 
HETATM   13  C   UNK N   1      27.542  16.436   7.713  0.00  0.00     0.021 A 
HETATM   14  C   UNK N   1      26.990  16.585   6.439  0.00  0.00     0.033 A 
BRANCH  10  15
HETATM   15  O   UNK N   1      27.874  20.143   5.817  0.00  0.00    -0.253 OA
BRANCH  15  16
HETATM   16  C   UNK N   1      27.063  21.260   5.907  0.00  0.00     0.530 C 
HETATM   17  F   UNK N   1      25.938  20.981   6.666  0.00  0.00    -0.144 F 
HETATM   18  F   UNK N   1      26.648  21.607   4.637  0.00  0.00    -0.144 F 
HETATM   19  F   UNK N   1      27.756  22.333   6.437  0.00  0.00    -0.144 F 
ENDBRANCH  15  16
ENDBRANCH  10  15
BRANCH  12  20
HETATM   20  C   UNK N   1      28.694  17.394   9.714  0.00  0.00     0.176 C 
HETATM   21  O   UNK N   1      28.250  16.546  10.473  0.00  0.00    -0.646 OA
BRANCH  20  22
HETATM   22  O   UNK N   1      29.658  18.230  10.146  0.00  0.00    -0.773 OA
HETATM   23  H   UNK N   1      30.292  18.596   9.562  0.00  0.00     0.167 HD
ENDBRANCH  20  22
ENDBRANCH  12  20
ENDBRANCH   6   9
BRANCH   1  24
HETATM   24  C   UNK N   1      21.998  18.001   4.124  0.00  0.00     0.057 A 
HETATM   25  C   UNK N   1      21.457  19.110   3.448  0.00  0.00     0.064 A 
HETATM   26  C   UNK N   1      20.702  18.960   2.286  0.00  0.00     0.155 A 
HETATM   27  C   UNK N   1      20.482  17.688   1.764  0.00  0.00     0.156 A 
HETATM   28  F   UNK N   1      20.177  20.052   1.678  0.00  0.00    -0.203 F 
HETATM   29  C   UNK N   1      21.038  16.573   2.393  0.00  0.00     0.070 A 
HETATM   30  F   UNK N   1      19.731  17.531   0.647  0.00  0.00    -0.203 F 
HETATM   31  C   UNK N   1      21.803  16.715   3.557  0.00  0.00     0.052 A 
HETATM   32 Cl   UNK N   1      22.428  15.247   4.298  0.00  0.00    -0.083 Cl
ENDBRANCH   1  24
TORSDOF 6
ENDMDL
MODEL 8
REMARK VINA RESULT:      -7.4     18.553     21.534
REMARK  6 active torsions:
REMARK  status: ('A' for Active; 'I' for Inactive)
REMARK    1  A    between atoms: C_18  and  C_4 
REMARK       I    between atoms: N_19  and  C_4 
REMARK       I    between atoms: C_5  and  N_21 
REMARK       I    between atoms: N_19  and  C_5 
REMARK    2  A    between atoms: N_21  and  C_6 
REMARK    3  A    between atoms: C_9  and  O_26 
REMARK    4  A    between atoms: C_10  and  O_24 
REMARK    5  A    between atoms: C_23  and  C_10 
REMARK    6  A    between atoms: O_26  and  C_12 
ROOT
HETATM    1  C   UNK N   1      36.467  13.948  14.371  0.00  0.00     0.261 C 
HETATM    2  C   UNK N   1      34.894  13.284  12.613  0.00  0.00     0.327 C 
HETATM    3  O   UNK N   1      37.028  14.914  14.860  0.00  0.00    -0.267 OA
HETATM    4  N   UNK N   1      35.807  14.126  13.181  0.00  0.00    -0.275 N 
HETATM    5  O   UNK N   1      34.427  12.348  13.239  0.00  0.00    -0.247 OA
HETATM    6  N   UNK N   1      34.468  13.469  11.343  0.00  0.00    -0.306 N 
HETATM    7  H   UNK N   1      36.014  14.950  12.684  0.00  0.00     0.173 HD
HETATM    8  H   UNK N   1      33.950  12.731  10.946  0.00  0.00     0.171 HD
ENDROOT
BRANCH   6   9
HETATM    9  C   UNK N   1      34.678  14.600  10.518  0.00  0.00     0.070 A 
HETATM   10  C   UNK N   1      34.357  14.555   9.134  0.00  0.00     0.106 A 
HETATM   11  C   UNK N   1      34.417  15.738   8.390  0.00  0.00     0.057 A 
HETATM   12  C   UNK N   1      34.787  16.951   8.977  0.00  0.00     0.040 A 
HETATM   13  C   UNK N   1      35.135  16.981  10.331  0.00  0.00     0.021 A 
HETATM   14  C   UNK N   1      35.076  15.815  11.097  0.00  0.00     0.033 A 
BRANCH  10  15
HETATM   15  O   UNK N   1      34.002  13.421   8.462  0.00  0.00    -0.253 OA
BRANCH  15  16
HETATM   16  C   UNK N   1      34.813  12.442   7.917  0.00  0.00     0.530 C 
HETATM   17  F   UNK N   1      34.427  12.162   6.616  0.00  0.00    -0.144 F 
HETATM   18  F   UNK N   1      34.674  11.288   8.663  0.00  0.00    -0.144 F 
HETATM   19  F   UNK N   1      36.143  12.821   7.962  0.00  0.00    -0.144 F 
ENDBRANCH  15  16
ENDBRANCH  10  15
BRANCH  12  20
HETATM   20  C   UNK N   1      34.784  18.188   8.170  0.00  0.00     0.176 C 
HETATM   21  O   UNK N   1      34.311  18.189   7.044  0.00  0.00    -0.646 OA
BRANCH  20  22
HETATM   22  O   UNK N   1      35.324  19.319   8.663  0.00  0.00    -0.773 OA
HETATM   23  H   UNK N   1      34.867  19.858   9.278  0.00  0.00     0.167 HD
ENDBRANCH  20  22
ENDBRANCH  12  20
ENDBRANCH   6   9
BRANCH   1  24
HETATM   24  C   UNK N   1      36.578  12.618  15.078  0.00  0.00     0.057 A 
HETATM   25  C   UNK N   1      37.474  11.644  14.602  0.00  0.00     0.064 A 
HETATM   26  C   UNK N   1      37.592  10.398  15.216  0.00  0.00     0.155 A 
HETATM   27  C   UNK N   1      36.818  10.102  16.335  0.00  0.00     0.156 A 
HETATM   28  F   UNK N   1      38.449   9.476  14.711  0.00  0.00    -0.203 F 
HETATM   29  C   UNK N   1      35.947  11.063  16.852  0.00  0.00     0.070 A 
HETATM   30  F   UNK N   1      36.910   8.885  16.925  0.00  0.00    -0.203 F 
HETATM   31  C   UNK N   1      35.828  12.320  16.246  0.00  0.00     0.052 A 
HETATM   32 Cl   UNK N   1      34.675  13.449  16.946  0.00  0.00    -0.083 Cl
ENDBRANCH   1  24
TORSDOF 6
ENDMDL
MODEL 9
REMARK VINA RESULT:      -7.1     11.099     12.095
REMARK  6 active torsions:
REMARK  status: ('A' for Active; 'I' for Inactive)
REMARK    1  A    between atoms: C_18  and  C_4 
REMARK       I    between atoms: N_19  and  C_4 
REMARK       I    between atoms: C_5  and  N_21 
REMARK       I    between atoms: N_19  and  C_5 
REMARK    2  A    between atoms: N_21  and  C_6 
REMARK    3  A    between atoms: C_9  and  O_26 
REMARK    4  A    between atoms: C_10  and  O_24 
REMARK    5  A    between atoms: C_23  and  C_10 
REMARK    6  A    between atoms: O_26  and  C_12 
ROOT
HETATM    1  C   UNK N   1      26.935  19.587   5.157  0.00  0.00     0.261 C 
HETATM    2  C   UNK N   1      28.241  17.922   3.921  0.00  0.00     0.327 C 
HETATM    3  O   UNK N   1      27.039  20.583   5.855  0.00  0.00    -0.267 OA
HETATM    4  N   UNK N   1      28.076  18.875   4.886  0.00  0.00    -0.275 N 
HETATM    5  O   UNK N   1      27.399  17.752   3.056  0.00  0.00    -0.247 OA
HETATM    6  N   UNK N   1      29.348  17.147   3.886  0.00  0.00    -0.306 N 
HETATM    7  H   UNK N   1      28.861  19.072   5.447  0.00  0.00     0.173 HD
HETATM    8  H   UNK N   1      29.318  16.373   3.277  0.00  0.00     0.171 HD
ENDROOT
BRANCH   6   9
HETATM    9  C   UNK N   1      30.545  17.318   4.622  0.00  0.00     0.070 A 
HETATM   10  C   UNK N   1      30.574  17.076   6.023  0.00  0.00     0.106 A 
HETATM   11  C   UNK N   1      31.807  17.089   6.684  0.00  0.00     0.057 A 
HETATM   12  C   UNK N   1      32.999  17.337   5.998  0.00  0.00     0.040 A 
HETATM   13  C   UNK N   1      32.959  17.607   4.626  0.00  0.00     0.021 A 
HETATM   14  C   UNK N   1      31.742  17.593   3.942  0.00  0.00     0.033 A 
BRANCH  10  15
HETATM   15  O   UNK N   1      29.467  16.843   6.787  0.00  0.00    -0.253 OA
BRANCH  15  16
HETATM   16  C   UNK N   1      29.119  17.396   8.007  0.00  0.00     0.530 C 
HETATM   17  F   UNK N   1      29.946  16.916   9.009  0.00  0.00    -0.144 F 
HETATM   18  F   UNK N   1      27.823  17.025   8.305  0.00  0.00    -0.144 F 
HETATM   19  F   UNK N   1      29.165  18.777   7.954  0.00  0.00    -0.144 F 
ENDBRANCH  15  16
ENDBRANCH  10  15
BRANCH  12  20
HETATM   20  C   UNK N   1      34.286  17.286   6.721  0.00  0.00     0.176 C 
HETATM   21  O   UNK N   1      34.666  18.247   7.373  0.00  0.00    -0.646 OA
BRANCH  20  22
HETATM   22  O   UNK N   1      35.062  16.187   6.647  0.00  0.00    -0.773 OA
HETATM   23  H   UNK N   1      35.757  16.115   6.024  0.00  0.00     0.167 HD
ENDBRANCH  20  22
ENDBRANCH  12  20
ENDBRANCH   6   9
BRANCH   1  24
HETATM   24  C   UNK N   1      25.560  19.181   4.685  0.00  0.00     0.057 A 
HETATM   25  C   UNK N   1      24.814  20.050   3.869  0.00  0.00     0.064 A 
HETATM   26  C   UNK N   1      23.533  19.719   3.428  0.00  0.00     0.155 A 
HETATM   27  C   UNK N   1      22.973  18.496   3.788  0.00  0.00     0.156 A 
HETATM   28  F   UNK N   1      22.836  20.595   2.663  0.00  0.00    -0.203 F 
HETATM   29  C   UNK N   1      23.704  17.598   4.566  0.00  0.00     0.070 A 
HETATM   30  F   UNK N   1      21.720  18.175   3.382  0.00  0.00    -0.203 F 
HETATM   31  C   UNK N   1      24.995  17.920   5.008  0.00  0.00     0.052 A 
HETATM   32 Cl   UNK N   1      25.821  16.739   6.016  0.00  0.00    -0.083 Cl
ENDBRANCH   1  24
TORSDOF 6
ENDMDL
