MODEL 1
REMARK VINA RESULT:      -7.6      0.000      0.000
REMARK  5 active torsions:
REMARK  status: ('A' for Active; 'I' for Inactive)
REMARK       I    between atoms: C_4  and  N_24 
REMARK    1  A    between atoms: C_4  and  C_26 
REMARK       I    between atoms: C_5  and  N_24 
REMARK       I    between atoms: N_22  and  C_5 
REMARK    2  A    between atoms: C_6  and  N_22 
REMARK    3  A    between atoms: C_13  and  C_12 
REMARK    4  A    between atoms: C_13  and  O_15 
REMARK    5  A    between atoms: N_18  and  C_19 
ROOT
HETATM    1  C   UNK N   1      23.835  14.906   5.718  0.00  0.00     0.066 A 
HETATM    2  C   UNK N   1      23.785  14.110   6.872  0.00  0.00     0.074 A 
HETATM    3  C   UNK N   1      22.743  14.256   7.786  0.00  0.00     0.118 A 
HETATM    4  C   UNK N   1      21.761  15.224   7.569  0.00  0.00     0.044 A 
HETATM    5  C   UNK N   1      22.826  15.856   5.473  0.00  0.00     0.057 A 
HETATM    6  C   UNK N   1      21.804  16.025   6.420  0.00  0.00     0.035 A 
HETATM    7  F   UNK N   1      22.699  13.470   8.889  0.00  0.00    -0.206 F 
ENDROOT
BRANCH   1   8
HETATM    8  N   UNK N   1      24.949  14.798   4.846  0.00  0.00    -0.306 N 
HETATM    9  C   UNK N   1      26.011  15.615   4.971  0.00  0.00     0.327 C 
HETATM   10  O   UNK N   1      26.129  16.291   5.984  0.00  0.00    -0.247 OA
HETATM   11  N   UNK N   1      26.972  15.631   4.004  0.00  0.00    -0.275 N 
HETATM   12  C   UNK N   1      27.909  16.617   3.875  0.00  0.00     0.261 C 
HETATM   13  H   UNK N   1      26.992  14.887   3.359  0.00  0.00     0.173 HD
HETATM   14  O   UNK N   1      28.922  16.381   3.235  0.00  0.00    -0.267 OA
HETATM   15  H   UNK N   1      24.945  14.114   4.138  0.00  0.00     0.171 HD
BRANCH  12  16
HETATM   16  C   UNK N   1      27.685  17.994   4.433  0.00  0.00     0.057 A 
HETATM   17  C   UNK N   1      26.842  18.875   3.731  0.00  0.00     0.064 A 
HETATM   18  C   UNK N   1      26.539  20.137   4.216  0.00  0.00     0.155 A 
HETATM   19  C   UNK N   1      27.096  20.563   5.418  0.00  0.00     0.156 A 
HETATM   20  F   UNK N   1      25.689  20.934   3.524  0.00  0.00    -0.203 F 
HETATM   21  F   UNK N   1      26.784  21.786   5.912  0.00  0.00    -0.203 F 
HETATM   22  C   UNK N   1      27.972  19.726   6.117  0.00  0.00     0.070 A 
HETATM   23  C   UNK N   1      28.283  18.448   5.630  0.00  0.00     0.052 A 
HETATM   24 Cl   UNK N   1      29.350  17.436   6.592  0.00  0.00    -0.083 Cl
ENDBRANCH  12  16
ENDBRANCH   1   8
BRANCH   5  25
HETATM   25  N   UNK N   1      22.810  16.601   4.259  0.00  0.00    -0.379 N 
HETATM   26  C   UNK N   1      23.490  17.879   4.163  0.00  0.00     0.124 C 
HETATM   27  C   UNK N   1      22.525  18.994   3.769  0.00  0.00     0.035 C 
HETATM   28  C   UNK N   1      21.084  18.485   3.678  0.00  0.00     0.086 C 
HETATM   29  C   UNK N   1      21.015  17.259   2.741  0.00  0.00     0.035 C 
HETATM   30  C   UNK N   1      22.034  16.160   3.124  0.00  0.00     0.124 C 
BRANCH  28  31
HETATM   31  C   UNK N   1      20.143  19.576   3.260  0.00  0.00     0.143 C 
HETATM   32  O   UNK N   1      20.258  20.691   3.741  0.00  0.00    -0.650 OA
BRANCH  31  33
HETATM   33  O   UNK N   1      19.192  19.348   2.331  0.00  0.00    -0.776 OA
HETATM   34  H   UNK N   1      19.349  18.951   1.497  0.00  0.00     0.167 HD
ENDBRANCH  31  33
ENDBRANCH  28  31
ENDBRANCH   5  25
TORSDOF 5
ENDMDL
MODEL 2
REMARK VINA RESULT:      -7.6      2.877      5.449
REMARK  5 active torsions:
REMARK  status: ('A' for Active; 'I' for Inactive)
REMARK       I    between atoms: C_4  and  N_24 
REMARK    1  A    between atoms: C_4  and  C_26 
REMARK       I    between atoms: C_5  and  N_24 
REMARK       I    between atoms: N_22  and  C_5 
REMARK    2  A    between atoms: C_6  and  N_22 
REMARK    3  A    between atoms: C_13  and  C_12 
REMARK    4  A    between atoms: C_13  and  O_15 
REMARK    5  A    between atoms: N_18  and  C_19 
ROOT
HETATM    1  C   UNK N   1      23.302  15.248   6.229  0.00  0.00     0.066 A 
HETATM    2  C   UNK N   1      22.617  16.400   5.814  0.00  0.00     0.074 A 
HETATM    3  C   UNK N   1      21.486  16.834   6.503  0.00  0.00     0.118 A 
HETATM    4  C   UNK N   1      21.011  16.099   7.591  0.00  0.00     0.044 A 
HETATM    5  C   UNK N   1      22.852  14.525   7.349  0.00  0.00     0.057 A 
HETATM    6  C   UNK N   1      21.687  14.946   8.010  0.00  0.00     0.035 A 
HETATM    7  F   UNK N   1      20.842  17.957   6.102  0.00  0.00    -0.206 F 
ENDROOT
BRANCH   1   8
HETATM    8  N   UNK N   1      24.400  14.778   5.462  0.00  0.00    -0.306 N 
HETATM    9  C   UNK N   1      25.592  15.401   5.504  0.00  0.00     0.327 C 
HETATM   10  O   UNK N   1      25.806  16.225   6.383  0.00  0.00    -0.247 OA
HETATM   11  N   UNK N   1      26.566  15.061   4.612  0.00  0.00    -0.275 N 
HETATM   12  C   UNK N   1      27.675  15.821   4.365  0.00  0.00     0.261 C 
HETATM   13  H   UNK N   1      26.465  14.217   4.116  0.00  0.00     0.173 HD
HETATM   14  O   UNK N   1      28.643  15.290   3.844  0.00  0.00    -0.267 OA
HETATM   15  H   UNK N   1      24.288  13.985   4.891  0.00  0.00     0.171 HD
BRANCH  12  16
HETATM   16  C   UNK N   1      27.697  17.296   4.650  0.00  0.00     0.057 A 
HETATM   17  C   UNK N   1      27.052  18.164   3.749  0.00  0.00     0.064 A 
HETATM   18  C   UNK N   1      26.978  19.528   3.978  0.00  0.00     0.155 A 
HETATM   19  C   UNK N   1      27.572  20.068   5.114  0.00  0.00     0.156 A 
HETATM   20  F   UNK N   1      26.309  20.319   3.102  0.00  0.00    -0.203 F 
HETATM   21  F   UNK N   1      27.482  21.398   5.357  0.00  0.00    -0.203 F 
HETATM   22  C   UNK N   1      28.259  19.236   6.005  0.00  0.00     0.070 A 
HETATM   23  C   UNK N   1      28.338  17.855   5.778  0.00  0.00     0.052 A 
HETATM   24 Cl   UNK N   1      29.171  16.870   6.972  0.00  0.00    -0.083 Cl
ENDBRANCH  12  16
ENDBRANCH   1   8
BRANCH   5  25
HETATM   25  N   UNK N   1      23.594  13.411   7.840  0.00  0.00    -0.379 N 
HETATM   26  C   UNK N   1      23.013  12.082   7.855  0.00  0.00     0.124 C 
HETATM   27  C   UNK N   1      22.993  11.501   9.267  0.00  0.00     0.035 C 
HETATM   28  C   UNK N   1      23.498  12.512  10.299  0.00  0.00     0.086 C 
HETATM   29  C   UNK N   1      24.884  13.048   9.880  0.00  0.00     0.035 C 
HETATM   30  C   UNK N   1      24.899  13.587   8.430  0.00  0.00     0.124 C 
BRANCH  28  31
HETATM   31  C   UNK N   1      23.506  11.927  11.681  0.00  0.00     0.143 C 
HETATM   32  O   UNK N   1      24.547  11.892  12.316  0.00  0.00    -0.650 OA
BRANCH  31  33
HETATM   33  O   UNK N   1      22.367  11.473  12.244  0.00  0.00    -0.776 OA
HETATM   34  H   UNK N   1      21.952  11.860  12.989  0.00  0.00     0.167 HD
ENDBRANCH  31  33
ENDBRANCH  28  31
ENDBRANCH   5  25
TORSDOF 5
ENDMDL
MODEL 3
REMARK VINA RESULT:      -7.3      1.729      2.232
REMARK  5 active torsions:
REMARK  status: ('A' for Active; 'I' for Inactive)
REMARK       I    between atoms: C_4  and  N_24 
REMARK    1  A    between atoms: C_4  and  C_26 
REMARK       I    between atoms: C_5  and  N_24 
REMARK       I    between atoms: N_22  and  C_5 
REMARK    2  A    between atoms: C_6  and  N_22 
REMARK    3  A    between atoms: C_13  and  C_12 
REMARK    4  A    between atoms: C_13  and  O_15 
REMARK    5  A    between atoms: N_18  and  C_19 
ROOT
HETATM    1  C   UNK N   1      22.791  14.762   6.797  0.00  0.00     0.066 A 
HETATM    2  C   UNK N   1      22.454  14.165   8.021  0.00  0.00     0.074 A 
HETATM    3  C   UNK N   1      21.437  14.698   8.810  0.00  0.00     0.118 A 
HETATM    4  C   UNK N   1      20.772  15.855   8.397  0.00  0.00     0.044 A 
HETATM    5  C   UNK N   1      22.097  15.904   6.355  0.00  0.00     0.057 A 
HETATM    6  C   UNK N   1      21.103  16.459   7.177  0.00  0.00     0.035 A 
HETATM    7  F   UNK N   1      21.111  14.103   9.982  0.00  0.00    -0.206 F 
ENDROOT
BRANCH   1   8
HETATM    8  N   UNK N   1      23.885  14.252   6.052  0.00  0.00    -0.306 N 
HETATM    9  C   UNK N   1      25.124  14.755   6.203  0.00  0.00     0.327 C 
HETATM   10  O   UNK N   1      25.360  15.487   7.155  0.00  0.00    -0.247 OA
HETATM   11  N   UNK N   1      26.113  14.394   5.337  0.00  0.00    -0.275 N 
HETATM   12  C   UNK N   1      27.298  15.063   5.209  0.00  0.00     0.261 C 
HETATM   13  H   UNK N   1      25.966  13.602   4.770  0.00  0.00     0.173 HD
HETATM   14  O   UNK N   1      28.244  14.485   4.696  0.00  0.00    -0.267 OA
HETATM   15  H   UNK N   1      23.736  13.517   5.414  0.00  0.00     0.171 HD
BRANCH  12  16
HETATM   16  C   UNK N   1      27.436  16.503   5.612  0.00  0.00     0.057 A 
HETATM   17  C   UNK N   1      28.072  16.802   6.831  0.00  0.00     0.064 A 
HETATM   18  C   UNK N   1      28.290  18.109   7.238  0.00  0.00     0.155 A 
HETATM   19  C   UNK N   1      27.853  19.160   6.439  0.00  0.00     0.156 A 
HETATM   20  F   UNK N   1      28.945  18.346   8.402  0.00  0.00    -0.203 F 
HETATM   21  F   UNK N   1      28.086  20.440   6.819  0.00  0.00    -0.203 F 
HETATM   22  C   UNK N   1      27.179  18.894   5.243  0.00  0.00     0.070 A 
HETATM   23  C   UNK N   1      26.954  17.574   4.826  0.00  0.00     0.052 A 
HETATM   24 Cl   UNK N   1      26.147  17.322   3.285  0.00  0.00    -0.083 Cl
ENDBRANCH  12  16
ENDBRANCH   1   8
BRANCH   5  25
HETATM   25  N   UNK N   1      22.361  16.462   5.071  0.00  0.00    -0.379 N 
HETATM   26  C   UNK N   1      23.208  17.632   4.930  0.00  0.00     0.124 C 
HETATM   27  C   UNK N   1      22.465  18.775   4.242  0.00  0.00     0.035 C 
HETATM   28  C   UNK N   1      21.001  18.416   3.976  0.00  0.00     0.086 C 
HETATM   29  C   UNK N   1      20.916  17.081   3.203  0.00  0.00     0.035 C 
HETATM   30  C   UNK N   1      21.715  15.947   3.887  0.00  0.00     0.124 C 
BRANCH  28  31
HETATM   31  C   UNK N   1      20.282  19.529   3.273  0.00  0.00     0.143 C 
HETATM   32  O   UNK N   1      20.597  20.687   3.494  0.00  0.00    -0.650 OA
BRANCH  31  33
HETATM   33  O   UNK N   1      19.315  19.263   2.370  0.00  0.00    -0.776 OA
HETATM   34  H   UNK N   1      18.428  19.555   2.440  0.00  0.00     0.167 HD
ENDBRANCH  31  33
ENDBRANCH  28  31
ENDBRANCH   5  25
TORSDOF 5
ENDMDL
MODEL 4
REMARK VINA RESULT:      -7.3     12.053     13.842
REMARK  5 active torsions:
REMARK  status: ('A' for Active; 'I' for Inactive)
REMARK       I    between atoms: C_4  and  N_24 
REMARK    1  A    between atoms: C_4  and  C_26 
REMARK       I    between atoms: C_5  and  N_24 
REMARK       I    between atoms: N_22  and  C_5 
REMARK    2  A    between atoms: C_6  and  N_22 
REMARK    3  A    between atoms: C_13  and  C_12 
REMARK    4  A    between atoms: C_13  and  O_15 
REMARK    5  A    between atoms: N_18  and  C_19 
ROOT
HETATM    1  C   UNK N   1      26.364  25.159  -4.478  0.00  0.00     0.066 A 
HETATM    2  C   UNK N   1      26.033  26.466  -4.092  0.00  0.00     0.074 A 
HETATM    3  C   UNK N   1      25.454  27.347  -5.004  0.00  0.00     0.118 A 
HETATM    4  C   UNK N   1      25.235  26.936  -6.321  0.00  0.00     0.044 A 
HETATM    5  C   UNK N   1      26.108  24.726  -5.793  0.00  0.00     0.057 A 
HETATM    6  C   UNK N   1      25.565  25.633  -6.717  0.00  0.00     0.035 A 
HETATM    7  F   UNK N   1      25.125  28.601  -4.614  0.00  0.00    -0.206 F 
ENDROOT
BRANCH   1   8
HETATM    8  N   UNK N   1      27.028  24.309  -3.557  0.00  0.00    -0.306 N 
HETATM    9  C   UNK N   1      28.371  24.293  -3.470  0.00  0.00     0.327 C 
HETATM   10  O   UNK N   1      29.016  25.183  -4.009  0.00  0.00    -0.247 OA
HETATM   11  N   UNK N   1      28.992  23.330  -2.731  0.00  0.00    -0.275 N 
HETATM   12  C   UNK N   1      30.323  23.037  -2.821  0.00  0.00     0.261 C 
HETATM   13  H   UNK N   1      28.447  22.814  -2.092  0.00  0.00     0.173 HD
HETATM   14  O   UNK N   1      30.854  22.437  -1.900  0.00  0.00    -0.267 OA
HETATM   15  H   UNK N   1      26.499  23.721  -2.972  0.00  0.00     0.171 HD
BRANCH  12  16
HETATM   16  C   UNK N   1      31.119  23.367  -4.052  0.00  0.00     0.057 A 
HETATM   17  C   UNK N   1      31.875  24.554  -4.065  0.00  0.00     0.064 A 
HETATM   18  C   UNK N   1      32.682  24.893  -5.139  0.00  0.00     0.155 A 
HETATM   19  C   UNK N   1      32.737  24.055  -6.249  0.00  0.00     0.156 A 
HETATM   20  F   UNK N   1      33.424  26.027  -5.088  0.00  0.00    -0.203 F 
HETATM   21  F   UNK N   1      33.544  24.367  -7.292  0.00  0.00    -0.203 F 
HETATM   22  C   UNK N   1      31.963  22.891  -6.283  0.00  0.00     0.070 A 
HETATM   23  C   UNK N   1      31.144  22.543  -5.200  0.00  0.00     0.052 A 
HETATM   24 Cl   UNK N   1      30.243  21.037  -5.296  0.00  0.00    -0.083 Cl
ENDBRANCH  12  16
ENDBRANCH   1   8
BRANCH   5  25
HETATM   25  N   UNK N   1      26.348  23.374  -6.172  0.00  0.00    -0.379 N 
HETATM   26  C   UNK N   1      27.664  22.949  -6.612  0.00  0.00     0.124 C 
HETATM   27  C   UNK N   1      27.614  22.353  -8.016  0.00  0.00     0.035 C 
HETATM   28  C   UNK N   1      26.211  22.455  -8.621  0.00  0.00     0.086 C 
HETATM   29  C   UNK N   1      25.174  21.835  -7.659  0.00  0.00     0.035 C 
HETATM   30  C   UNK N   1      25.272  22.413  -6.228  0.00  0.00     0.124 C 
BRANCH  28  31
HETATM   31  C   UNK N   1      26.158  21.842  -9.990  0.00  0.00     0.143 C 
HETATM   32  O   UNK N   1      27.020  22.114 -10.808  0.00  0.00    -0.650 OA
BRANCH  31  33
HETATM   33  O   UNK N   1      25.188  20.963 -10.314  0.00  0.00    -0.776 OA
HETATM   34  H   UNK N   1      24.878  20.281  -9.751  0.00  0.00     0.167 HD
ENDBRANCH  31  33
ENDBRANCH  28  31
ENDBRANCH   5  25
TORSDOF 5
ENDMDL
MODEL 5
REMARK VINA RESULT:      -7.2      3.961      8.150
REMARK  5 active torsions:
REMARK  status: ('A' for Active; 'I' for Inactive)
REMARK       I    between atoms: C_4  and  N_24 
REMARK    1  A    between atoms: C_4  and  C_26 
REMARK       I    between atoms: C_5  and  N_24 
REMARK       I    between atoms: N_22  and  C_5 
REMARK    2  A    between atoms: C_6  and  N_22 
REMARK    3  A    between atoms: C_13  and  C_12 
REMARK    4  A    between atoms: C_13  and  O_15 
REMARK    5  A    between atoms: N_18  and  C_19 
ROOT
HETATM    1  C   UNK N   1      26.101  17.894   5.092  0.00  0.00     0.066 A 
HETATM    2  C   UNK N   1      25.525  18.748   4.140  0.00  0.00     0.074 A 
HETATM    3  C   UNK N   1      26.261  19.798   3.595  0.00  0.00     0.118 A 
HETATM    4  C   UNK N   1      27.570  20.024   4.025  0.00  0.00     0.044 A 
HETATM    5  C   UNK N   1      27.434  18.091   5.499  0.00  0.00     0.057 A 
HETATM    6  C   UNK N   1      28.154  19.178   4.977  0.00  0.00     0.035 A 
HETATM    7  F   UNK N   1      25.697  20.606   2.665  0.00  0.00    -0.206 F 
ENDROOT
BRANCH   1   8
HETATM    8  N   UNK N   1      25.306  16.885   5.693  0.00  0.00    -0.306 N 
HETATM    9  C   UNK N   1      25.097  15.707   5.078  0.00  0.00     0.327 C 
HETATM   10  O   UNK N   1      25.786  15.406   4.112  0.00  0.00    -0.247 OA
HETATM   11  N   UNK N   1      24.171  14.838   5.574  0.00  0.00    -0.275 N 
HETATM   12  C   UNK N   1      23.666  13.778   4.874  0.00  0.00     0.261 C 
HETATM   13  H   UNK N   1      23.846  14.982   6.492  0.00  0.00     0.173 HD
HETATM   14  O   UNK N   1      23.136  12.868   5.492  0.00  0.00    -0.267 OA
HETATM   15  H   UNK N   1      24.901  17.049   6.575  0.00  0.00     0.171 HD
BRANCH  12  16
HETATM   16  C   UNK N   1      23.681  13.748   3.372  0.00  0.00     0.057 A 
HETATM   17  C   UNK N   1      24.564  12.863   2.727  0.00  0.00     0.064 A 
HETATM   18  C   UNK N   1      24.591  12.735   1.347  0.00  0.00     0.155 A 
HETATM   19  C   UNK N   1      23.741  13.515   0.568  0.00  0.00     0.156 A 
HETATM   20  F   UNK N   1      25.430  11.838   0.774  0.00  0.00    -0.203 F 
HETATM   21  F   UNK N   1      23.743  13.377  -0.779  0.00  0.00    -0.203 F 
HETATM   22  C   UNK N   1      22.884  14.436   1.179  0.00  0.00     0.070 A 
HETATM   23  C   UNK N   1      22.853  14.570   2.574  0.00  0.00     0.052 A 
HETATM   24 Cl   UNK N   1      21.710  15.710   3.269  0.00  0.00    -0.083 Cl
ENDBRANCH  12  16
ENDBRANCH   1   8
BRANCH   5  25
HETATM   25  N   UNK N   1      28.063  17.175   6.390  0.00  0.00    -0.379 N 
HETATM   26  C   UNK N   1      28.069  17.416   7.821  0.00  0.00     0.124 C 
HETATM   27  C   UNK N   1      29.493  17.479   8.367  0.00  0.00     0.035 C 
HETATM   28  C   UNK N   1      30.531  17.371   7.247  0.00  0.00     0.086 C 
HETATM   29  C   UNK N   1      30.261  16.111   6.395  0.00  0.00     0.035 C 
HETATM   30  C   UNK N   1      28.800  16.037   5.892  0.00  0.00     0.124 C 
BRANCH  28  31
HETATM   31  C   UNK N   1      31.930  17.403   7.791  0.00  0.00     0.143 C 
HETATM   32  O   UNK N   1      32.846  17.784   7.081  0.00  0.00    -0.650 OA
BRANCH  31  33
HETATM   33  O   UNK N   1      32.181  17.049   9.068  0.00  0.00    -0.776 OA
HETATM   34  H   UNK N   1      31.524  16.815   9.694  0.00  0.00     0.167 HD
ENDBRANCH  31  33
ENDBRANCH  28  31
ENDBRANCH   5  25
TORSDOF 5
ENDMDL
MODEL 6
REMARK VINA RESULT:      -7.2      3.595      8.086
REMARK  5 active torsions:
REMARK  status: ('A' for Active; 'I' for Inactive)
REMARK       I    between atoms: C_4  and  N_24 
REMARK    1  A    between atoms: C_4  and  C_26 
REMARK       I    between atoms: C_5  and  N_24 
REMARK       I    between atoms: N_22  and  C_5 
REMARK    2  A    between atoms: C_6  and  N_22 
REMARK    3  A    between atoms: C_13  and  C_12 
REMARK    4  A    between atoms: C_13  and  O_15 
REMARK    5  A    between atoms: N_18  and  C_19 
ROOT
HETATM    1  C   UNK N   1      25.985  18.203   5.024  0.00  0.00     0.066 A 
HETATM    2  C   UNK N   1      25.447  19.084   4.074  0.00  0.00     0.074 A 
HETATM    3  C   UNK N   1      26.253  20.046   3.468  0.00  0.00     0.118 A 
HETATM    4  C   UNK N   1      27.597  20.156   3.833  0.00  0.00     0.044 A 
HETATM    5  C   UNK N   1      27.347  18.281   5.366  0.00  0.00     0.057 A 
HETATM    6  C   UNK N   1      28.142  19.281   4.783  0.00  0.00     0.035 A 
HETATM    7  F   UNK N   1      25.725  20.881   2.541  0.00  0.00    -0.206 F 
ENDROOT
BRANCH   1   8
HETATM    8  N   UNK N   1      25.127  17.289   5.688  0.00  0.00    -0.306 N 
HETATM    9  C   UNK N   1      24.239  16.546   5.003  0.00  0.00     0.327 C 
HETATM   10  O   UNK N   1      24.332  16.476   3.784  0.00  0.00    -0.247 OA
HETATM   11  N   UNK N   1      23.291  15.831   5.673  0.00  0.00    -0.275 N 
HETATM   12  C   UNK N   1      22.174  15.305   5.087  0.00  0.00     0.261 C 
HETATM   13  H   UNK N   1      23.418  15.685   6.639  0.00  0.00     0.173 HD
HETATM   14  O   UNK N   1      21.584  14.401   5.659  0.00  0.00    -0.267 OA
HETATM   15  H   UNK N   1      25.182  17.196   6.666  0.00  0.00     0.171 HD
BRANCH  12  16
HETATM   16  C   UNK N   1      21.621  15.861   3.806  0.00  0.00     0.057 A 
HETATM   17  C   UNK N   1      21.606  15.036   2.666  0.00  0.00     0.064 A 
HETATM   18  C   UNK N   1      21.055  15.458   1.467  0.00  0.00     0.155 A 
HETATM   19  C   UNK N   1      20.521  16.739   1.370  0.00  0.00     0.156 A 
HETATM   20  F   UNK N   1      21.027  14.612   0.408  0.00  0.00    -0.203 F 
HETATM   21  F   UNK N   1      19.958  17.150   0.208  0.00  0.00    -0.203 F 
HETATM   22  C   UNK N   1      20.561  17.598   2.473  0.00  0.00     0.070 A 
HETATM   23  C   UNK N   1      21.118  17.176   3.689  0.00  0.00     0.052 A 
HETATM   24 Cl   UNK N   1      21.083  18.295   5.044  0.00  0.00    -0.083 Cl
ENDBRANCH  12  16
ENDBRANCH   1   8
BRANCH   5  25
HETATM   25  N   UNK N   1      27.929  17.331   6.255  0.00  0.00    -0.379 N 
HETATM   26  C   UNK N   1      27.958  17.573   7.685  0.00  0.00     0.124 C 
HETATM   27  C   UNK N   1      29.387  17.553   8.222  0.00  0.00     0.035 C 
HETATM   28  C   UNK N   1      30.409  17.384   7.096  0.00  0.00     0.086 C 
HETATM   29  C   UNK N   1      30.061  16.142   6.247  0.00  0.00     0.035 C 
HETATM   30  C   UNK N   1      28.595  16.152   5.753  0.00  0.00     0.124 C 
BRANCH  28  31
HETATM   31  C   UNK N   1      31.811  17.336   7.630  0.00  0.00     0.143 C 
HETATM   32  O   UNK N   1      32.754  17.345   6.856  0.00  0.00    -0.650 OA
BRANCH  31  33
HETATM   33  O   UNK N   1      32.041  17.318   8.959  0.00  0.00    -0.776 OA
HETATM   34  H   UNK N   1      32.541  16.663   9.403  0.00  0.00     0.167 HD
ENDBRANCH  31  33
ENDBRANCH  28  31
ENDBRANCH   5  25
TORSDOF 5
ENDMDL
MODEL 7
REMARK VINA RESULT:      -7.1      9.578     12.974
REMARK  5 active torsions:
REMARK  status: ('A' for Active; 'I' for Inactive)
REMARK       I    between atoms: C_4  and  N_24 
REMARK    1  A    between atoms: C_4  and  C_26 
REMARK       I    between atoms: C_5  and  N_24 
REMARK       I    between atoms: N_22  and  C_5 
REMARK    2  A    between atoms: C_6  and  N_22 
REMARK    3  A    between atoms: C_13  and  C_12 
REMARK    4  A    between atoms: C_13  and  O_15 
REMARK    5  A    between atoms: N_18  and  C_19 
ROOT
HETATM    1  C   UNK N   1      34.851  13.234   9.302  0.00  0.00     0.066 A 
HETATM    2  C   UNK N   1      34.054  12.644   8.309  0.00  0.00     0.074 A 
HETATM    3  C   UNK N   1      33.605  11.332   8.453  0.00  0.00     0.118 A 
HETATM    4  C   UNK N   1      33.979  10.590   9.575  0.00  0.00     0.044 A 
HETATM    5  C   UNK N   1      35.196  12.505  10.455  0.00  0.00     0.057 A 
HETATM    6  C   UNK N   1      34.775  11.171  10.570  0.00  0.00     0.035 A 
HETATM    7  F   UNK N   1      32.825  10.778   7.494  0.00  0.00    -0.206 F 
ENDROOT
BRANCH   1   8
HETATM    8  N   UNK N   1      35.365  14.540   9.095  0.00  0.00    -0.306 N 
HETATM    9  C   UNK N   1      34.549  15.610   9.055  0.00  0.00     0.327 C 
HETATM   10  O   UNK N   1      33.392  15.494   9.437  0.00  0.00    -0.247 OA
HETATM   11  N   UNK N   1      35.035  16.819   8.653  0.00  0.00    -0.275 N 
HETATM   12  C   UNK N   1      34.248  17.874   8.285  0.00  0.00     0.261 C 
HETATM   13  H   UNK N   1      36.012  16.940   8.628  0.00  0.00     0.173 HD
HETATM   14  O   UNK N   1      34.733  18.995   8.291  0.00  0.00    -0.267 OA
HETATM   15  H   UNK N   1      36.334  14.666   8.979  0.00  0.00     0.171 HD
BRANCH  12  16
HETATM   16  C   UNK N   1      32.839  17.675   7.805  0.00  0.00     0.057 A 
HETATM   17  C   UNK N   1      31.781  18.005   8.672  0.00  0.00     0.064 A 
HETATM   18  C   UNK N   1      30.456  17.907   8.277  0.00  0.00     0.155 A 
HETATM   19  C   UNK N   1      30.152  17.450   6.999  0.00  0.00     0.156 A 
HETATM   20  F   UNK N   1      29.473  18.276   9.134  0.00  0.00    -0.203 F 
HETATM   21  F   UNK N   1      28.861  17.375   6.597  0.00  0.00    -0.203 F 
HETATM   22  C   UNK N   1      31.181  17.072   6.129  0.00  0.00     0.070 A 
HETATM   23  C   UNK N   1      32.523  17.168   6.524  0.00  0.00     0.052 A 
HETATM   24 Cl   UNK N   1      33.760  16.726   5.356  0.00  0.00    -0.083 Cl
ENDBRANCH  12  16
ENDBRANCH   1   8
BRANCH   5  25
HETATM   25  N   UNK N   1      35.920  13.124  11.515  0.00  0.00    -0.379 N 
HETATM   26  C   UNK N   1      37.316  12.802  11.747  0.00  0.00     0.124 C 
HETATM   27  C   UNK N   1      37.534  12.267  13.160  0.00  0.00     0.035 C 
HETATM   28  C   UNK N   1      36.212  12.120  13.917  0.00  0.00     0.086 C 
HETATM   29  C   UNK N   1      35.433  13.453  13.884  0.00  0.00     0.035 C 
HETATM   30  C   UNK N   1      35.264  14.007  12.450  0.00  0.00     0.124 C 
BRANCH  28  31
HETATM   31  C   UNK N   1      36.434  11.623  15.316  0.00  0.00     0.143 C 
HETATM   32  O   UNK N   1      35.900  12.194  16.252  0.00  0.00    -0.650 OA
BRANCH  31  33
HETATM   33  O   UNK N   1      37.187  10.528  15.547  0.00  0.00    -0.776 OA
HETATM   34  H   UNK N   1      38.045  10.543  15.922  0.00  0.00     0.167 HD
ENDBRANCH  31  33
ENDBRANCH  28  31
ENDBRANCH   5  25
TORSDOF 5
ENDMDL
MODEL 8
REMARK VINA RESULT:      -7.1     12.113     14.516
REMARK  5 active torsions:
REMARK  status: ('A' for Active; 'I' for Inactive)
REMARK       I    between atoms: C_4  and  N_24 
REMARK    1  A    between atoms: C_4  and  C_26 
REMARK       I    between atoms: C_5  and  N_24 
REMARK       I    between atoms: N_22  and  C_5 
REMARK    2  A    between atoms: C_6  and  N_22 
REMARK    3  A    between atoms: C_13  and  C_12 
REMARK    4  A    between atoms: C_13  and  O_15 
REMARK    5  A    between atoms: N_18  and  C_19 
ROOT
HETATM    1  C   UNK N   1      26.864  24.202  -5.021  0.00  0.00     0.066 A 
HETATM    2  C   UNK N   1      25.877  23.849  -5.954  0.00  0.00     0.074 A 
HETATM    3  C   UNK N   1      26.164  22.949  -6.979  0.00  0.00     0.118 A 
HETATM    4  C   UNK N   1      27.451  22.422  -7.099  0.00  0.00     0.044 A 
HETATM    5  C   UNK N   1      28.152  23.642  -5.113  0.00  0.00     0.057 A 
HETATM    6  C   UNK N   1      28.444  22.770  -6.173  0.00  0.00     0.035 A 
HETATM    7  F   UNK N   1      25.198  22.606  -7.864  0.00  0.00    -0.206 F 
ENDROOT
BRANCH   1   8
HETATM    8  N   UNK N   1      26.573  25.183  -4.039  0.00  0.00    -0.306 N 
HETATM    9  C   UNK N   1      27.013  26.448  -4.169  0.00  0.00     0.327 C 
HETATM   10  O   UNK N   1      27.456  26.820  -5.247  0.00  0.00    -0.247 OA
HETATM   11  N   UNK N   1      26.899  27.316  -3.123  0.00  0.00    -0.275 N 
HETATM   12  C   UNK N   1      27.574  28.501  -3.038  0.00  0.00     0.261 C 
HETATM   13  H   UNK N   1      26.293  27.076  -2.385  0.00  0.00     0.173 HD
HETATM   14  O   UNK N   1      27.156  29.360  -2.277  0.00  0.00    -0.267 OA
HETATM   15  H   UNK N   1      26.041  24.934  -3.249  0.00  0.00     0.171 HD
BRANCH  12  16
HETATM   16  C   UNK N   1      28.850  28.736  -3.795  0.00  0.00     0.057 A 
HETATM   17  C   UNK N   1      29.990  27.992  -3.439  0.00  0.00     0.064 A 
HETATM   18  C   UNK N   1      31.184  28.110  -4.133  0.00  0.00     0.155 A 
HETATM   19  C   UNK N   1      31.275  29.001  -5.198  0.00  0.00     0.156 A 
HETATM   20  F   UNK N   1      32.243  27.341  -3.778  0.00  0.00    -0.203 F 
HETATM   21  F   UNK N   1      32.431  29.103  -5.897  0.00  0.00    -0.203 F 
HETATM   22  C   UNK N   1      30.171  29.786  -5.547  0.00  0.00     0.070 A 
HETATM   23  C   UNK N   1      28.961  29.672  -4.849  0.00  0.00     0.052 A 
HETATM   24 Cl   UNK N   1      27.604  30.654  -5.382  0.00  0.00    -0.083 Cl
ENDBRANCH  12  16
ENDBRANCH   1   8
BRANCH   5  25
HETATM   25  N   UNK N   1      29.134  23.915  -4.117  0.00  0.00    -0.379 N 
HETATM   26  C   UNK N   1      30.348  24.636  -4.449  0.00  0.00     0.124 C 
HETATM   27  C   UNK N   1      31.591  23.814  -4.119  0.00  0.00     0.035 C 
HETATM   28  C   UNK N   1      31.223  22.414  -3.620  0.00  0.00     0.086 C 
HETATM   29  C   UNK N   1      30.229  22.517  -2.442  0.00  0.00     0.035 C 
HETATM   30  C   UNK N   1      29.001  23.395  -2.776  0.00  0.00     0.124 C 
BRANCH  28  31
HETATM   31  C   UNK N   1      32.446  21.619  -3.267  0.00  0.00     0.143 C 
HETATM   32  O   UNK N   1      33.286  21.389  -4.122  0.00  0.00    -0.650 OA
BRANCH  31  33
HETATM   33  O   UNK N   1      32.645  21.185  -2.006  0.00  0.00    -0.776 OA
HETATM   34  H   UNK N   1      33.124  21.654  -1.352  0.00  0.00     0.167 HD
ENDBRANCH  31  33
ENDBRANCH  28  31
ENDBRANCH   5  25
TORSDOF 5
ENDMDL
MODEL 9
REMARK VINA RESULT:      -7.0      5.798     10.185
REMARK  5 active torsions:
REMARK  status: ('A' for Active; 'I' for Inactive)
REMARK       I    between atoms: C_4  and  N_24 
REMARK    1  A    between atoms: C_4  and  C_26 
REMARK       I    between atoms: C_5  and  N_24 
REMARK       I    between atoms: N_22  and  C_5 
REMARK    2  A    between atoms: C_6  and  N_22 
REMARK    3  A    between atoms: C_13  and  C_12 
REMARK    4  A    between atoms: C_13  and  O_15 
REMARK    5  A    between atoms: N_18  and  C_19 
ROOT
HETATM    1  C   UNK N   1      32.639  16.437   4.422  0.00  0.00     0.066 A 
HETATM    2  C   UNK N   1      32.858  15.771   3.207  0.00  0.00     0.074 A 
HETATM    3  C   UNK N   1      33.833  14.779   3.112  0.00  0.00     0.118 A 
HETATM    4  C   UNK N   1      34.620  14.471   4.223  0.00  0.00     0.044 A 
HETATM    5  C   UNK N   1      33.401  16.102   5.557  0.00  0.00     0.057 A 
HETATM    6  C   UNK N   1      34.409  15.132   5.440  0.00  0.00     0.035 A 
HETATM    7  F   UNK N   1      34.024  14.134   1.936  0.00  0.00    -0.206 F 
ENDROOT
BRANCH   1   8
HETATM    8  N   UNK N   1      31.700  17.499   4.473  0.00  0.00    -0.306 N 
HETATM    9  C   UNK N   1      30.418  17.278   4.815  0.00  0.00     0.327 C 
HETATM   10  O   UNK N   1      30.110  16.205   5.318  0.00  0.00    -0.247 OA
HETATM   11  N   UNK N   1      29.493  18.268   4.660  0.00  0.00    -0.275 N 
HETATM   12  C   UNK N   1      28.142  18.062   4.680  0.00  0.00     0.261 C 
HETATM   13  H   UNK N   1      29.818  19.188   4.526  0.00  0.00     0.173 HD
HETATM   14  O   UNK N   1      27.408  19.014   4.894  0.00  0.00    -0.267 OA
HETATM   15  H   UNK N   1      31.991  18.414   4.255  0.00  0.00     0.171 HD
BRANCH  12  16
HETATM   16  C   UNK N   1      27.547  16.717   4.372  0.00  0.00     0.057 A 
HETATM   17  C   UNK N   1      27.502  16.293   3.031  0.00  0.00     0.064 A 
HETATM   18  C   UNK N   1      27.025  15.041   2.677  0.00  0.00     0.155 A 
HETATM   19  C   UNK N   1      26.555  14.181   3.664  0.00  0.00     0.156 A 
HETATM   20  F   UNK N   1      27.039  14.663   1.375  0.00  0.00    -0.203 F 
HETATM   21  F   UNK N   1      26.111  12.946   3.329  0.00  0.00    -0.203 F 
HETATM   22  C   UNK N   1      26.546  14.591   5.002  0.00  0.00     0.070 A 
HETATM   23  C   UNK N   1      27.027  15.857   5.366  0.00  0.00     0.052 A 
HETATM   24 Cl   UNK N   1      27.033  16.278   7.072  0.00  0.00    -0.083 Cl
ENDBRANCH  12  16
ENDBRANCH   1   8
BRANCH   5  25
HETATM   25  N   UNK N   1      33.122  16.699   6.821  0.00  0.00    -0.379 N 
HETATM   26  C   UNK N   1      33.688  17.988   7.173  0.00  0.00     0.124 C 
HETATM   27  C   UNK N   1      34.522  17.898   8.448  0.00  0.00     0.035 C 
HETATM   28  C   UNK N   1      34.620  16.458   8.956  0.00  0.00     0.086 C 
HETATM   29  C   UNK N   1      33.207  15.853   9.109  0.00  0.00     0.035 C 
HETATM   30  C   UNK N   1      32.358  15.998   7.825  0.00  0.00     0.124 C 
BRANCH  28  31
HETATM   31  C   UNK N   1      35.415  16.377  10.227  0.00  0.00     0.143 C 
HETATM   32  O   UNK N   1      36.470  15.766  10.242  0.00  0.00    -0.650 OA
BRANCH  31  33
HETATM   33  O   UNK N   1      34.994  17.005  11.344  0.00  0.00    -0.776 OA
HETATM   34  H   UNK N   1      35.474  17.674  11.790  0.00  0.00     0.167 HD
ENDBRANCH  31  33
ENDBRANCH  28  31
ENDBRANCH   5  25
TORSDOF 5
ENDMDL
