REMARK  5 active torsions:
REMARK  status: ('A' for Active; 'I' for Inactive)
REMARK       I    between atoms: C_4  and  N_24 
REMARK    1  A    between atoms: C_4  and  C_26 
REMARK       I    between atoms: C_5  and  N_24 
REMARK       I    between atoms: N_22  and  C_5 
REMARK    2  A    between atoms: C_6  and  N_22 
REMARK    3  A    between atoms: C_13  and  C_12 
REMARK    4  A    between atoms: C_13  and  O_15 
REMARK    5  A    between atoms: N_18  and  C_19 
ROOT
HETATM    1  C   UNK N   1       0.978   0.781  -0.050  0.00  0.00     0.066 A 
HETATM    2  C   UNK N   1       1.021   2.082   0.473  0.00  0.00     0.074 A 
HETATM    3  C   UNK N   1       2.157   2.872   0.308  0.00  0.00     0.118 A 
HETATM    4  C   UNK N   1       3.273   2.353  -0.352  0.00  0.00     0.044 A 
HETATM    5  C   UNK N   1       2.084   0.267  -0.752  0.00  0.00     0.057 A 
HETATM    6  C   UNK N   1       3.240   1.054  -0.876  0.00  0.00     0.035 A 
HETATM    7  F   UNK N   1       2.180   4.132   0.805  0.00  0.00    -0.206 F 
ENDROOT
BRANCH   1   8
HETATM    8  N   UNK N   1      -0.156  -0.033   0.203  0.00  0.00    -0.306 N 
HETATM    9  C   UNK N   1      -1.385   0.346  -0.192  0.00  0.00     0.327 C 
HETATM   10  O   UNK N   1      -1.500   1.274  -0.982  0.00  0.00    -0.247 OA
HETATM   11  N   UNK N   1      -2.479  -0.345   0.238  0.00  0.00    -0.275 N 
HETATM   12  C   UNK N   1      -3.760   0.124   0.156  0.00  0.00     0.261 C 
HETATM   13  H   UNK N   1      -2.338  -1.237   0.631  0.00  0.00     0.173 HD
HETATM   14  O   UNK N   1      -4.681  -0.675   0.222  0.00  0.00    -0.267 OA
HETATM   15  H   UNK N   1      -0.042  -0.889   0.675  0.00  0.00     0.171 HD
BRANCH  12  16
HETATM   16  C   UNK N   1      -4.055   1.594   0.064  0.00  0.00     0.057 A 
HETATM   17  C   UNK N   1      -3.128   2.501   0.610  0.00  0.00     0.064 A 
HETATM   18  C   UNK N   1      -3.302   3.872   0.508  0.00  0.00     0.155 A 
HETATM   19  C   UNK N   1      -4.431   4.376  -0.130  0.00  0.00     0.156 A 
HETATM   20  F   UNK N   1      -2.360   4.706   1.014  0.00  0.00    -0.203 F 
HETATM   21  F   UNK N   1      -4.595   5.715  -0.256  0.00  0.00    -0.203 F 
HETATM   22  C   UNK N   1      -5.392   3.499  -0.644  0.00  0.00     0.070 A 
HETATM   23  C   UNK N   1      -5.222   2.111  -0.543  0.00  0.00     0.052 A 
HETATM   24 Cl   UNK N   1      -6.447   1.075  -1.261  0.00  0.00    -0.083 Cl
ENDBRANCH  12  16
ENDBRANCH   1   8
BRANCH   5  25
HETATM   25  N   UNK N   1       2.018  -1.014  -1.373  0.00  0.00    -0.379 N 
HETATM   26  C   UNK N   1       0.777  -1.496  -1.950  0.00  0.00     0.124 C 
HETATM   27  C   UNK N   1       0.346  -2.816  -1.316  0.00  0.00     0.035 C 
HETATM   28  C   UNK N   1       1.282  -3.225  -0.176  0.00  0.00     0.086 C 
HETATM   29  C   UNK N   1       2.745  -3.236  -0.671  0.00  0.00     0.035 C 
HETATM   30  C   UNK N   1       3.150  -1.910  -1.356  0.00  0.00     0.124 C 
BRANCH  28  31
HETATM   31  C   UNK N   1       0.873  -4.538   0.425  0.00  0.00     0.143 C 
HETATM   32  O   UNK N   1       1.475  -4.974   1.392  0.00  0.00    -0.650 OA
BRANCH  31  33
HETATM   33  O   UNK N   1      -0.177  -5.225  -0.070  0.00  0.00    -0.776 OA
HETATM   34  H   UNK N   1      -0.955  -4.832  -0.413  0.00  0.00     0.167 HD
ENDBRANCH  31  33
ENDBRANCH  28  31
ENDBRANCH   5  25
TORSDOF 5
