MODEL 1
REMARK VINA RESULT:      -8.8      0.000      0.000
REMARK  5 active torsions:
REMARK  status: ('A' for Active; 'I' for Inactive)
REMARK    1  A    between atoms: C_11  and  C_12 
REMARK    2  A    between atoms: C_12  and  N_13 
REMARK       I    between atoms: N_13  and  C_14 
REMARK    3  A    between atoms: C_14  and  C_16 
REMARK    4  A    between atoms: C_30  and  C_31 
REMARK    5  A    between atoms: C_31  and  C_32 
REMARK       I    between atoms: C_32  and  N_34 
ROOT
HETATM    1  C   UNK N   1      26.018  23.974  -7.737  0.00  0.00     0.178 A 
HETATM    2  N   UNK N   1      26.801  24.720  -8.571  0.00  0.00    -0.331 N 
ATOM      3  HN  UNK N   1      27.056  24.373  -9.496  1.00  0.00     0.168 HD
HETATM    4  N   UNK N   1      25.641  24.474  -6.520  0.00  0.00    -0.304 N 
HETATM    5  C   UNK N   1      26.025  25.721  -6.098  0.00  0.00     0.260 A 
HETATM    6  O   UNK N   1      25.644  26.139  -5.020  0.00  0.00    -0.267 OA
HETATM    7  C   UNK N   1      26.865  26.474  -6.920  0.00  0.00     0.073 A 
HETATM    8  C   UNK N   1      27.436  27.767  -6.688  0.00  0.00    -0.022 A 
HETATM    9  C   UNK N   1      27.230  25.931  -8.144  0.00  0.00     0.092 A 
HETATM   10  S   UNK N   1      28.250  26.986  -8.907  0.00  0.00    -0.075 SA
HETATM   11  C   UNK N   1      28.279  28.173  -7.740  0.00  0.00    -0.008 A 
HETATM   12  C   UNK N   1      29.086  29.430  -7.748  0.00  0.00     0.047 C 
HETATM   13  C   UNK N   1      29.206  29.976  -6.320  0.00  0.00     0.006 C 
HETATM   14  C   UNK N   1      27.827  30.037  -5.661  0.00  0.00     0.010 C 
HETATM   15  C   UNK N   1      27.199  28.640  -5.476  0.00  0.00     0.029 C 
HETATM   16  H   UNK N   1      25.077  23.923  -5.930  0.00  0.00     0.171 HD
ENDROOT
BRANCH   1  17
HETATM   17  C   UNK N   1      25.556  22.632  -8.151  0.00  0.00     0.286 C 
HETATM   18  N   UNK N   1      26.430  21.620  -8.394  0.00  0.00    -0.350 N 
HETATM   19  H   UNK N   1      26.088  20.697  -8.436  0.00  0.00     0.163 HD
HETATM   20  O   UNK N   1      24.363  22.436  -8.315  0.00  0.00    -0.264 OA
BRANCH  18  21
HETATM   21  C   UNK N   1      27.845  21.848  -8.592  0.00  0.00     0.161 C 
BRANCH  21  22
HETATM   22  C   UNK N   1      28.689  21.470  -7.427  0.00  0.00    -0.038 A 
HETATM   23  C   UNK N   1      28.757  22.336  -6.331  0.00  0.00     0.041 A 
HETATM   24  C   UNK N   1      29.626  22.061  -5.274  0.00  0.00     0.069 A 
HETATM   25  N   UNK N   1      29.720  22.947  -4.178  0.00  0.00    -0.323 N 
HETATM   26  C   UNK N   1      30.431  20.915  -5.307  0.00  0.00     0.096 A 
HETATM   27  C   UNK N   1      30.585  22.702  -3.166  0.00  0.00     0.246 A 
HETATM   28  H   UNK N   1      29.153  23.751  -4.150  0.00  0.00     0.169 HD
HETATM   29  O   UNK N   1      30.663  23.485  -2.235  0.00  0.00    -0.271 OA
HETATM   30  C   UNK N   1      31.459  21.467  -3.174  0.00  0.00     0.278 A 
HETATM   31  O   UNK N   1      31.286  20.654  -4.289  0.00  0.00    -0.340 OA
HETATM   32  C   UNK N   1      30.360  20.046  -6.400  0.00  0.00     0.040 A 
HETATM   33  C   UNK N   1      29.500  20.329  -7.467  0.00  0.00     0.012 A 
ENDBRANCH  21  22
ENDBRANCH  18  21
ENDBRANCH   1  17
BRANCH  15  34
HETATM   34  C   UNK N   1      27.723  27.963  -4.208  0.00  0.00     0.111 C 
BRANCH  34  35
HETATM   35  C   UNK N   1      26.935  28.361  -2.995  0.00  0.00     0.215 C 
HETATM   36  O   UNK N   1      27.344  29.239  -2.252  0.00  0.00    -0.274 OA
HETATM   37  N   UNK N   1      25.765  27.749  -2.727  0.00  0.00    -0.370 N 
HETATM   38  H   UNK N   1      25.314  27.218  -3.423  0.00  0.00     0.159 HD
HETATM   39  H   UNK N   1      25.360  27.833  -1.834  0.00  0.00     0.159 HD
ENDBRANCH  34  35
ENDBRANCH  15  34
TORSDOF 5
ENDMDL
MODEL 2
REMARK VINA RESULT:      -8.8     18.422     23.184
REMARK  5 active torsions:
REMARK  status: ('A' for Active; 'I' for Inactive)
REMARK    1  A    between atoms: C_11  and  C_12 
REMARK    2  A    between atoms: C_12  and  N_13 
REMARK       I    between atoms: N_13  and  C_14 
REMARK    3  A    between atoms: C_14  and  C_16 
REMARK    4  A    between atoms: C_30  and  C_31 
REMARK    5  A    between atoms: C_31  and  C_32 
REMARK       I    between atoms: C_32  and  N_34 
ROOT
HETATM    1  C   UNK N   1      36.457  14.177  11.610  0.00  0.00     0.178 A 
HETATM    2  N   UNK N   1      36.159  12.845  11.557  0.00  0.00    -0.331 N 
ATOM      3  HN  UNK N   1      36.090  12.362  10.661  1.00  0.00     0.168 HD
HETATM    4  N   UNK N   1      36.597  14.802  12.820  0.00  0.00    -0.304 N 
HETATM    5  C   UNK N   1      36.449  14.127  14.005  0.00  0.00     0.260 A 
HETATM    6  O   UNK N   1      36.610  14.713  15.059  0.00  0.00    -0.267 OA
HETATM    7  C   UNK N   1      36.097  12.777  13.965  0.00  0.00     0.073 A 
HETATM    8  C   UNK N   1      35.842  11.875  15.048  0.00  0.00    -0.022 A 
HETATM    9  C   UNK N   1      35.959  12.180  12.719  0.00  0.00     0.092 A 
HETATM   10  S   UNK N   1      35.504  10.605  12.934  0.00  0.00    -0.075 SA
HETATM   11  C   UNK N   1      35.461  10.597  14.599  0.00  0.00    -0.008 A 
HETATM   12  C   UNK N   1      35.045   9.470  15.488  0.00  0.00     0.047 C 
HETATM   13  C   UNK N   1      34.679  10.014  16.873  0.00  0.00     0.006 C 
HETATM   14  C   UNK N   1      35.787  10.935  17.388  0.00  0.00     0.010 C 
HETATM   15  C   UNK N   1      35.951  12.201  16.521  0.00  0.00     0.029 C 
HETATM   16  H   UNK N   1      36.810  15.763  12.842  0.00  0.00     0.171 HD
ENDROOT
BRANCH   1  17
HETATM   17  C   UNK N   1      36.649  14.949  10.363  0.00  0.00     0.286 C 
HETATM   18  N   UNK N   1      35.620  15.605   9.764  0.00  0.00    -0.350 N 
HETATM   19  H   UNK N   1      35.825  16.286   9.083  0.00  0.00     0.163 HD
HETATM   20  O   UNK N   1      37.750  14.968   9.838  0.00  0.00    -0.264 OA
BRANCH  18  21
HETATM   21  C   UNK N   1      34.236  15.338  10.090  0.00  0.00     0.161 C 
BRANCH  21  22
HETATM   22  C   UNK N   1      33.272  15.779   9.047  0.00  0.00    -0.038 A 
HETATM   23  C   UNK N   1      32.655  14.813   8.244  0.00  0.00     0.041 A 
HETATM   24  C   UNK N   1      31.832  15.204   7.186  0.00  0.00     0.069 A 
HETATM   25  N   UNK N   1      31.230  14.234   6.354  0.00  0.00    -0.323 N 
HETATM   26  C   UNK N   1      31.620  16.564   6.927  0.00  0.00     0.096 A 
HETATM   27  C   UNK N   1      30.458  14.608   5.307  0.00  0.00     0.246 A 
HETATM   28  H   UNK N   1      31.375  13.278   6.537  0.00  0.00     0.169 HD
HETATM   29  O   UNK N   1      29.959  13.757   4.591  0.00  0.00    -0.271 OA
HETATM   30  C   UNK N   1      30.207  16.070   5.011  0.00  0.00     0.278 A 
HETATM   31  O   UNK N   1      30.834  16.945   5.892  0.00  0.00    -0.340 OA
HETATM   32  C   UNK N   1      32.232  17.530   7.732  0.00  0.00     0.040 A 
HETATM   33  C   UNK N   1      33.068  17.139   8.784  0.00  0.00     0.012 A 
ENDBRANCH  21  22
ENDBRANCH  18  21
ENDBRANCH   1  17
BRANCH  15  34
HETATM   34  C   UNK N   1      34.937  13.277  16.916  0.00  0.00     0.111 C 
BRANCH  34  35
HETATM   35  C   UNK N   1      35.347  14.000  18.165  0.00  0.00     0.215 C 
HETATM   36  O   UNK N   1      34.986  13.598  19.260  0.00  0.00    -0.274 OA
HETATM   37  N   UNK N   1      36.125  15.097  18.079  0.00  0.00    -0.370 N 
HETATM   38  H   UNK N   1      36.609  15.295  17.245  0.00  0.00     0.159 HD
HETATM   39  H   UNK N   1      36.209  15.701  18.850  0.00  0.00     0.159 HD
ENDBRANCH  34  35
ENDBRANCH  15  34
TORSDOF 5
ENDMDL
MODEL 3
REMARK VINA RESULT:      -8.7     15.328     20.201
REMARK  5 active torsions:
REMARK  status: ('A' for Active; 'I' for Inactive)
REMARK    1  A    between atoms: C_11  and  C_12 
REMARK    2  A    between atoms: C_12  and  N_13 
REMARK       I    between atoms: N_13  and  C_14 
REMARK    3  A    between atoms: C_14  and  C_16 
REMARK    4  A    between atoms: C_30  and  C_31 
REMARK    5  A    between atoms: C_31  and  C_32 
REMARK       I    between atoms: C_32  and  N_34 
ROOT
HETATM    1  C   UNK N   1      34.690  16.914   9.014  0.00  0.00     0.178 A 
HETATM    2  N   UNK N   1      34.839  15.727   8.355  0.00  0.00    -0.331 N 
ATOM      3  HN  UNK N   1      34.588  15.644   7.369  1.00  0.00     0.168 HD
HETATM    4  N   UNK N   1      35.078  17.025  10.323  0.00  0.00    -0.304 N 
HETATM    5  C   UNK N   1      35.623  15.971  11.009  0.00  0.00     0.260 A 
HETATM    6  O   UNK N   1      35.981  16.119  12.162  0.00  0.00    -0.267 OA
HETATM    7  C   UNK N   1      35.736  14.739  10.361  0.00  0.00     0.073 A 
HETATM    8  C   UNK N   1      36.222  13.491  10.868  0.00  0.00    -0.022 A 
HETATM    9  C   UNK N   1      35.327  14.665   9.037  0.00  0.00     0.092 A 
HETATM   10  S   UNK N   1      35.520  13.109   8.510  0.00  0.00    -0.075 SA
HETATM   11  C   UNK N   1      36.128  12.458   9.917  0.00  0.00    -0.008 A 
HETATM   12  C   UNK N   1      36.471  11.027  10.177  0.00  0.00     0.047 C 
HETATM   13  C   UNK N   1      36.515  10.772  11.688  0.00  0.00     0.006 C 
HETATM   14  C   UNK N   1      37.376  11.833  12.377  0.00  0.00     0.010 C 
HETATM   15  C   UNK N   1      36.779  13.250  12.253  0.00  0.00     0.029 C 
HETATM   16  H   UNK N   1      34.963  17.887  10.785  0.00  0.00     0.171 HD
ENDROOT
BRANCH   1  17
HETATM   17  C   UNK N   1      34.128  18.090   8.316  0.00  0.00     0.286 C 
HETATM   18  N   UNK N   1      32.790  18.324   8.275  0.00  0.00    -0.350 N 
HETATM   19  H   UNK N   1      32.473  19.219   8.012  0.00  0.00     0.163 HD
HETATM   20  O   UNK N   1      34.881  18.851   7.730  0.00  0.00    -0.264 OA
BRANCH  18  21
HETATM   21  C   UNK N   1      31.815  17.307   8.604  0.00  0.00     0.161 C 
BRANCH  21  22
HETATM   22  C   UNK N   1      30.502  17.484   7.927  0.00  0.00    -0.038 A 
HETATM   23  C   UNK N   1      30.291  16.867   6.689  0.00  0.00     0.041 A 
HETATM   24  C   UNK N   1      29.112  17.106   5.980  0.00  0.00     0.069 A 
HETATM   25  N   UNK N   1      28.906  16.510   4.717  0.00  0.00    -0.323 N 
HETATM   26  C   UNK N   1      28.138  17.963   6.507  0.00  0.00     0.096 A 
HETATM   27  C   UNK N   1      27.780  16.764   4.011  0.00  0.00     0.246 A 
HETATM   28  H   UNK N   1      29.588  15.904   4.346  0.00  0.00     0.169 HD
HETATM   29  O   UNK N   1      27.626  16.251   2.915  0.00  0.00    -0.271 OA
HETATM   30  C   UNK N   1      26.708  17.678   4.561  0.00  0.00     0.278 A 
HETATM   31  O   UNK N   1      27.000  18.208   5.814  0.00  0.00    -0.340 OA
HETATM   32  C   UNK N   1      28.346  18.576   7.747  0.00  0.00     0.040 A 
HETATM   33  C   UNK N   1      29.533  18.348   8.452  0.00  0.00     0.012 A 
ENDBRANCH  21  22
ENDBRANCH  18  21
ENDBRANCH   1  17
BRANCH  15  34
HETATM   34  C   UNK N   1      35.710  13.494  13.320  0.00  0.00     0.111 C 
BRANCH  34  35
HETATM   35  C   UNK N   1      36.314  13.834  14.650  0.00  0.00     0.215 C 
HETATM   36  O   UNK N   1      36.108  13.126  15.623  0.00  0.00    -0.274 OA
HETATM   37  N   UNK N   1      37.095  14.926  14.770  0.00  0.00    -0.370 N 
HETATM   38  H   UNK N   1      37.456  15.366  13.967  0.00  0.00     0.159 HD
HETATM   39  H   UNK N   1      37.304  15.284  15.663  0.00  0.00     0.159 HD
ENDBRANCH  34  35
ENDBRANCH  15  34
TORSDOF 5
ENDMDL
MODEL 4
REMARK VINA RESULT:      -8.3     14.986     19.019
REMARK  5 active torsions:
REMARK  status: ('A' for Active; 'I' for Inactive)
REMARK    1  A    between atoms: C_11  and  C_12 
REMARK    2  A    between atoms: C_12  and  N_13 
REMARK       I    between atoms: N_13  and  C_14 
REMARK    3  A    between atoms: C_14  and  C_16 
REMARK    4  A    between atoms: C_30  and  C_31 
REMARK    5  A    between atoms: C_31  and  C_32 
REMARK       I    between atoms: C_32  and  N_34 
ROOT
HETATM    1  C   UNK N   1      33.515  17.339   8.347  0.00  0.00     0.178 A 
HETATM    2  N   UNK N   1      32.358  17.506   9.053  0.00  0.00    -0.331 N 
ATOM      3  HN  UNK N   1      32.383  17.704  10.054  1.00  0.00     0.168 HD
HETATM    4  N   UNK N   1      33.470  17.125   6.995  0.00  0.00    -0.304 N 
HETATM    5  C   UNK N   1      32.283  17.075   6.310  0.00  0.00     0.260 A 
HETATM    6  O   UNK N   1      32.288  16.911   5.104  0.00  0.00    -0.267 OA
HETATM    7  C   UNK N   1      31.092  17.196   7.026  0.00  0.00     0.073 A 
HETATM    8  C   UNK N   1      29.741  17.131   6.555  0.00  0.00    -0.022 A 
HETATM    9  C   UNK N   1      31.179  17.406   8.396  0.00  0.00     0.092 A 
HETATM   10  S   UNK N   1      29.648  17.476   9.019  0.00  0.00    -0.075 SA
HETATM   11  C   UNK N   1      28.806  17.249   7.600  0.00  0.00    -0.008 A 
HETATM   12  C   UNK N   1      27.326  17.130   7.437  0.00  0.00     0.047 C 
HETATM   13  C   UNK N   1      27.007  16.448   6.101  0.00  0.00     0.006 C 
HETATM   14  C   UNK N   1      27.782  17.122   4.967  0.00  0.00     0.010 C 
HETATM   15  C   UNK N   1      29.308  16.958   5.117  0.00  0.00     0.029 C 
HETATM   16  H   UNK N   1      34.312  17.004   6.501  0.00  0.00     0.171 HD
ENDROOT
BRANCH   1  17
HETATM   17  C   UNK N   1      34.824  17.406   9.032  0.00  0.00     0.286 C 
HETATM   18  N   UNK N   1      35.450  16.289   9.487  0.00  0.00    -0.350 N 
HETATM   19  H   UNK N   1      36.405  16.342   9.721  0.00  0.00     0.163 HD
HETATM   20  O   UNK N   1      35.339  18.495   9.228  0.00  0.00    -0.264 OA
BRANCH  18  21
HETATM   21  C   UNK N   1      34.764  15.024   9.639  0.00  0.00     0.161 C 
BRANCH  21  22
HETATM   22  C   UNK N   1      35.013  14.352  10.943  0.00  0.00    -0.038 A 
HETATM   23  C   UNK N   1      35.686  15.054  11.948  0.00  0.00     0.041 A 
HETATM   24  C   UNK N   1      36.030  14.413  13.139  0.00  0.00     0.069 A 
HETATM   25  N   UNK N   1      36.735  15.109  14.147  0.00  0.00    -0.323 N 
HETATM   26  C   UNK N   1      35.702  13.065  13.331  0.00  0.00     0.096 A 
HETATM   27  C   UNK N   1      37.101  14.482  15.289  0.00  0.00     0.246 A 
HETATM   28  H   UNK N   1      36.964  16.057  14.015  0.00  0.00     0.169 HD
HETATM   29  O   UNK N   1      37.722  15.095  16.141  0.00  0.00    -0.271 OA
HETATM   30  C   UNK N   1      36.751  13.030  15.525  0.00  0.00     0.278 A 
HETATM   31  O   UNK N   1      36.049  12.437  14.481  0.00  0.00    -0.340 OA
HETATM   32  C   UNK N   1      35.025  12.363  12.329  0.00  0.00     0.040 A 
HETATM   33  C   UNK N   1      34.692  13.001  11.129  0.00  0.00     0.012 A 
ENDBRANCH  21  22
ENDBRANCH  18  21
ENDBRANCH   1  17
BRANCH  15  34
HETATM   34  C   UNK N   1      29.774  15.607   4.568  0.00  0.00     0.111 C 
BRANCH  34  35
HETATM   35  C   UNK N   1      30.180  15.698   3.127  0.00  0.00     0.215 C 
HETATM   36  O   UNK N   1      30.297  14.688   2.452  0.00  0.00    -0.274 OA
HETATM   37  N   UNK N   1      30.411  16.904   2.572  0.00  0.00    -0.370 N 
HETATM   38  H   UNK N   1      30.101  17.722   3.022  0.00  0.00     0.159 HD
HETATM   39  H   UNK N   1      30.891  16.966   1.715  0.00  0.00     0.159 HD
ENDBRANCH  34  35
ENDBRANCH  15  34
TORSDOF 5
ENDMDL
MODEL 5
REMARK VINA RESULT:      -8.3     12.776     16.008
REMARK  5 active torsions:
REMARK  status: ('A' for Active; 'I' for Inactive)
REMARK    1  A    between atoms: C_11  and  C_12 
REMARK    2  A    between atoms: C_12  and  N_13 
REMARK       I    between atoms: N_13  and  C_14 
REMARK    3  A    between atoms: C_14  and  C_16 
REMARK    4  A    between atoms: C_30  and  C_31 
REMARK    5  A    between atoms: C_31  and  C_32 
REMARK       I    between atoms: C_32  and  N_34 
ROOT
HETATM    1  C   UNK N   1      26.101  18.944   4.629  0.00  0.00     0.178 A 
HETATM    2  N   UNK N   1      26.421  19.122   5.945  0.00  0.00    -0.331 N 
ATOM      3  HN  UNK N   1      25.785  19.611   6.574  1.00  0.00     0.168 HD
HETATM    4  N   UNK N   1      26.940  18.240   3.807  0.00  0.00    -0.304 N 
HETATM    5  C   UNK N   1      28.112  17.695   4.265  0.00  0.00     0.260 A 
HETATM    6  O   UNK N   1      28.817  17.052   3.508  0.00  0.00    -0.267 OA
HETATM    7  C   UNK N   1      28.475  17.911   5.595  0.00  0.00     0.073 A 
HETATM    8  C   UNK N   1      29.655  17.492   6.292  0.00  0.00    -0.022 A 
HETATM    9  C   UNK N   1      27.600  18.633   6.396  0.00  0.00     0.092 A 
HETATM   10  S   UNK N   1      28.266  18.787   7.902  0.00  0.00    -0.075 SA
HETATM   11  C   UNK N   1      29.679  17.952   7.621  0.00  0.00    -0.008 A 
HETATM   12  C   UNK N   1      30.817  17.755   8.570  0.00  0.00     0.047 C 
HETATM   13  C   UNK N   1      32.082  17.384   7.789  0.00  0.00     0.006 C 
HETATM   14  C   UNK N   1      31.783  16.245   6.812  0.00  0.00     0.010 C 
HETATM   15  C   UNK N   1      30.776  16.655   5.718  0.00  0.00     0.029 C 
HETATM   16  H   UNK N   1      26.696  18.122   2.861  0.00  0.00     0.171 HD
ENDROOT
BRANCH   1  17
HETATM   17  C   UNK N   1      24.839  19.491   4.088  0.00  0.00     0.286 C 
HETATM   18  N   UNK N   1      23.663  18.817   4.196  0.00  0.00    -0.350 N 
HETATM   19  H   UNK N   1      22.822  19.304   4.040  0.00  0.00     0.163 HD
HETATM   20  O   UNK N   1      24.857  20.558   3.495  0.00  0.00    -0.264 OA
BRANCH  18  21
HETATM   21  C   UNK N   1      23.604  17.412   4.535  0.00  0.00     0.161 C 
BRANCH  21  22
HETATM   22  C   UNK N   1      22.712  17.102   5.684  0.00  0.00    -0.038 A 
HETATM   23  C   UNK N   1      22.767  15.828   6.259  0.00  0.00     0.041 A 
HETATM   24  C   UNK N   1      21.865  15.474   7.264  0.00  0.00     0.069 A 
HETATM   25  N   UNK N   1      21.897  14.179   7.828  0.00  0.00    -0.323 N 
HETATM   26  C   UNK N   1      20.904  16.394   7.701  0.00  0.00     0.096 A 
HETATM   27  C   UNK N   1      21.004  13.820   8.780  0.00  0.00     0.246 A 
HETATM   28  H   UNK N   1      22.573  13.532   7.525  0.00  0.00     0.169 HD
HETATM   29  O   UNK N   1      21.037  12.694   9.245  0.00  0.00    -0.271 OA
HETATM   30  C   UNK N   1      19.962  14.799   9.275  0.00  0.00     0.278 A 
HETATM   31  O   UNK N   1      20.019  16.048   8.666  0.00  0.00    -0.340 OA
HETATM   32  C   UNK N   1      20.852  17.670   7.130  0.00  0.00     0.040 A 
HETATM   33  C   UNK N   1      21.746  18.021   6.113  0.00  0.00     0.012 A 
ENDBRANCH  21  22
ENDBRANCH  18  21
ENDBRANCH   1  17
BRANCH  15  34
HETATM   34  C   UNK N   1      31.473  17.392   4.573  0.00  0.00     0.111 C 
BRANCH  34  35
HETATM   35  C   UNK N   1      32.121  16.442   3.609  0.00  0.00     0.215 C 
HETATM   36  O   UNK N   1      33.311  16.533   3.356  0.00  0.00    -0.274 OA
HETATM   37  N   UNK N   1      31.384  15.478   3.023  0.00  0.00    -0.370 N 
HETATM   38  H   UNK N   1      30.498  15.246   3.383  0.00  0.00     0.159 HD
HETATM   39  H   UNK N   1      31.732  15.006   2.233  0.00  0.00     0.159 HD
ENDBRANCH  34  35
ENDBRANCH  15  34
TORSDOF 5
ENDMDL
MODEL 6
REMARK VINA RESULT:      -8.1     16.219     20.011
REMARK  5 active torsions:
REMARK  status: ('A' for Active; 'I' for Inactive)
REMARK    1  A    between atoms: C_11  and  C_12 
REMARK    2  A    between atoms: C_12  and  N_13 
REMARK       I    between atoms: N_13  and  C_14 
REMARK    3  A    between atoms: C_14  and  C_16 
REMARK    4  A    between atoms: C_30  and  C_31 
REMARK    5  A    between atoms: C_31  and  C_32 
REMARK       I    between atoms: C_32  and  N_34 
ROOT
HETATM    1  C   UNK N   1      34.579  15.496   9.122  0.00  0.00     0.178 A 
HETATM    2  N   UNK N   1      34.644  15.711   7.775  0.00  0.00    -0.331 N 
ATOM      3  HN  UNK N   1      35.523  15.589   7.270  1.00  0.00     0.168 HD
HETATM    4  N   UNK N   1      33.383  15.613   9.779  0.00  0.00    -0.304 N 
HETATM    5  C   UNK N   1      32.225  15.941   9.122  0.00  0.00     0.260 A 
HETATM    6  O   UNK N   1      31.178  16.007   9.737  0.00  0.00    -0.267 OA
HETATM    7  C   UNK N   1      32.287  16.211   7.753  0.00  0.00     0.073 A 
HETATM    8  C   UNK N   1      31.242  16.615   6.862  0.00  0.00    -0.022 A 
HETATM    9  C   UNK N   1      33.519  16.087   7.124  0.00  0.00     0.092 A 
HETATM   10  S   UNK N   1      33.342  16.494   5.531  0.00  0.00    -0.075 SA
HETATM   11  C   UNK N   1      31.713  16.841   5.556  0.00  0.00    -0.008 A 
HETATM   12  C   UNK N   1      30.881  17.356   4.426  0.00  0.00     0.047 C 
HETATM   13  C   UNK N   1      29.603  17.998   4.978  0.00  0.00     0.006 C 
HETATM   14  C   UNK N   1      28.924  17.052   5.970  0.00  0.00     0.010 C 
HETATM   15  C   UNK N   1      29.785  16.795   7.224  0.00  0.00     0.029 C 
HETATM   16  H   UNK N   1      33.353  15.456  10.750  0.00  0.00     0.171 HD
ENDROOT
BRANCH   1  17
HETATM   17  C   UNK N   1      35.793  15.117   9.877  0.00  0.00     0.286 C 
HETATM   18  N   UNK N   1      36.098  13.818  10.134  0.00  0.00    -0.350 N 
HETATM   19  H   UNK N   1      37.011  13.594  10.426  0.00  0.00     0.163 HD
HETATM   20  O   UNK N   1      36.521  15.994  10.314  0.00  0.00    -0.264 OA
BRANCH  18  21
HETATM   21  C   UNK N   1      35.129  12.752   9.994  0.00  0.00     0.161 C 
BRANCH  21  22
HETATM   22  C   UNK N   1      34.796  12.064  11.270  0.00  0.00    -0.038 A 
HETATM   23  C   UNK N   1      35.044  12.723  12.479  0.00  0.00     0.041 A 
HETATM   24  C   UNK N   1      34.846  12.059  13.691  0.00  0.00     0.069 A 
HETATM   25  N   UNK N   1      35.121  12.709  14.914  0.00  0.00    -0.323 N 
HETATM   26  C   UNK N   1      34.398  10.732  13.700  0.00  0.00     0.096 A 
HETATM   27  C   UNK N   1      34.963  12.060  16.091  0.00  0.00     0.246 A 
HETATM   28  H   UNK N   1      35.433  13.643  14.911  0.00  0.00     0.169 HD
HETATM   29  O   UNK N   1      35.219  12.633  17.136  0.00  0.00    -0.271 OA
HETATM   30  C   UNK N   1      34.472  10.630  16.128  0.00  0.00     0.278 A 
HETATM   31  O   UNK N   1      34.219  10.082  14.875  0.00  0.00    -0.340 OA
HETATM   32  C   UNK N   1      34.145  10.074  12.492  0.00  0.00     0.040 A 
HETATM   33  C   UNK N   1      34.357  10.734  11.276  0.00  0.00     0.012 A 
ENDBRANCH  21  22
ENDBRANCH  18  21
ENDBRANCH   1  17
BRANCH  15  34
HETATM   34  C   UNK N   1      29.614  17.917   8.250  0.00  0.00     0.111 C 
BRANCH  34  35
HETATM   35  C   UNK N   1      28.215  17.975   8.789  0.00  0.00     0.215 C 
HETATM   36  O   UNK N   1      27.765  17.048   9.443  0.00  0.00    -0.274 OA
HETATM   37  N   UNK N   1      27.453  19.061   8.554  0.00  0.00    -0.370 N 
HETATM   38  H   UNK N   1      27.866  19.897   8.239  0.00  0.00     0.159 HD
HETATM   39  H   UNK N   1      26.480  19.018   8.697  0.00  0.00     0.159 HD
ENDBRANCH  34  35
ENDBRANCH  15  34
TORSDOF 5
ENDMDL
MODEL 7
REMARK VINA RESULT:      -7.9     14.287     17.439
REMARK  5 active torsions:
REMARK  status: ('A' for Active; 'I' for Inactive)
REMARK    1  A    between atoms: C_11  and  C_12 
REMARK    2  A    between atoms: C_12  and  N_13 
REMARK       I    between atoms: N_13  and  C_14 
REMARK    3  A    between atoms: C_14  and  C_16 
REMARK    4  A    between atoms: C_30  and  C_31 
REMARK    5  A    between atoms: C_31  and  C_32 
REMARK       I    between atoms: C_32  and  N_34 
ROOT
HETATM    1  C   UNK N   1      26.004  15.509   5.179  0.00  0.00     0.178 A 
HETATM    2  N   UNK N   1      24.828  16.204   5.166  0.00  0.00    -0.331 N 
ATOM      3  HN  UNK N   1      24.707  17.012   4.556  1.00  0.00     0.168 HD
HETATM    4  N   UNK N   1      26.135  14.396   5.965  0.00  0.00    -0.304 N 
HETATM    5  C   UNK N   1      25.109  13.941   6.753  0.00  0.00     0.260 A 
HETATM    6  O   UNK N   1      25.257  12.930   7.415  0.00  0.00    -0.267 OA
HETATM    7  C   UNK N   1      23.919  14.669   6.786  0.00  0.00     0.073 A 
HETATM    8  C   UNK N   1      22.733  14.431   7.553  0.00  0.00    -0.022 A 
HETATM    9  C   UNK N   1      23.826  15.795   5.979  0.00  0.00     0.092 A 
HETATM   10  S   UNK N   1      22.350  16.500   6.223  0.00  0.00    -0.075 SA
HETATM   11  C   UNK N   1      21.758  15.425   7.349  0.00  0.00    -0.008 A 
HETATM   12  C   UNK N   1      20.454  15.501   8.074  0.00  0.00     0.047 C 
HETATM   13  C   UNK N   1      20.514  14.634   9.337  0.00  0.00     0.006 C 
HETATM   14  C   UNK N   1      21.041  13.239   8.994  0.00  0.00     0.010 C 
HETATM   15  C   UNK N   1      22.499  13.267   8.490  0.00  0.00     0.029 C 
HETATM   16  H   UNK N   1      26.990  13.907   5.964  0.00  0.00     0.171 HD
ENDROOT
BRANCH   1  17
HETATM   17  C   UNK N   1      27.136  15.942   4.331  0.00  0.00     0.286 C 
HETATM   18  N   UNK N   1      28.178  16.651   4.839  0.00  0.00    -0.350 N 
HETATM   19  H   UNK N   1      29.008  16.717   4.313  0.00  0.00     0.163 HD
HETATM   20  O   UNK N   1      27.116  15.691   3.137  0.00  0.00    -0.264 OA
BRANCH  18  21
HETATM   21  C   UNK N   1      28.114  17.309   6.127  0.00  0.00     0.161 C 
BRANCH  21  22
HETATM   22  C   UNK N   1      29.436  17.481   6.786  0.00  0.00    -0.038 A 
HETATM   23  C   UNK N   1      30.587  17.049   6.117  0.00  0.00     0.041 A 
HETATM   24  C   UNK N   1      31.827  17.096   6.757  0.00  0.00     0.069 A 
HETATM   25  N   UNK N   1      32.988  16.633   6.098  0.00  0.00    -0.323 N 
HETATM   26  C   UNK N   1      31.923  17.579   8.068  0.00  0.00     0.096 A 
HETATM   27  C   UNK N   1      34.187  16.647   6.725  0.00  0.00     0.246 A 
HETATM   28  H   UNK N   1      32.923  16.297   5.175  0.00  0.00     0.169 HD
HETATM   29  O   UNK N   1      35.176  16.230   6.146  0.00  0.00    -0.271 OA
HETATM   30  C   UNK N   1      34.319  17.171   8.138  0.00  0.00     0.278 A 
HETATM   31  O   UNK N   1      33.124  17.612   8.695  0.00  0.00    -0.340 OA
HETATM   32  C   UNK N   1      30.774  18.016   8.735  0.00  0.00     0.040 A 
HETATM   33  C   UNK N   1      29.529  17.956   8.100  0.00  0.00     0.012 A 
ENDBRANCH  21  22
ENDBRANCH  18  21
ENDBRANCH   1  17
BRANCH  15  34
HETATM   34  C   UNK N   1      23.487  13.302   9.658  0.00  0.00     0.111 C 
BRANCH  34  35
HETATM   35  C   UNK N   1      23.282  12.152  10.599  0.00  0.00     0.215 C 
HETATM   36  O   UNK N   1      23.082  11.027  10.168  0.00  0.00    -0.274 OA
HETATM   37  N   UNK N   1      23.323  12.360  11.930  0.00  0.00    -0.370 N 
HETATM   38  H   UNK N   1      23.707  13.193  12.287  0.00  0.00     0.159 HD
HETATM   39  H   UNK N   1      22.969  11.679  12.545  0.00  0.00     0.159 HD
ENDBRANCH  34  35
ENDBRANCH  15  34
TORSDOF 5
ENDMDL
MODEL 8
REMARK VINA RESULT:      -7.9     12.952     15.000
REMARK  5 active torsions:
REMARK  status: ('A' for Active; 'I' for Inactive)
REMARK    1  A    between atoms: C_11  and  C_12 
REMARK    2  A    between atoms: C_12  and  N_13 
REMARK       I    between atoms: N_13  and  C_14 
REMARK    3  A    between atoms: C_14  and  C_16 
REMARK    4  A    between atoms: C_30  and  C_31 
REMARK    5  A    between atoms: C_31  and  C_32 
REMARK       I    between atoms: C_32  and  N_34 
ROOT
HETATM    1  C   UNK N   1      26.330  18.804   5.055  0.00  0.00     0.178 A 
HETATM    2  N   UNK N   1      26.786  17.858   4.181  0.00  0.00    -0.331 N 
ATOM      3  HN  UNK N   1      27.777  17.804   3.943  1.00  0.00     0.168 HD
HETATM    4  N   UNK N   1      25.006  18.833   5.405  0.00  0.00    -0.304 N 
HETATM    5  C   UNK N   1      24.104  17.930   4.904  0.00  0.00     0.260 A 
HETATM    6  O   UNK N   1      22.942  17.973   5.262  0.00  0.00    -0.267 OA
HETATM    7  C   UNK N   1      24.548  16.989   3.973  0.00  0.00     0.073 A 
HETATM    8  C   UNK N   1      23.804  15.983   3.277  0.00  0.00    -0.022 A 
HETATM    9  C   UNK N   1      25.896  16.995   3.639  0.00  0.00     0.092 A 
HETATM   10  S   UNK N   1      26.163  15.826   2.500  0.00  0.00    -0.075 SA
HETATM   11  C   UNK N   1      24.603  15.258   2.374  0.00  0.00    -0.008 A 
HETATM   12  C   UNK N   1      24.096  14.206   1.442  0.00  0.00     0.047 C 
HETATM   13  C   UNK N   1      22.575  14.334   1.297  0.00  0.00     0.006 C 
HETATM   14  C   UNK N   1      21.919  14.418   2.677  0.00  0.00     0.010 C 
HETATM   15  C   UNK N   1      22.330  15.689   3.449  0.00  0.00     0.029 C 
HETATM   16  H   UNK N   1      24.693  19.522   6.035  0.00  0.00     0.171 HD
ENDROOT
BRANCH   1  17
HETATM   17  C   UNK N   1      27.263  19.788   5.644  0.00  0.00     0.286 C 
HETATM   18  N   UNK N   1      28.192  19.428   6.568  0.00  0.00    -0.350 N 
HETATM   19  H   UNK N   1      28.935  20.045   6.759  0.00  0.00     0.163 HD
HETATM   20  O   UNK N   1      27.174  20.962   5.320  0.00  0.00    -0.264 OA
BRANCH  18  21
HETATM   21  C   UNK N   1      28.129  18.170   7.280  0.00  0.00     0.161 C 
BRANCH  21  22
HETATM   22  C   UNK N   1      29.409  17.412   7.287  0.00  0.00    -0.038 A 
HETATM   23  C   UNK N   1      30.407  17.779   8.196  0.00  0.00     0.041 A 
HETATM   24  C   UNK N   1      31.658  17.160   8.149  0.00  0.00     0.069 A 
HETATM   25  N   UNK N   1      32.679  17.546   9.045  0.00  0.00    -0.323 N 
HETATM   26  C   UNK N   1      31.915  16.169   7.194  0.00  0.00     0.096 A 
HETATM   27  C   UNK N   1      33.903  16.973   8.983  0.00  0.00     0.246 A 
HETATM   28  H   UNK N   1      32.499  18.240   9.720  0.00  0.00     0.169 HD
HETATM   29  O   UNK N   1      34.777  17.329   9.755  0.00  0.00    -0.271 OA
HETATM   30  C   UNK N   1      34.204  15.894   7.966  0.00  0.00     0.278 A 
HETATM   31  O   UNK N   1      33.133  15.578   7.138  0.00  0.00    -0.340 OA
HETATM   32  C   UNK N   1      30.916  15.798   6.288  0.00  0.00     0.040 A 
HETATM   33  C   UNK N   1      29.667  16.428   6.325  0.00  0.00     0.012 A 
ENDBRANCH  21  22
ENDBRANCH  18  21
ENDBRANCH   1  17
BRANCH  15  34
HETATM   34  C   UNK N   1      21.483  16.891   3.025  0.00  0.00     0.111 C 
BRANCH  34  35
HETATM   35  C   UNK N   1      20.142  16.895   3.698  0.00  0.00     0.215 C 
HETATM   36  O   UNK N   1      19.993  16.358   4.784  0.00  0.00    -0.274 OA
HETATM   37  N   UNK N   1      19.096  17.501   3.101  0.00  0.00    -0.370 N 
HETATM   38  H   UNK N   1      19.247  18.127   2.357  0.00  0.00     0.159 HD
HETATM   39  H   UNK N   1      18.181  17.317   3.411  0.00  0.00     0.159 HD
ENDBRANCH  34  35
ENDBRANCH  15  34
TORSDOF 5
ENDMDL
MODEL 9
REMARK VINA RESULT:      -7.8     17.440     22.328
REMARK  5 active torsions:
REMARK  status: ('A' for Active; 'I' for Inactive)
REMARK    1  A    between atoms: C_11  and  C_12 
REMARK    2  A    between atoms: C_12  and  N_13 
REMARK       I    between atoms: N_13  and  C_14 
REMARK    3  A    between atoms: C_14  and  C_16 
REMARK    4  A    between atoms: C_30  and  C_31 
REMARK    5  A    between atoms: C_31  and  C_32 
REMARK       I    between atoms: C_32  and  N_34 
ROOT
HETATM    1  C   UNK N   1      35.685  15.311  11.118  0.00  0.00     0.178 A 
HETATM    2  N   UNK N   1      36.469  14.400  10.469  0.00  0.00    -0.331 N 
ATOM      3  HN  UNK N   1      36.794  14.577   9.518  1.00  0.00     0.168 HD
HETATM    4  N   UNK N   1      35.298  15.085  12.412  0.00  0.00    -0.304 N 
HETATM    5  C   UNK N   1      35.675  13.958  13.094  0.00  0.00     0.260 A 
HETATM    6  O   UNK N   1      35.333  13.808  14.253  0.00  0.00    -0.267 OA
HETATM    7  C   UNK N   1      36.435  12.996  12.427  0.00  0.00     0.073 A 
HETATM    8  C   UNK N   1      36.910  11.729  12.898  0.00  0.00    -0.022 A 
HETATM    9  C   UNK N   1      36.804  13.259  11.115  0.00  0.00     0.092 A 
HETATM   10  S   UNK N   1      37.656  11.965  10.535  0.00  0.00    -0.075 SA
HETATM   11  C   UNK N   1      37.604  11.017  11.903  0.00  0.00    -0.008 A 
HETATM   12  C   UNK N   1      38.139   9.631  12.064  0.00  0.00     0.047 C 
HETATM   13  C   UNK N   1      37.467   8.953  13.263  0.00  0.00     0.006 C 
HETATM   14  C   UNK N   1      37.524   9.870  14.487  0.00  0.00     0.010 C 
HETATM   15  C   UNK N   1      36.717  11.170  14.290  0.00  0.00     0.029 C 
HETATM   16  H   UNK N   1      34.732  15.751  12.865  0.00  0.00     0.171 HD
ENDROOT
BRANCH   1  17
HETATM   17  C   UNK N   1      35.267  16.555  10.437  0.00  0.00     0.286 C 
HETATM   18  N   UNK N   1      34.112  16.626   9.725  0.00  0.00    -0.350 N 
HETATM   19  H   UNK N   1      33.754  17.512   9.488  0.00  0.00     0.163 HD
HETATM   20  O   UNK N   1      35.995  17.534  10.484  0.00  0.00    -0.264 OA
BRANCH  18  21
HETATM   21  C   UNK N   1      33.388  15.446   9.304  0.00  0.00     0.161 C 
BRANCH  21  22
HETATM   22  C   UNK N   1      32.349  15.708   8.272  0.00  0.00    -0.038 A 
HETATM   23  C   UNK N   1      31.489  16.799   8.440  0.00  0.00     0.041 A 
HETATM   24  C   UNK N   1      30.435  17.003   7.547  0.00  0.00     0.069 A 
HETATM   25  N   UNK N   1      29.546  18.086   7.728  0.00  0.00    -0.323 N 
HETATM   26  C   UNK N   1      30.239  16.119   6.479  0.00  0.00     0.096 A 
HETATM   27  C   UNK N   1      28.504  18.269   6.884  0.00  0.00     0.246 A 
HETATM   28  H   UNK N   1      29.684  18.711   8.476  0.00  0.00     0.169 HD
HETATM   29  O   UNK N   1      27.738  19.201   7.065  0.00  0.00    -0.271 OA
HETATM   30  C   UNK N   1      28.275  17.333   5.718  0.00  0.00     0.278 A 
HETATM   31  O   UNK N   1      29.208  16.307   5.620  0.00  0.00    -0.340 OA
HETATM   32  C   UNK N   1      31.101  15.031   6.307  0.00  0.00     0.040 A 
HETATM   33  C   UNK N   1      32.149  14.818   7.210  0.00  0.00     0.012 A 
ENDBRANCH  21  22
ENDBRANCH  18  21
ENDBRANCH   1  17
BRANCH  15  34
HETATM   34  C   UNK N   1      35.232  10.947  14.585  0.00  0.00     0.111 C 
BRANCH  34  35
HETATM   35  C   UNK N   1      34.951  10.930  16.059  0.00  0.00     0.215 C 
HETATM   36  O   UNK N   1      34.552   9.912  16.602  0.00  0.00    -0.274 OA
HETATM   37  N   UNK N   1      35.147  12.045  16.790  0.00  0.00    -0.370 N 
HETATM   38  H   UNK N   1      35.678  12.788  16.425  0.00  0.00     0.159 HD
HETATM   39  H   UNK N   1      34.757  12.116  17.691  0.00  0.00     0.159 HD
ENDBRANCH  34  35
ENDBRANCH  15  34
TORSDOF 5
ENDMDL
