MODEL 1
REMARK VINA RESULT:      -6.1      0.000      0.000
REMARK  3 active torsions:
REMARK  status: ('A' for Active; 'I' for Inactive)
REMARK       I    between atoms: C_2  and  N_6 
REMARK    1  A    between atoms: C_2  and  C_3 
REMARK    2  A    between atoms: N_6  and  C_7 
REMARK    3  A    between atoms: C_15  and  C_16 
REMARK       I    between atoms: C_16  and  N_18 
ROOT
HETATM    1  C   UNK N   1      29.415  17.349   6.526  0.00  0.00     0.093 A 
HETATM    2  S   UNK N   1      29.121  17.773   4.943  0.00  0.00    -0.075 SA
HETATM    3  C   UNK N   1      28.127  19.067   5.199  0.00  0.00    -0.008 A 
HETATM    4  C   UNK N   1      27.481  19.924   4.157  0.00  0.00     0.047 C 
HETATM    5  C   UNK N   1      26.373  20.783   4.774  0.00  0.00     0.005 C 
HETATM    6  C   UNK N   1      26.813  21.406   6.099  0.00  0.00     0.005 C 
HETATM    7  C   UNK N   1      27.141  20.337   7.150  0.00  0.00     0.041 C 
HETATM    8  C   UNK N   1      27.987  19.230   6.581  0.00  0.00    -0.026 A 
HETATM    9  C   UNK N   1      28.717  18.257   7.349  0.00  0.00     0.072 A 
ENDROOT
BRANCH   1  10
HETATM   10  N   UNK N   1      30.223  16.270   6.993  0.00  0.00    -0.320 N 
HETATM   11  C   UNK N   1      31.512  16.373   7.431  0.00  0.00     0.226 C 
HETATM   12  O   UNK N   1      32.076  17.456   7.445  0.00  0.00    -0.273 OA
HETATM   13  H   UNK N   1      29.816  15.373   7.001  0.00  0.00     0.169 HD
BRANCH  11  14
HETATM   14  C   UNK N   1      32.294  15.166   7.910  0.00  0.00     0.078 A 
HETATM   15  C   UNK N   1      32.158  15.168   9.447  0.00  0.00     0.015 A 
HETATM   16  C   UNK N   1      32.946  14.103   8.804  0.00  0.00     0.015 A 
ENDBRANCH  11  14
ENDBRANCH   1  10
BRANCH   9  17
HETATM   17  C   UNK N   1      28.752  18.211   8.836  0.00  0.00     0.252 C 
HETATM   18  N   UNK N   1      29.804  18.704   9.517  0.00  0.00    -0.366 N 
HETATM   19  H   UNK N   1      29.820  18.659  10.500  0.00  0.00     0.159 HD
HETATM   20  H   UNK N   1      30.558  19.110   9.031  0.00  0.00     0.159 HD
HETATM   21  O   UNK N   1      27.827  17.708   9.455  0.00  0.00    -0.268 OA
ENDBRANCH   9  17
TORSDOF 3
ENDMDL
MODEL 2
REMARK VINA RESULT:      -5.8     12.207     13.691
REMARK  3 active torsions:
REMARK  status: ('A' for Active; 'I' for Inactive)
REMARK       I    between atoms: C_2  and  N_6 
REMARK    1  A    between atoms: C_2  and  C_3 
REMARK    2  A    between atoms: N_6  and  C_7 
REMARK    3  A    between atoms: C_15  and  C_16 
REMARK       I    between atoms: C_16  and  N_18 
ROOT
HETATM    1  C   UNK N   1      28.781  25.250  -4.466  0.00  0.00     0.093 A 
HETATM    2  S   UNK N   1      29.668  26.655  -4.583  0.00  0.00    -0.075 SA
HETATM    3  C   UNK N   1      28.442  27.752  -4.432  0.00  0.00    -0.008 A 
HETATM    4  C   UNK N   1      28.562  29.242  -4.461  0.00  0.00     0.047 C 
HETATM    5  C   UNK N   1      27.186  29.892  -4.641  0.00  0.00     0.005 C 
HETATM    6  C   UNK N   1      26.130  29.235  -3.751  0.00  0.00     0.005 C 
HETATM    7  C   UNK N   1      25.936  27.752  -4.098  0.00  0.00     0.041 C 
HETATM    8  C   UNK N   1      27.250  27.039  -4.270  0.00  0.00    -0.026 A 
HETATM    9  C   UNK N   1      27.430  25.612  -4.287  0.00  0.00     0.072 A 
ENDROOT
BRANCH   1  10
HETATM   10  N   UNK N   1      29.274  23.913  -4.530  0.00  0.00    -0.320 N 
HETATM   11  C   UNK N   1      29.847  23.227  -3.499  0.00  0.00     0.226 C 
HETATM   12  O   UNK N   1      29.980  23.751  -2.404  0.00  0.00    -0.273 OA
HETATM   13  H   UNK N   1      29.193  23.444  -5.392  0.00  0.00     0.169 HD
BRANCH  11  14
HETATM   14  C   UNK N   1      30.343  21.803  -3.662  0.00  0.00     0.078 A 
HETATM   15  C   UNK N   1      31.768  21.924  -4.241  0.00  0.00     0.015 A 
HETATM   16  C   UNK N   1      31.214  20.583  -3.986  0.00  0.00     0.015 A 
ENDBRANCH  11  14
ENDBRANCH   1  10
BRANCH   9  17
HETATM   17  C   UNK N   1      26.331  24.621  -4.122  0.00  0.00     0.252 C 
HETATM   18  N   UNK N   1      25.397  24.462  -5.080  0.00  0.00    -0.366 N 
HETATM   19  H   UNK N   1      24.669  23.811  -4.955  0.00  0.00     0.159 HD
HETATM   20  H   UNK N   1      25.441  24.998  -5.905  0.00  0.00     0.159 HD
HETATM   21  O   UNK N   1      26.258  23.951  -3.104  0.00  0.00    -0.268 OA
ENDBRANCH   9  17
TORSDOF 3
ENDMDL
MODEL 3
REMARK VINA RESULT:      -5.8     12.139     14.208
REMARK  3 active torsions:
REMARK  status: ('A' for Active; 'I' for Inactive)
REMARK       I    between atoms: C_2  and  N_6 
REMARK    1  A    between atoms: C_2  and  C_3 
REMARK    2  A    between atoms: N_6  and  C_7 
REMARK    3  A    between atoms: C_15  and  C_16 
REMARK       I    between atoms: C_16  and  N_18 
ROOT
HETATM    1  C   UNK N   1      28.647  23.967  -5.041  0.00  0.00     0.093 A 
HETATM    2  S   UNK N   1      28.353  23.063  -6.409  0.00  0.00    -0.075 SA
HETATM    3  C   UNK N   1      29.430  21.838  -6.149  0.00  0.00    -0.008 A 
HETATM    4  C   UNK N   1      29.683  20.662  -7.036  0.00  0.00     0.047 C 
HETATM    5  C   UNK N   1      30.980  19.951  -6.635  0.00  0.00     0.005 C 
HETATM    6  C   UNK N   1      31.092  19.793  -5.118  0.00  0.00     0.005 C 
HETATM    7  C   UNK N   1      31.127  21.151  -4.405  0.00  0.00     0.041 C 
HETATM    8  C   UNK N   1      30.080  22.092  -4.936  0.00  0.00    -0.026 A 
HETATM    9  C   UNK N   1      29.641  23.303  -4.295  0.00  0.00     0.072 A 
ENDROOT
BRANCH   1  10
HETATM   10  N   UNK N   1      28.020  25.194  -4.668  0.00  0.00    -0.320 N 
HETATM   11  C   UNK N   1      26.911  25.312  -3.881  0.00  0.00     0.226 C 
HETATM   12  O   UNK N   1      26.362  24.318  -3.431  0.00  0.00    -0.273 OA
HETATM   13  H   UNK N   1      28.422  26.026  -5.007  0.00  0.00     0.169 HD
BRANCH  11  14
HETATM   14  C   UNK N   1      26.314  26.662  -3.537  0.00  0.00     0.078 A 
HETATM   15  C   UNK N   1      25.594  27.135  -4.817  0.00  0.00     0.015 A 
HETATM   16  C   UNK N   1      25.570  28.001  -3.625  0.00  0.00     0.015 A 
ENDBRANCH  11  14
ENDBRANCH   1  10
BRANCH   9  17
HETATM   17  C   UNK N   1      30.158  23.800  -2.990  0.00  0.00     0.252 C 
HETATM   18  N   UNK N   1      29.978  23.089  -1.861  0.00  0.00    -0.366 N 
HETATM   19  H   UNK N   1      30.315  23.433  -1.002  0.00  0.00     0.159 HD
HETATM   20  H   UNK N   1      29.508  22.224  -1.893  0.00  0.00     0.159 HD
HETATM   21  O   UNK N   1      30.741  24.872  -2.930  0.00  0.00    -0.268 OA
ENDBRANCH   9  17
TORSDOF 3
ENDMDL
MODEL 4
REMARK VINA RESULT:      -5.7      2.022      5.951
REMARK  3 active torsions:
REMARK  status: ('A' for Active; 'I' for Inactive)
REMARK       I    between atoms: C_2  and  N_6 
REMARK    1  A    between atoms: C_2  and  C_3 
REMARK    2  A    between atoms: N_6  and  C_7 
REMARK    3  A    between atoms: C_15  and  C_16 
REMARK       I    between atoms: C_16  and  N_18 
ROOT
HETATM    1  C   UNK N   1      28.838  17.829   5.666  0.00  0.00     0.093 A 
HETATM    2  S   UNK N   1      30.244  17.516   4.830  0.00  0.00    -0.075 SA
HETATM    3  C   UNK N   1      31.225  17.130   6.101  0.00  0.00    -0.008 A 
HETATM    4  C   UNK N   1      32.668  16.746   6.038  0.00  0.00     0.047 C 
HETATM    5  C   UNK N   1      33.307  16.808   7.429  0.00  0.00     0.005 C 
HETATM    6  C   UNK N   1      32.404  16.183   8.494  0.00  0.00     0.005 C 
HETATM    7  C   UNK N   1      31.068  16.929   8.616  0.00  0.00     0.041 C 
HETATM    8  C   UNK N   1      30.464  17.226   7.271  0.00  0.00    -0.026 A 
HETATM    9  C   UNK N   1      29.101  17.623   7.036  0.00  0.00     0.072 A 
ENDROOT
BRANCH   1  10
HETATM   10  N   UNK N   1      27.583  18.231   5.121  0.00  0.00    -0.320 N 
HETATM   11  C   UNK N   1      27.093  19.506   5.109  0.00  0.00     0.226 C 
HETATM   12  O   UNK N   1      27.739  20.421   5.594  0.00  0.00    -0.273 OA
HETATM   13  H   UNK N   1      27.021  17.530   4.718  0.00  0.00     0.169 HD
BRANCH  11  14
HETATM   14  C   UNK N   1      25.743  19.840   4.504  0.00  0.00     0.078 A 
HETATM   15  C   UNK N   1      26.043  20.352   3.080  0.00  0.00     0.015 A 
HETATM   16  C   UNK N   1      24.643  20.294   3.537  0.00  0.00     0.015 A 
ENDBRANCH  11  14
ENDBRANCH   1  10
BRANCH   9  17
HETATM   17  C   UNK N   1      28.075  17.787   8.102  0.00  0.00     0.252 C 
HETATM   18  N   UNK N   1      27.740  19.011   8.554  0.00  0.00    -0.366 N 
HETATM   19  H   UNK N   1      27.067  19.106   9.267  0.00  0.00     0.159 HD
HETATM   20  H   UNK N   1      28.168  19.811   8.172  0.00  0.00     0.159 HD
HETATM   21  O   UNK N   1      27.536  16.806   8.590  0.00  0.00    -0.268 OA
ENDBRANCH   9  17
TORSDOF 3
ENDMDL
MODEL 5
REMARK VINA RESULT:      -5.7      5.087      6.116
REMARK  3 active torsions:
REMARK  status: ('A' for Active; 'I' for Inactive)
REMARK       I    between atoms: C_2  and  N_6 
REMARK    1  A    between atoms: C_2  and  C_3 
REMARK    2  A    between atoms: N_6  and  C_7 
REMARK    3  A    between atoms: C_15  and  C_16 
REMARK       I    between atoms: C_16  and  N_18 
ROOT
HETATM    1  C   UNK N   1      34.846  15.705   7.691  0.00  0.00     0.093 A 
HETATM    2  S   UNK N   1      34.895  14.515   6.527  0.00  0.00    -0.075 SA
HETATM    3  C   UNK N   1      34.099  15.303   5.312  0.00  0.00    -0.008 A 
HETATM    4  C   UNK N   1      33.788  14.772   3.950  0.00  0.00     0.047 C 
HETATM    5  C   UNK N   1      32.748  15.653   3.250  0.00  0.00     0.005 C 
HETATM    6  C   UNK N   1      33.055  17.141   3.430  0.00  0.00     0.005 C 
HETATM    7  C   UNK N   1      33.022  17.554   4.908  0.00  0.00     0.041 C 
HETATM    8  C   UNK N   1      33.758  16.575   5.782  0.00  0.00    -0.026 A 
HETATM    9  C   UNK N   1      34.179  16.817   7.137  0.00  0.00     0.072 A 
ENDROOT
BRANCH   1  10
HETATM   10  N   UNK N   1      35.375  15.638   9.014  0.00  0.00    -0.320 N 
HETATM   11  C   UNK N   1      34.670  15.313  10.137  0.00  0.00     0.226 C 
HETATM   12  O   UNK N   1      33.480  15.049  10.065  0.00  0.00    -0.273 OA
HETATM   13  H   UNK N   1      36.331  15.844   9.127  0.00  0.00     0.169 HD
BRANCH  11  14
HETATM   14  C   UNK N   1      35.320  15.267  11.505  0.00  0.00     0.078 A 
HETATM   15  C   UNK N   1      35.821  13.818  11.678  0.00  0.00     0.015 A 
HETATM   16  C   UNK N   1      36.044  14.784  12.768  0.00  0.00     0.015 A 
ENDBRANCH  11  14
ENDBRANCH   1  10
BRANCH   9  17
HETATM   17  C   UNK N   1      33.955  18.091   7.874  0.00  0.00     0.252 C 
HETATM   18  N   UNK N   1      32.736  18.406   8.352  0.00  0.00    -0.366 N 
HETATM   19  H   UNK N   1      32.599  19.256   8.830  0.00  0.00     0.159 HD
HETATM   20  H   UNK N   1      31.981  17.787   8.223  0.00  0.00     0.159 HD
HETATM   21  O   UNK N   1      34.878  18.873   8.041  0.00  0.00    -0.268 OA
ENDBRANCH   9  17
TORSDOF 3
ENDMDL
MODEL 6
REMARK VINA RESULT:      -5.7     13.758     15.627
REMARK  3 active torsions:
REMARK  status: ('A' for Active; 'I' for Inactive)
REMARK       I    between atoms: C_2  and  N_6 
REMARK    1  A    between atoms: C_2  and  C_3 
REMARK    2  A    between atoms: N_6  and  C_7 
REMARK    3  A    between atoms: C_15  and  C_16 
REMARK       I    between atoms: C_16  and  N_18 
ROOT
HETATM    1  C   UNK N   1      28.097  23.883  -5.751  0.00  0.00     0.093 A 
HETATM    2  S   UNK N   1      29.398  22.964  -5.263  0.00  0.00    -0.075 SA
HETATM    3  C   UNK N   1      29.276  21.735  -6.360  0.00  0.00    -0.008 A 
HETATM    4  C   UNK N   1      30.164  20.538  -6.469  0.00  0.00     0.047 C 
HETATM    5  C   UNK N   1      29.527  19.470  -7.365  0.00  0.00     0.005 C 
HETATM    6  C   UNK N   1      28.923  20.082  -8.630  0.00  0.00     0.005 C 
HETATM    7  C   UNK N   1      27.799  21.074  -8.302  0.00  0.00     0.041 C 
HETATM    8  C   UNK N   1      28.180  22.007  -7.185  0.00  0.00    -0.026 A 
HETATM    9  C   UNK N   1      27.500  23.229  -6.848  0.00  0.00     0.072 A 
ENDROOT
BRANCH   1  10
HETATM   10  N   UNK N   1      27.648  25.111  -5.181  0.00  0.00    -0.320 N 
HETATM   11  C   UNK N   1      26.739  25.233  -4.170  0.00  0.00     0.226 C 
HETATM   12  O   UNK N   1      26.230  24.241  -3.672  0.00  0.00    -0.273 OA
HETATM   13  H   UNK N   1      28.027  25.943  -5.548  0.00  0.00     0.169 HD
BRANCH  11  14
HETATM   14  C   UNK N   1      26.322  26.585  -3.627  0.00  0.00     0.078 A 
HETATM   15  C   UNK N   1      25.480  27.238  -4.743  0.00  0.00     0.015 A 
HETATM   16  C   UNK N   1      25.699  27.980  -3.490  0.00  0.00     0.015 A 
ENDBRANCH  11  14
ENDBRANCH   1  10
BRANCH   9  17
HETATM   17  C   UNK N   1      26.313  23.760  -7.573  0.00  0.00     0.252 C 
HETATM   18  N   UNK N   1      26.425  24.228  -8.831  0.00  0.00    -0.366 N 
HETATM   19  H   UNK N   1      25.635  24.586  -9.296  0.00  0.00     0.159 HD
HETATM   20  H   UNK N   1      27.298  24.212  -9.286  0.00  0.00     0.159 HD
HETATM   21  O   UNK N   1      25.222  23.791  -7.024  0.00  0.00    -0.268 OA
ENDBRANCH   9  17
TORSDOF 3
ENDMDL
MODEL 7
REMARK VINA RESULT:      -5.5     12.479     14.674
REMARK  3 active torsions:
REMARK  status: ('A' for Active; 'I' for Inactive)
REMARK       I    between atoms: C_2  and  N_6 
REMARK    1  A    between atoms: C_2  and  C_3 
REMARK    2  A    between atoms: N_6  and  C_7 
REMARK    3  A    between atoms: C_15  and  C_16 
REMARK       I    between atoms: C_16  and  N_18 
ROOT
HETATM    1  C   UNK N   1      29.051  24.201  -4.360  0.00  0.00     0.093 A 
HETATM    2  S   UNK N   1      30.276  23.657  -3.371  0.00  0.00    -0.075 SA
HETATM    3  C   UNK N   1      30.645  22.254  -4.159  0.00  0.00    -0.008 A 
HETATM    4  C   UNK N   1      31.688  21.254  -3.773  0.00  0.00     0.047 C 
HETATM    5  C   UNK N   1      31.489  19.941  -4.538  0.00  0.00     0.005 C 
HETATM    6  C   UNK N   1      31.189  20.189  -6.017  0.00  0.00     0.005 C 
HETATM    7  C   UNK N   1      29.889  20.982  -6.209  0.00  0.00     0.041 C 
HETATM    8  C   UNK N   1      29.802  22.154  -5.271  0.00  0.00    -0.026 A 
HETATM    9  C   UNK N   1      28.888  23.259  -5.396  0.00  0.00     0.072 A 
ENDROOT
BRANCH   1  10
HETATM   10  N   UNK N   1      28.290  25.398  -4.209  0.00  0.00    -0.320 N 
HETATM   11  C   UNK N   1      27.033  25.480  -3.681  0.00  0.00     0.226 C 
HETATM   12  O   UNK N   1      26.459  24.476  -3.291  0.00  0.00    -0.273 OA
HETATM   13  H   UNK N   1      28.706  26.238  -4.511  0.00  0.00     0.169 HD
BRANCH  11  14
HETATM   14  C   UNK N   1      26.300  26.801  -3.561  0.00  0.00     0.078 A 
HETATM   15  C   UNK N   1      25.767  27.110  -4.976  0.00  0.00     0.015 A 
HETATM   16  C   UNK N   1      25.493  28.064  -3.888  0.00  0.00     0.015 A 
ENDBRANCH  11  14
ENDBRANCH   1  10
BRANCH   9  17
HETATM   17  C   UNK N   1      27.894  23.410  -6.493  0.00  0.00     0.252 C 
HETATM   18  N   UNK N   1      26.600  23.088  -6.301  0.00  0.00    -0.366 N 
HETATM   19  H   UNK N   1      25.954  23.182  -7.037  0.00  0.00     0.159 HD
HETATM   20  H   UNK N   1      26.301  22.757  -5.423  0.00  0.00     0.159 HD
HETATM   21  O   UNK N   1      28.247  23.816  -7.590  0.00  0.00    -0.268 OA
ENDBRANCH   9  17
TORSDOF 3
ENDMDL
MODEL 8
REMARK VINA RESULT:      -5.5      4.746      8.658
REMARK  3 active torsions:
REMARK  status: ('A' for Active; 'I' for Inactive)
REMARK       I    between atoms: C_2  and  N_6 
REMARK    1  A    between atoms: C_2  and  C_3 
REMARK    2  A    between atoms: N_6  and  C_7 
REMARK    3  A    between atoms: C_15  and  C_16 
REMARK       I    between atoms: C_16  and  N_18 
ROOT
HETATM    1  C   UNK N   1      34.978  14.954   7.311  0.00  0.00     0.093 A 
HETATM    2  S   UNK N   1      36.277  14.080   6.745  0.00  0.00    -0.075 SA
HETATM    3  C   UNK N   1      37.043  13.790   8.179  0.00  0.00    -0.008 A 
HETATM    4  C   UNK N   1      38.319  13.038   8.380  0.00  0.00     0.047 C 
HETATM    5  C   UNK N   1      38.879  13.285   9.785  0.00  0.00     0.005 C 
HETATM    6  C   UNK N   1      37.783  13.213  10.849  0.00  0.00     0.005 C 
HETATM    7  C   UNK N   1      36.709  14.289  10.635  0.00  0.00     0.041 C 
HETATM    8  C   UNK N   1      36.283  14.379   9.195  0.00  0.00    -0.026 A 
HETATM    9  C   UNK N   1      35.102  15.045   8.713  0.00  0.00     0.072 A 
ENDROOT
BRANCH   1  10
HETATM   10  N   UNK N   1      33.918  15.519   6.542  0.00  0.00    -0.320 N 
HETATM   11  C   UNK N   1      33.806  16.832   6.184  0.00  0.00     0.226 C 
HETATM   12  O   UNK N   1      34.654  17.641   6.527  0.00  0.00    -0.273 OA
HETATM   13  H   UNK N   1      33.205  14.909   6.241  0.00  0.00     0.169 HD
BRANCH  11  14
HETATM   14  C   UNK N   1      32.639  17.341   5.362  0.00  0.00     0.078 A 
HETATM   15  C   UNK N   1      33.023  17.078   3.891  0.00  0.00     0.015 A 
HETATM   16  C   UNK N   1      31.728  17.714   4.185  0.00  0.00     0.015 A 
ENDBRANCH  11  14
ENDBRANCH   1  10
BRANCH   9  17
HETATM   17  C   UNK N   1      34.113  15.740   9.581  0.00  0.00     0.252 C 
HETATM   18  N   UNK N   1      34.413  16.917  10.163  0.00  0.00    -0.366 N 
HETATM   19  H   UNK N   1      33.754  17.362  10.744  0.00  0.00     0.159 HD
HETATM   20  H   UNK N   1      35.293  17.333  10.009  0.00  0.00     0.159 HD
HETATM   21  O   UNK N   1      33.019  15.239   9.787  0.00  0.00    -0.268 OA
ENDBRANCH   9  17
TORSDOF 3
ENDMDL
MODEL 9
REMARK VINA RESULT:      -5.5      1.713      2.710
REMARK  3 active torsions:
REMARK  status: ('A' for Active; 'I' for Inactive)
REMARK       I    between atoms: C_2  and  N_6 
REMARK    1  A    between atoms: C_2  and  C_3 
REMARK    2  A    between atoms: N_6  and  C_7 
REMARK    3  A    between atoms: C_15  and  C_16 
REMARK       I    between atoms: C_16  and  N_18 
ROOT
HETATM    1  C   UNK N   1      29.369  17.462   6.879  0.00  0.00     0.093 A 
HETATM    2  S   UNK N   1      28.551  18.479   7.913  0.00  0.00    -0.075 SA
HETATM    3  C   UNK N   1      27.836  19.466   6.798  0.00  0.00    -0.008 A 
HETATM    4  C   UNK N   1      26.943  20.633   7.073  0.00  0.00     0.047 C 
HETATM    5  C   UNK N   1      26.771  21.492   5.816  0.00  0.00     0.005 C 
HETATM    6  C   UNK N   1      26.533  20.633   4.573  0.00  0.00     0.005 C 
HETATM    7  C   UNK N   1      27.723  19.707   4.284  0.00  0.00     0.041 C 
HETATM    8  C   UNK N   1      28.215  19.019   5.528  0.00  0.00    -0.026 A 
HETATM    9  C   UNK N   1      29.088  17.876   5.561  0.00  0.00     0.072 A 
ENDROOT
BRANCH   1  10
HETATM   10  N   UNK N   1      30.206  16.363   7.235  0.00  0.00    -0.320 N 
HETATM   11  C   UNK N   1      31.556  16.422   7.428  0.00  0.00     0.226 C 
HETATM   12  O   UNK N   1      32.155  17.478   7.296  0.00  0.00    -0.273 OA
HETATM   13  H   UNK N   1      29.773  15.486   7.352  0.00  0.00     0.169 HD
BRANCH  11  14
HETATM   14  C   UNK N   1      32.365  15.197   7.807  0.00  0.00     0.078 A 
HETATM   15  C   UNK N   1      32.267  15.094   9.343  0.00  0.00     0.015 A 
HETATM   16  C   UNK N   1      33.053  14.086   8.611  0.00  0.00     0.015 A 
ENDBRANCH  11  14
ENDBRANCH   1  10
BRANCH   9  17
HETATM   17  C   UNK N   1      29.628  17.193   4.353  0.00  0.00     0.252 C 
HETATM   18  N   UNK N   1      30.827  17.537   3.844  0.00  0.00    -0.366 N 
HETATM   19  H   UNK N   1      31.169  17.085   3.040  0.00  0.00     0.159 HD
HETATM   20  H   UNK N   1      31.361  18.242   4.277  0.00  0.00     0.159 HD
HETATM   21  O   UNK N   1      28.978  16.319   3.801  0.00  0.00    -0.268 OA
ENDBRANCH   9  17
TORSDOF 3
ENDMDL
