REMARK  3 active torsions:
REMARK  status: ('A' for Active; 'I' for Inactive)
REMARK       I    between atoms: C_2  and  N_6 
REMARK    1  A    between atoms: C_2  and  C_3 
REMARK    2  A    between atoms: N_6  and  C_7 
REMARK    3  A    between atoms: C_15  and  C_16 
REMARK       I    between atoms: C_16  and  N_18 
ROOT
HETATM    1  C   UNK N   1      -0.492   0.328  -0.014  0.00  0.00     0.093 A 
HETATM    2  S   UNK N   1       0.552   1.625  -0.054  0.00  0.00    -0.075 SA
HETATM    3  C   UNK N   1       1.987   0.807  -0.027  0.00  0.00    -0.008 A 
HETATM    4  C   UNK N   1       3.359   1.400  -0.036  0.00  0.00     0.047 C 
HETATM    5  C   UNK N   1       4.406   0.349   0.348  0.00  0.00     0.005 C 
HETATM    6  C   UNK N   1       4.153  -0.984  -0.358  0.00  0.00     0.005 C 
HETATM    7  C   UNK N   1       2.797  -1.587   0.033  0.00  0.00     0.041 C 
HETATM    8  C   UNK N   1       1.697  -0.561   0.008  0.00  0.00    -0.026 A 
HETATM    9  C   UNK N   1       0.287  -0.847   0.015  0.00  0.00     0.072 A 
ENDROOT
BRANCH   1  10
HETATM   10  N   UNK N   1      -1.918   0.370  -0.010  0.00  0.00    -0.320 N 
HETATM   11  C   UNK N   1      -2.680   1.503  -0.007  0.00  0.00     0.226 C 
HETATM   12  O   UNK N   1      -2.152   2.604  -0.004  0.00  0.00    -0.273 OA
HETATM   13  H   UNK N   1      -2.394  -0.492  -0.010  0.00  0.00     0.169 HD
BRANCH  11  14
HETATM   14  C   UNK N   1      -4.195   1.449  -0.003  0.00  0.00     0.078 A 
HETATM   15  C   UNK N   1      -4.556  -0.051   0.001  0.00  0.00     0.015 A 
HETATM   16  C   UNK N   1      -5.643   0.943  -0.002  0.00  0.00     0.015 A 
ENDBRANCH  11  14
ENDBRANCH   1  10
BRANCH   9  17
HETATM   17  C   UNK N   1      -0.295  -2.217   0.036  0.00  0.00     0.252 C 
HETATM   18  N   UNK N   1       0.500  -3.304   0.042  0.00  0.00    -0.366 N 
HETATM   19  H   UNK N   1       0.103  -4.205   0.046  0.00  0.00     0.159 HD
HETATM   20  H   UNK N   1       1.479  -3.198   0.042  0.00  0.00     0.159 HD
HETATM   21  O   UNK N   1      -1.507  -2.368   0.033  0.00  0.00    -0.268 OA
ENDBRANCH   9  17
TORSDOF 3
