MODEL 1
REMARK VINA RESULT:      -6.8      0.000      0.000
REMARK  13 active torsions:
REMARK  status: ('A' for Active; 'I' for Inactive)
REMARK    1  A    between atoms: N_1  and  C_2 
REMARK    2  A    between atoms: C_2  and  C_3 
REMARK    3  A    between atoms: C_3  and  C_4 
REMARK    4  A    between atoms: C_4  and  C_5 
REMARK    5  A    between atoms: C_5  and  N_6 
REMARK    6  A    between atoms: N_6  and  N_7 
REMARK       I    between atoms: N_7  and  C_8 
REMARK    7  A    between atoms: C_10  and  C_8 
REMARK       I    between atoms: N_11  and  C_15 
REMARK    8  A    between atoms: C_15  and  C_17 
REMARK    9  A    between atoms: C_17  and  N_18 
REMARK   10  A    between atoms: C_17  and  C_19 
REMARK       I    between atoms: N_18  and  C_26 
REMARK   11  A    between atoms: C_19  and  C_20 
REMARK   12  A    between atoms: C_26  and  O_28 
REMARK   13  A    between atoms: O_28  and  C_29 
ROOT
HETATM    1  C   UNK N   1      35.511  15.515   9.046  0.00  0.00     0.181 C 
HETATM    2  N   UNK N   1      35.568  14.376   9.927  0.00  0.00    -0.337 N 
HETATM    3  C   UNK N   1      34.962  14.879   7.787  0.00  0.00     0.037 C 
HETATM    4  C   UNK N   1      35.606  13.461   7.823  0.00  0.00     0.022 C 
HETATM    5  C   UNK N   1      36.151  13.262   9.254  0.00  0.00     0.127 C 
HETATM    6  C   UNK N   1      34.912  14.242  11.130  0.00  0.00     0.243 C 
HETATM    7  O   UNK N   1      34.026  15.027  11.432  0.00  0.00    -0.271 OA
ENDROOT
BRANCH   1   8
HETATM    8  C   UNK N   1      34.949  16.784   9.677  0.00  0.00     0.258 C 
HETATM    9  N   UNK N   1      33.645  17.138   9.655  0.00  0.00    -0.273 N 
HETATM   10  H   UNK N   1      33.339  17.842  10.270  0.00  0.00     0.189 HD
HETATM   11  O   UNK N   1      35.739  17.546  10.215  0.00  0.00    -0.269 OA
BRANCH   9  12
HETATM   12  N   UNK N   1      32.720  16.554   8.803  0.00  0.00    -0.334 N 
HETATM   13  H   UNK N   1      32.545  15.555   8.697  0.00  0.00     0.180 HD
BRANCH  12  14
HETATM   14  C   UNK N   1      32.041  17.641   8.080  0.00  0.00     0.139 C 
BRANCH  14  15
HETATM   15  C   UNK N   1      30.748  18.114   8.769  0.00  0.00     0.023 C 
BRANCH  15  16
HETATM   16  C   UNK N   1      29.511  17.377   8.277  0.00  0.00     0.021 C 
BRANCH  16  17
HETATM   17  C   UNK N   1      28.347  17.500   9.246  0.00  0.00     0.111 C 
BRANCH  17  18
HETATM   18  N   UNK N   1      27.612  18.723   8.977  0.00  0.00    -0.430 N 
HETATM   19  H   UNK N   1      26.769  19.210   8.675  0.00  0.00     0.149 HD
HETATM   20  H   UNK N   1      28.268  19.470   9.207  0.00  0.00     0.149 HD
ENDBRANCH  17  18
ENDBRANCH  16  17
ENDBRANCH  15  16
ENDBRANCH  14  15
ENDBRANCH  12  14
ENDBRANCH   9  12
ENDBRANCH   1   8
BRANCH   6  21
HETATM   21  C   UNK N   1      35.335  13.194  12.148  0.00  0.00     0.183 C 
BRANCH  21  22
HETATM   22  N   UNK N   1      34.362  12.133  12.293  0.00  0.00    -0.323 N 
HETATM   23  C   UNK N   1      34.607  10.872  11.848  0.00  0.00     0.361 C 
HETATM   24  O   UNK N   1      35.684  10.602  11.321  0.00  0.00    -0.238 OA
HETATM   25  H   UNK N   1      33.499  12.330  12.724  0.00  0.00     0.165 HD
BRANCH  23  26
HETATM   26  O   UNK N   1      33.637   9.930  11.933  0.00  0.00    -0.304 OA
BRANCH  26  27
HETATM   27  C   UNK N   1      33.168   9.227  10.841  0.00  0.00     0.176 C 
HETATM   28  C   UNK N   1      32.617  10.165   9.780  0.00  0.00     0.034 C 
ENDBRANCH  26  27
ENDBRANCH  23  26
ENDBRANCH  21  22
BRANCH  21  29
HETATM   29  C   UNK N   1      35.695  13.764  13.541  0.00  0.00     0.073 C 
BRANCH  29  30
HETATM   30  C   UNK N   1      35.800  12.802  14.705  0.00  0.00    -0.056 A 
HETATM   31  C   UNK N   1      36.745  11.761  14.748  0.00  0.00     0.007 A 
HETATM   32  C   UNK N   1      36.829  10.922  15.861  0.00  0.00     0.001 A 
HETATM   33  C   UNK N   1      35.955  11.100  16.935  0.00  0.00     0.000 A 
HETATM   34  C   UNK N   1      34.999  12.119  16.894  0.00  0.00     0.001 A 
HETATM   35  C   UNK N   1      34.928  12.970  15.786  0.00  0.00     0.007 A 
ENDBRANCH  29  30
ENDBRANCH  21  29
ENDBRANCH   6  21
TORSDOF 13
ENDMDL
MODEL 2
REMARK VINA RESULT:      -6.4      1.584      1.895
REMARK  13 active torsions:
REMARK  status: ('A' for Active; 'I' for Inactive)
REMARK    1  A    between atoms: N_1  and  C_2 
REMARK    2  A    between atoms: C_2  and  C_3 
REMARK    3  A    between atoms: C_3  and  C_4 
REMARK    4  A    between atoms: C_4  and  C_5 
REMARK    5  A    between atoms: C_5  and  N_6 
REMARK    6  A    between atoms: N_6  and  N_7 
REMARK       I    between atoms: N_7  and  C_8 
REMARK    7  A    between atoms: C_10  and  C_8 
REMARK       I    between atoms: N_11  and  C_15 
REMARK    8  A    between atoms: C_15  and  C_17 
REMARK    9  A    between atoms: C_17  and  N_18 
REMARK   10  A    between atoms: C_17  and  C_19 
REMARK       I    between atoms: N_18  and  C_26 
REMARK   11  A    between atoms: C_19  and  C_20 
REMARK   12  A    between atoms: C_26  and  O_28 
REMARK   13  A    between atoms: O_28  and  C_29 
ROOT
HETATM    1  C   UNK N   1      35.659  15.489   9.184  0.00  0.00     0.181 C 
HETATM    2  N   UNK N   1      35.699  14.348  10.063  0.00  0.00    -0.337 N 
HETATM    3  C   UNK N   1      35.273  14.832   7.876  0.00  0.00     0.037 C 
HETATM    4  C   UNK N   1      35.995  13.454   7.970  0.00  0.00     0.022 C 
HETATM    5  C   UNK N   1      36.411  13.276   9.446  0.00  0.00     0.127 C 
HETATM    6  C   UNK N   1      34.939  14.165  11.197  0.00  0.00     0.243 C 
HETATM    7  O   UNK N   1      33.983  14.894  11.413  0.00  0.00    -0.271 OA
ENDROOT
BRANCH   1   8
HETATM    8  C   UNK N   1      34.964  16.717   9.760  0.00  0.00     0.258 C 
HETATM    9  N   UNK N   1      33.685  17.067   9.499  0.00  0.00    -0.273 N 
HETATM   10  H   UNK N   1      33.252  17.732  10.080  0.00  0.00     0.189 HD
HETATM   11  O   UNK N   1      35.620  17.449  10.486  0.00  0.00    -0.269 OA
BRANCH   9  12
HETATM   12  N   UNK N   1      32.957  16.530   8.449  0.00  0.00    -0.334 N 
HETATM   13  H   UNK N   1      32.629  15.567   8.372  0.00  0.00     0.180 HD
BRANCH  12  14
HETATM   14  C   UNK N   1      32.746  17.604   7.465  0.00  0.00     0.139 C 
BRANCH  14  15
HETATM   15  C   UNK N   1      33.709  17.528   6.267  0.00  0.00     0.023 C 
BRANCH  15  16
HETATM   16  C   UNK N   1      32.990  17.562   4.926  0.00  0.00     0.021 C 
BRANCH  16  17
HETATM   17  C   UNK N   1      31.598  16.959   5.007  0.00  0.00     0.111 C 
BRANCH  17  18
HETATM   18  N   UNK N   1      30.650  17.815   4.317  0.00  0.00    -0.430 N 
HETATM   19  H   UNK N   1      30.225  18.169   3.460  0.00  0.00     0.149 HD
HETATM   20  H   UNK N   1      30.165  18.312   5.064  0.00  0.00     0.149 HD
ENDBRANCH  17  18
ENDBRANCH  16  17
ENDBRANCH  15  16
ENDBRANCH  14  15
ENDBRANCH  12  14
ENDBRANCH   9  12
ENDBRANCH   1   8
BRANCH   6  21
HETATM   21  C   UNK N   1      35.326  13.135  12.247  0.00  0.00     0.183 C 
BRANCH  21  22
HETATM   22  N   UNK N   1      34.357  12.065  12.361  0.00  0.00    -0.323 N 
HETATM   23  C   UNK N   1      34.614  10.817  11.891  0.00  0.00     0.361 C 
HETATM   24  O   UNK N   1      35.697  10.565  11.366  0.00  0.00    -0.238 OA
HETATM   25  H   UNK N   1      33.490  12.248  12.790  0.00  0.00     0.165 HD
BRANCH  23  26
HETATM   26  O   UNK N   1      33.649   9.866  11.947  0.00  0.00    -0.304 OA
BRANCH  26  27
HETATM   27  C   UNK N   1      33.042   9.340  10.824  0.00  0.00     0.176 C 
HETATM   28  C   UNK N   1      33.498   7.912  10.571  0.00  0.00     0.034 C 
ENDBRANCH  26  27
ENDBRANCH  23  26
ENDBRANCH  21  22
BRANCH  21  29
HETATM   29  C   UNK N   1      35.612  13.728  13.648  0.00  0.00     0.073 C 
BRANCH  29  30
HETATM   30  C   UNK N   1      35.757  12.775  14.815  0.00  0.00    -0.056 A 
HETATM   31  C   UNK N   1      36.683  11.717  14.823  0.00  0.00     0.007 A 
HETATM   32  C   UNK N   1      36.806  10.887  15.939  0.00  0.00     0.001 A 
HETATM   33  C   UNK N   1      35.989  11.091  17.052  0.00  0.00     0.000 A 
HETATM   34  C   UNK N   1      35.051  12.128  17.048  0.00  0.00     0.001 A 
HETATM   35  C   UNK N   1      34.942  12.970  15.936  0.00  0.00     0.007 A 
ENDBRANCH  29  30
ENDBRANCH  21  29
ENDBRANCH   6  21
TORSDOF 13
ENDMDL
MODEL 3
REMARK VINA RESULT:      -6.4     17.912     22.733
REMARK  13 active torsions:
REMARK  status: ('A' for Active; 'I' for Inactive)
REMARK    1  A    between atoms: N_1  and  C_2 
REMARK    2  A    between atoms: C_2  and  C_3 
REMARK    3  A    between atoms: C_3  and  C_4 
REMARK    4  A    between atoms: C_4  and  C_5 
REMARK    5  A    between atoms: C_5  and  N_6 
REMARK    6  A    between atoms: N_6  and  N_7 
REMARK       I    between atoms: N_7  and  C_8 
REMARK    7  A    between atoms: C_10  and  C_8 
REMARK       I    between atoms: N_11  and  C_15 
REMARK    8  A    between atoms: C_15  and  C_17 
REMARK    9  A    between atoms: C_17  and  N_18 
REMARK   10  A    between atoms: C_17  and  C_19 
REMARK       I    between atoms: N_18  and  C_26 
REMARK   11  A    between atoms: C_19  and  C_20 
REMARK   12  A    between atoms: C_26  and  O_28 
REMARK   13  A    between atoms: O_28  and  C_29 
ROOT
HETATM    1  C   UNK N   1      27.281  26.979  -5.143  0.00  0.00     0.181 C 
HETATM    2  N   UNK N   1      27.043  26.215  -6.342  0.00  0.00    -0.337 N 
HETATM    3  C   UNK N   1      27.199  28.392  -5.681  0.00  0.00     0.037 C 
HETATM    4  C   UNK N   1      27.805  28.241  -7.108  0.00  0.00     0.022 C 
HETATM    5  C   UNK N   1      27.831  26.727  -7.415  0.00  0.00     0.127 C 
HETATM    6  C   UNK N   1      26.018  25.320  -6.549  0.00  0.00     0.243 C 
HETATM    7  O   UNK N   1      25.075  25.283  -5.773  0.00  0.00    -0.271 OA
ENDROOT
BRANCH   1   8
HETATM    8  C   UNK N   1      26.526  26.489  -3.912  0.00  0.00     0.258 C 
HETATM    9  N   UNK N   1      26.751  25.308  -3.296  0.00  0.00    -0.273 N 
HETATM   10  H   UNK N   1      26.388  25.173  -2.391  0.00  0.00     0.189 HD
HETATM   11  O   UNK N   1      25.639  27.204  -3.472  0.00  0.00    -0.269 OA
BRANCH   9  12
HETATM   12  N   UNK N   1      27.472  24.278  -3.880  0.00  0.00    -0.334 N 
HETATM   13  H   UNK N   1      27.240  23.796  -4.749  0.00  0.00     0.180 HD
BRANCH  12  14
HETATM   14  C   UNK N   1      28.631  24.006  -3.016  0.00  0.00     0.139 C 
BRANCH  14  15
HETATM   15  C   UNK N   1      29.956  24.538  -3.591  0.00  0.00     0.023 C 
BRANCH  15  16
HETATM   16  C   UNK N   1      31.069  23.500  -3.571  0.00  0.00     0.021 C 
BRANCH  16  17
HETATM   17  C   UNK N   1      30.723  22.306  -2.698  0.00  0.00     0.111 C 
BRANCH  17  18
HETATM   18  N   UNK N   1      31.398  21.121  -3.196  0.00  0.00    -0.430 N 
HETATM   19  H   UNK N   1      32.121  20.675  -3.761  0.00  0.00     0.149 HD
HETATM   20  H   UNK N   1      30.900  20.343  -2.762  0.00  0.00     0.149 HD
ENDBRANCH  17  18
ENDBRANCH  16  17
ENDBRANCH  15  16
ENDBRANCH  14  15
ENDBRANCH  12  14
ENDBRANCH   9  12
ENDBRANCH   1   8
BRANCH   6  21
HETATM   21  C   UNK N   1      26.078  24.298  -7.674  0.00  0.00     0.183 C 
BRANCH  21  22
HETATM   22  N   UNK N   1      25.035  24.490  -8.658  0.00  0.00    -0.323 N 
HETATM   23  C   UNK N   1      25.315  24.878  -9.930  0.00  0.00     0.361 C 
HETATM   24  O   UNK N   1      26.481  25.061 -10.276  0.00  0.00    -0.238 OA
HETATM   25  H   UNK N   1      24.098  24.335  -8.400  0.00  0.00     0.165 HD
BRANCH  23  26
HETATM   26  O   UNK N   1      24.303  25.123 -10.796  0.00  0.00    -0.304 OA
BRANCH  26  27
HETATM   27  C   UNK N   1      24.398  26.031 -11.832  0.00  0.00     0.176 C 
HETATM   28  C   UNK N   1      23.554  27.265 -11.560  0.00  0.00     0.034 C 
ENDBRANCH  26  27
ENDBRANCH  23  26
ENDBRANCH  21  22
BRANCH  21  29
HETATM   29  C   UNK N   1      26.080  22.825  -7.197  0.00  0.00     0.073 C 
BRANCH  29  30
HETATM   30  C   UNK N   1      27.380  22.053  -7.256  0.00  0.00    -0.056 A 
HETATM   31  C   UNK N   1      28.501  22.391  -6.476  0.00  0.00     0.007 A 
HETATM   32  C   UNK N   1      29.667  21.625  -6.536  0.00  0.00     0.001 A 
HETATM   33  C   UNK N   1      29.735  20.526  -7.393  0.00  0.00     0.000 A 
HETATM   34  C   UNK N   1      28.633  20.192  -8.187  0.00  0.00     0.001 A 
HETATM   35  C   UNK N   1      27.460  20.949  -8.112  0.00  0.00     0.007 A 
ENDBRANCH  29  30
ENDBRANCH  21  29
ENDBRANCH   6  21
TORSDOF 13
ENDMDL
MODEL 4
REMARK VINA RESULT:      -6.2      1.910      3.268
REMARK  13 active torsions:
REMARK  status: ('A' for Active; 'I' for Inactive)
REMARK    1  A    between atoms: N_1  and  C_2 
REMARK    2  A    between atoms: C_2  and  C_3 
REMARK    3  A    between atoms: C_3  and  C_4 
REMARK    4  A    between atoms: C_4  and  C_5 
REMARK    5  A    between atoms: C_5  and  N_6 
REMARK    6  A    between atoms: N_6  and  N_7 
REMARK       I    between atoms: N_7  and  C_8 
REMARK    7  A    between atoms: C_10  and  C_8 
REMARK       I    between atoms: N_11  and  C_15 
REMARK    8  A    between atoms: C_15  and  C_17 
REMARK    9  A    between atoms: C_17  and  N_18 
REMARK   10  A    between atoms: C_17  and  C_19 
REMARK       I    between atoms: N_18  and  C_26 
REMARK   11  A    between atoms: C_19  and  C_20 
REMARK   12  A    between atoms: C_26  and  O_28 
REMARK   13  A    between atoms: O_28  and  C_29 
ROOT
HETATM    1  C   UNK N   1      35.677  15.194   9.284  0.00  0.00     0.181 C 
HETATM    2  N   UNK N   1      35.780  14.102  10.218  0.00  0.00    -0.337 N 
HETATM    3  C   UNK N   1      35.036  14.502   8.101  0.00  0.00     0.037 C 
HETATM    4  C   UNK N   1      35.664  13.078   8.168  0.00  0.00     0.022 C 
HETATM    5  C   UNK N   1      36.303  12.946   9.568  0.00  0.00     0.127 C 
HETATM    6  C   UNK N   1      35.206  14.043  11.469  0.00  0.00     0.243 C 
HETATM    7  O   UNK N   1      34.353  14.856  11.787  0.00  0.00    -0.271 OA
ENDROOT
BRANCH   1   8
HETATM    8  C   UNK N   1      35.175  16.504   9.882  0.00  0.00     0.258 C 
HETATM    9  N   UNK N   1      33.879  16.884   9.916  0.00  0.00    -0.273 N 
HETATM   10  H   UNK N   1      33.621  17.622  10.513  0.00  0.00     0.189 HD
HETATM   11  O   UNK N   1      36.009  17.274  10.337  0.00  0.00    -0.269 OA
BRANCH   9  12
HETATM   12  N   UNK N   1      32.897  16.280   9.147  0.00  0.00    -0.334 N 
HETATM   13  H   UNK N   1      32.630  15.296   9.173  0.00  0.00     0.180 HD
BRANCH  12  14
HETATM   14  C   UNK N   1      32.312  17.318   8.285  0.00  0.00     0.139 C 
BRANCH  14  15
HETATM   15  C   UNK N   1      30.896  16.971   7.790  0.00  0.00     0.023 C 
BRANCH  15  16
HETATM   16  C   UNK N   1      29.876  18.056   8.107  0.00  0.00     0.021 C 
BRANCH  16  17
HETATM   17  C   UNK N   1      29.844  18.397   9.588  0.00  0.00     0.111 C 
BRANCH  17  18
HETATM   18  N   UNK N   1      29.444  17.229  10.352  0.00  0.00    -0.430 N 
HETATM   19  H   UNK N   1      29.069  16.282  10.406  0.00  0.00     0.149 HD
HETATM   20  H   UNK N   1      29.634  17.482  11.322  0.00  0.00     0.149 HD
ENDBRANCH  17  18
ENDBRANCH  16  17
ENDBRANCH  15  16
ENDBRANCH  14  15
ENDBRANCH  12  14
ENDBRANCH   9  12
ENDBRANCH   1   8
BRANCH   6  21
HETATM   21  C   UNK N   1      35.686  13.042  12.509  0.00  0.00     0.183 C 
BRANCH  21  22
HETATM   22  N   UNK N   1      35.337  13.432  13.859  0.00  0.00    -0.323 N 
HETATM   23  C   UNK N   1      34.604  12.624  14.669  0.00  0.00     0.361 C 
HETATM   24  O   UNK N   1      34.232  11.523  14.269  0.00  0.00    -0.238 OA
HETATM   25  H   UNK N   1      35.638  14.305  14.198  0.00  0.00     0.165 HD
BRANCH  23  26
HETATM   26  O   UNK N   1      34.233  13.061  15.897  0.00  0.00    -0.304 OA
BRANCH  26  27
HETATM   27  C   UNK N   1      34.936  12.766  17.048  0.00  0.00     0.176 C 
HETATM   28  C   UNK N   1      35.233  14.023  17.848  0.00  0.00     0.034 C 
ENDBRANCH  26  27
ENDBRANCH  23  26
ENDBRANCH  21  22
BRANCH  21  29
HETATM   29  C   UNK N   1      37.198  12.719  12.435  0.00  0.00     0.073 C 
BRANCH  29  30
HETATM   30  C   UNK N   1      37.668  11.368  12.930  0.00  0.00    -0.056 A 
HETATM   31  C   UNK N   1      38.167  11.165  14.229  0.00  0.00     0.007 A 
HETATM   32  C   UNK N   1      38.553   9.891  14.653  0.00  0.00     0.001 A 
HETATM   33  C   UNK N   1      38.467   8.810  13.774  0.00  0.00     0.000 A 
HETATM   34  C   UNK N   1      37.991   9.004  12.473  0.00  0.00     0.001 A 
HETATM   35  C   UNK N   1      37.587  10.277  12.057  0.00  0.00     0.007 A 
ENDBRANCH  29  30
ENDBRANCH  21  29
ENDBRANCH   6  21
TORSDOF 13
ENDMDL
MODEL 5
REMARK VINA RESULT:      -6.2      1.939      3.090
REMARK  13 active torsions:
REMARK  status: ('A' for Active; 'I' for Inactive)
REMARK    1  A    between atoms: N_1  and  C_2 
REMARK    2  A    between atoms: C_2  and  C_3 
REMARK    3  A    between atoms: C_3  and  C_4 
REMARK    4  A    between atoms: C_4  and  C_5 
REMARK    5  A    between atoms: C_5  and  N_6 
REMARK    6  A    between atoms: N_6  and  N_7 
REMARK       I    between atoms: N_7  and  C_8 
REMARK    7  A    between atoms: C_10  and  C_8 
REMARK       I    between atoms: N_11  and  C_15 
REMARK    8  A    between atoms: C_15  and  C_17 
REMARK    9  A    between atoms: C_17  and  N_18 
REMARK   10  A    between atoms: C_17  and  C_19 
REMARK       I    between atoms: N_18  and  C_26 
REMARK   11  A    between atoms: C_19  and  C_20 
REMARK   12  A    between atoms: C_26  and  O_28 
REMARK   13  A    between atoms: O_28  and  C_29 
ROOT
HETATM    1  C   UNK N   1      34.230  17.257   6.978  0.00  0.00     0.181 C 
HETATM    2  N   UNK N   1      34.774  15.970   7.328  0.00  0.00    -0.337 N 
HETATM    3  C   UNK N   1      33.106  16.852   6.048  0.00  0.00     0.037 C 
HETATM    4  C   UNK N   1      33.700  15.602   5.334  0.00  0.00     0.022 C 
HETATM    5  C   UNK N   1      34.930  15.167   6.160  0.00  0.00     0.127 C 
HETATM    6  C   UNK N   1      34.866  15.443   8.597  0.00  0.00     0.243 C 
HETATM    7  O   UNK N   1      34.263  15.967   9.521  0.00  0.00    -0.271 OA
ENDROOT
BRANCH   1   8
HETATM    8  C   UNK N   1      34.065  18.223   8.146  0.00  0.00     0.258 C 
HETATM    9  N   UNK N   1      33.009  18.233   8.989  0.00  0.00    -0.273 N 
HETATM   10  H   UNK N   1      33.089  18.727   9.836  0.00  0.00     0.189 HD
HETATM   11  O   UNK N   1      34.938  19.063   8.313  0.00  0.00    -0.269 OA
BRANCH   9  12
HETATM   12  N   UNK N   1      31.819  17.580   8.713  0.00  0.00    -0.334 N 
HETATM   13  H   UNK N   1      31.719  16.618   8.387  0.00  0.00     0.180 HD
BRANCH  12  14
HETATM   14  C   UNK N   1      30.725  18.529   8.972  0.00  0.00     0.139 C 
BRANCH  14  15
HETATM   15  C   UNK N   1      29.513  17.885   9.670  0.00  0.00     0.023 C 
BRANCH  15  16
HETATM   16  C   UNK N   1      28.185  18.312   9.062  0.00  0.00     0.021 C 
BRANCH  16  17
HETATM   17  C   UNK N   1      28.292  18.561   7.567  0.00  0.00     0.111 C 
BRANCH  17  18
HETATM   18  N   UNK N   1      27.437  19.673   7.192  0.00  0.00    -0.430 N 
HETATM   19  H   UNK N   1      27.302  20.654   6.952  0.00  0.00     0.149 HD
HETATM   20  H   UNK N   1      26.502  19.269   7.142  0.00  0.00     0.149 HD
ENDBRANCH  17  18
ENDBRANCH  16  17
ENDBRANCH  15  16
ENDBRANCH  14  15
ENDBRANCH  12  14
ENDBRANCH   9  12
ENDBRANCH   1   8
BRANCH   6  21
HETATM   21  C   UNK N   1      35.791  14.273   8.899  0.00  0.00     0.183 C 
BRANCH  21  22
HETATM   22  N   UNK N   1      35.069  13.062   9.226  0.00  0.00    -0.323 N 
HETATM   23  C   UNK N   1      35.237  11.916   8.515  0.00  0.00     0.361 C 
HETATM   24  O   UNK N   1      36.029  11.883   7.576  0.00  0.00    -0.238 OA
HETATM   25  H   UNK N   1      34.439  13.069   9.983  0.00  0.00     0.165 HD
BRANCH  23  26
HETATM   26  O   UNK N   1      34.482  10.829   8.805  0.00  0.00    -0.304 OA
BRANCH  26  27
HETATM   27  C   UNK N   1      33.471  10.840   9.745  0.00  0.00     0.176 C 
HETATM   28  C   UNK N   1      33.953  10.294  11.079  0.00  0.00     0.034 C 
ENDBRANCH  26  27
ENDBRANCH  23  26
ENDBRANCH  21  22
BRANCH  21  29
HETATM   29  C   UNK N   1      36.847  14.560   9.993  0.00  0.00     0.073 C 
BRANCH  29  30
HETATM   30  C   UNK N   1      36.669  13.914  11.351  0.00  0.00    -0.056 A 
HETATM   31  C   UNK N   1      35.852  14.466  12.354  0.00  0.00     0.007 A 
HETATM   32  C   UNK N   1      35.688  13.813  13.577  0.00  0.00     0.001 A 
HETATM   33  C   UNK N   1      36.357  12.612  13.821  0.00  0.00     0.000 A 
HETATM   34  C   UNK N   1      37.188  12.064  12.837  0.00  0.00     0.001 A 
HETATM   35  C   UNK N   1      37.335  12.710  11.606  0.00  0.00     0.007 A 
ENDBRANCH  29  30
ENDBRANCH  21  29
ENDBRANCH   6  21
TORSDOF 13
ENDMDL
MODEL 6
REMARK VINA RESULT:      -6.0     18.600     21.405
REMARK  13 active torsions:
REMARK  status: ('A' for Active; 'I' for Inactive)
REMARK    1  A    between atoms: N_1  and  C_2 
REMARK    2  A    between atoms: C_2  and  C_3 
REMARK    3  A    between atoms: C_3  and  C_4 
REMARK    4  A    between atoms: C_4  and  C_5 
REMARK    5  A    between atoms: C_5  and  N_6 
REMARK    6  A    between atoms: N_6  and  N_7 
REMARK       I    between atoms: N_7  and  C_8 
REMARK    7  A    between atoms: C_10  and  C_8 
REMARK       I    between atoms: N_11  and  C_15 
REMARK    8  A    between atoms: C_15  and  C_17 
REMARK    9  A    between atoms: C_17  and  N_18 
REMARK   10  A    between atoms: C_17  and  C_19 
REMARK       I    between atoms: N_18  and  C_26 
REMARK   11  A    between atoms: C_19  and  C_20 
REMARK   12  A    between atoms: C_26  and  O_28 
REMARK   13  A    between atoms: O_28  and  C_29 
ROOT
HETATM    1  C   UNK N   1      25.513  26.139  -5.576  0.00  0.00     0.181 C 
HETATM    2  N   UNK N   1      26.689  25.955  -4.765  0.00  0.00    -0.337 N 
HETATM    3  C   UNK N   1      25.166  27.578  -5.259  0.00  0.00     0.037 C 
HETATM    4  C   UNK N   1      25.583  27.699  -3.763  0.00  0.00     0.022 C 
HETATM    5  C   UNK N   1      26.468  26.472  -3.454  0.00  0.00     0.127 C 
HETATM    6  C   UNK N   1      27.945  25.614  -5.215  0.00  0.00     0.243 C 
HETATM    7  O   UNK N   1      28.199  25.666  -6.409  0.00  0.00    -0.271 OA
ENDROOT
BRANCH   1   8
HETATM    8  C   UNK N   1      25.616  25.577  -6.990  0.00  0.00     0.258 C 
HETATM    9  N   UNK N   1      25.488  24.270  -7.306  0.00  0.00    -0.273 N 
HETATM   10  H   UNK N   1      25.342  24.026  -8.248  0.00  0.00     0.189 HD
HETATM   11  O   UNK N   1      25.857  26.363  -7.894  0.00  0.00    -0.269 OA
BRANCH   9  12
HETATM   12  N   UNK N   1      25.554  23.257  -6.363  0.00  0.00    -0.334 N 
HETATM   13  H   UNK N   1      25.865  23.352  -5.396  0.00  0.00     0.180 HD
BRANCH  12  14
HETATM   14  C   UNK N   1      25.095  22.019  -7.013  0.00  0.00     0.139 C 
BRANCH  14  15
HETATM   15  C   UNK N   1      26.170  21.364  -7.899  0.00  0.00     0.023 C 
BRANCH  15  16
HETATM   16  C   UNK N   1      25.753  21.266  -9.360  0.00  0.00     0.021 C 
BRANCH  16  17
HETATM   17  C   UNK N   1      26.506  22.251 -10.238  0.00  0.00     0.111 C 
BRANCH  17  18
HETATM   18  N   UNK N   1      27.705  22.701  -9.554  0.00  0.00    -0.430 N 
HETATM   19  H   UNK N   1      28.700  22.922  -9.547  0.00  0.00     0.149 HD
HETATM   20  H   UNK N   1      27.396  22.895  -8.601  0.00  0.00     0.149 HD
ENDBRANCH  17  18
ENDBRANCH  16  17
ENDBRANCH  15  16
ENDBRANCH  14  15
ENDBRANCH  12  14
ENDBRANCH   9  12
ENDBRANCH   1   8
BRANCH   6  21
HETATM   21  C   UNK N   1      29.003  25.072  -4.266  0.00  0.00     0.183 C 
BRANCH  21  22
HETATM   22  N   UNK N   1      30.346  25.222  -4.784  0.00  0.00    -0.323 N 
HETATM   23  C   UNK N   1      31.297  25.921  -4.111  0.00  0.00     0.361 C 
HETATM   24  O   UNK N   1      31.034  26.431  -3.024  0.00  0.00    -0.238 OA
HETATM   25  H   UNK N   1      30.576  24.809  -5.647  0.00  0.00     0.165 HD
BRANCH  23  26
HETATM   26  O   UNK N   1      32.518  26.103  -4.669  0.00  0.00    -0.304 OA
BRANCH  26  27
HETATM   27  C   UNK N   1      33.312  25.062  -5.107  0.00  0.00     0.176 C 
HETATM   28  C   UNK N   1      34.774  25.473  -5.167  0.00  0.00     0.034 C 
ENDBRANCH  26  27
ENDBRANCH  23  26
ENDBRANCH  21  22
BRANCH  21  29
HETATM   29  C   UNK N   1      28.775  23.605  -3.827  0.00  0.00     0.073 C 
BRANCH  29  30
HETATM   30  C   UNK N   1      29.498  22.510  -4.583  0.00  0.00    -0.056 A 
HETATM   31  C   UNK N   1      30.506  21.721  -3.999  0.00  0.00     0.007 A 
HETATM   32  C   UNK N   1      31.117  20.697  -4.725  0.00  0.00     0.001 A 
HETATM   33  C   UNK N   1      30.745  20.464  -6.050  0.00  0.00     0.000 A 
HETATM   34  C   UNK N   1      29.758  21.255  -6.646  0.00  0.00     0.001 A 
HETATM   35  C   UNK N   1      29.133  22.268  -5.912  0.00  0.00     0.007 A 
ENDBRANCH  29  30
ENDBRANCH  21  29
ENDBRANCH   6  21
TORSDOF 13
ENDMDL
MODEL 7
REMARK VINA RESULT:      -6.0     18.480     21.810
REMARK  13 active torsions:
REMARK  status: ('A' for Active; 'I' for Inactive)
REMARK    1  A    between atoms: N_1  and  C_2 
REMARK    2  A    between atoms: C_2  and  C_3 
REMARK    3  A    between atoms: C_3  and  C_4 
REMARK    4  A    between atoms: C_4  and  C_5 
REMARK    5  A    between atoms: C_5  and  N_6 
REMARK    6  A    between atoms: N_6  and  N_7 
REMARK       I    between atoms: N_7  and  C_8 
REMARK    7  A    between atoms: C_10  and  C_8 
REMARK       I    between atoms: N_11  and  C_15 
REMARK    8  A    between atoms: C_15  and  C_17 
REMARK    9  A    between atoms: C_17  and  N_18 
REMARK   10  A    between atoms: C_17  and  C_19 
REMARK       I    between atoms: N_18  and  C_26 
REMARK   11  A    between atoms: C_19  and  C_20 
REMARK   12  A    between atoms: C_26  and  O_28 
REMARK   13  A    between atoms: O_28  and  C_29 
ROOT
HETATM    1  C   UNK N   1      30.096  24.726  -3.452  0.00  0.00     0.181 C 
HETATM    2  N   UNK N   1      28.852  24.848  -4.169  0.00  0.00    -0.337 N 
HETATM    3  C   UNK N   1      29.952  23.340  -2.860  0.00  0.00     0.037 C 
HETATM    4  C   UNK N   1      28.424  23.260  -2.569  0.00  0.00     0.022 C 
HETATM    5  C   UNK N   1      27.767  24.420  -3.349  0.00  0.00     0.127 C 
HETATM    6  C   UNK N   1      28.709  25.056  -5.523  0.00  0.00     0.243 C 
HETATM    7  O   UNK N   1      29.669  24.923  -6.265  0.00  0.00    -0.271 OA
ENDROOT
BRANCH   1   8
HETATM    8  C   UNK N   1      31.326  25.204  -4.217  0.00  0.00     0.258 C 
HETATM    9  N   UNK N   1      31.593  26.496  -4.506  0.00  0.00    -0.273 N 
HETATM   10  H   UNK N   1      32.503  26.735  -4.795  0.00  0.00     0.189 HD
HETATM   11  O   UNK N   1      32.108  24.355  -4.617  0.00  0.00    -0.269 OA
BRANCH   9  12
HETATM   12  N   UNK N   1      30.643  27.501  -4.415  0.00  0.00    -0.334 N 
HETATM   13  H   UNK N   1      29.633  27.373  -4.343  0.00  0.00     0.180 HD
BRANCH  12  14
HETATM   14  C   UNK N   1      31.357  28.787  -4.443  0.00  0.00     0.139 C 
BRANCH  14  15
HETATM   15  C   UNK N   1      30.889  29.767  -3.352  0.00  0.00     0.023 C 
BRANCH  15  16
HETATM   16  C   UNK N   1      29.874  29.151  -2.399  0.00  0.00     0.021 C 
BRANCH  16  17
HETATM   17  C   UNK N   1      29.779  29.917  -1.091  0.00  0.00     0.111 C 
BRANCH  17  18
HETATM   18  N   UNK N   1      28.399  29.954  -0.643  0.00  0.00    -0.430 N 
HETATM   19  H   UNK N   1      27.488  30.410  -0.590  0.00  0.00     0.149 HD
HETATM   20  H   UNK N   1      28.279  29.088  -0.117  0.00  0.00     0.149 HD
ENDBRANCH  17  18
ENDBRANCH  16  17
ENDBRANCH  15  16
ENDBRANCH  14  15
ENDBRANCH  12  14
ENDBRANCH   9  12
ENDBRANCH   1   8
BRANCH   6  21
HETATM   21  C   UNK N   1      27.396  25.553  -6.109  0.00  0.00     0.183 C 
BRANCH  21  22
HETATM   22  N   UNK N   1      26.829  24.628  -7.068  0.00  0.00    -0.323 N 
HETATM   23  C   UNK N   1      25.680  23.949  -6.813  0.00  0.00     0.361 C 
HETATM   24  O   UNK N   1      25.083  24.124  -5.753  0.00  0.00    -0.238 OA
HETATM   25  H   UNK N   1      27.288  24.487  -7.927  0.00  0.00     0.165 HD
BRANCH  23  26
HETATM   26  O   UNK N   1      25.227  23.035  -7.704  0.00  0.00    -0.304 OA
BRANCH  26  27
HETATM   27  C   UNK N   1      24.946  21.726  -7.367  0.00  0.00     0.176 C 
HETATM   28  C   UNK N   1      25.683  20.754  -8.274  0.00  0.00     0.034 C 
ENDBRANCH  26  27
ENDBRANCH  23  26
ENDBRANCH  21  22
BRANCH  21  29
HETATM   29  C   UNK N   1      27.469  26.968  -6.732  0.00  0.00     0.073 C 
BRANCH  29  30
HETATM   30  C   UNK N   1      27.290  28.163  -5.821  0.00  0.00    -0.056 A 
HETATM   31  C   UNK N   1      27.964  29.381  -6.023  0.00  0.00     0.007 A 
HETATM   32  C   UNK N   1      27.737  30.469  -5.177  0.00  0.00     0.001 A 
HETATM   33  C   UNK N   1      26.852  30.345  -4.105  0.00  0.00     0.000 A 
HETATM   34  C   UNK N   1      26.192  29.132  -3.883  0.00  0.00     0.001 A 
HETATM   35  C   UNK N   1      26.406  28.050  -4.742  0.00  0.00     0.007 A 
ENDBRANCH  29  30
ENDBRANCH  21  29
ENDBRANCH   6  21
TORSDOF 13
ENDMDL
MODEL 8
REMARK VINA RESULT:      -6.0     17.589     21.924
REMARK  13 active torsions:
REMARK  status: ('A' for Active; 'I' for Inactive)
REMARK    1  A    between atoms: N_1  and  C_2 
REMARK    2  A    between atoms: C_2  and  C_3 
REMARK    3  A    between atoms: C_3  and  C_4 
REMARK    4  A    between atoms: C_4  and  C_5 
REMARK    5  A    between atoms: C_5  and  N_6 
REMARK    6  A    between atoms: N_6  and  N_7 
REMARK       I    between atoms: N_7  and  C_8 
REMARK    7  A    between atoms: C_10  and  C_8 
REMARK       I    between atoms: N_11  and  C_15 
REMARK    8  A    between atoms: C_15  and  C_17 
REMARK    9  A    between atoms: C_17  and  N_18 
REMARK   10  A    between atoms: C_17  and  C_19 
REMARK       I    between atoms: N_18  and  C_26 
REMARK   11  A    between atoms: C_19  and  C_20 
REMARK   12  A    between atoms: C_26  and  O_28 
REMARK   13  A    between atoms: O_28  and  C_29 
ROOT
HETATM    1  C   UNK N   1      29.032  25.193  -4.131  0.00  0.00     0.181 C 
HETATM    2  N   UNK N   1      27.724  24.962  -4.690  0.00  0.00    -0.337 N 
HETATM    3  C   UNK N   1      29.233  23.923  -3.334  0.00  0.00     0.037 C 
HETATM    4  C   UNK N   1      27.791  23.609  -2.837  0.00  0.00     0.022 C 
HETATM    5  C   UNK N   1      26.836  24.482  -3.682  0.00  0.00     0.127 C 
HETATM    6  C   UNK N   1      27.406  24.913  -6.029  0.00  0.00     0.243 C 
HETATM    7  O   UNK N   1      28.294  24.839  -6.864  0.00  0.00    -0.271 OA
ENDROOT
BRANCH   1   8
HETATM    8  C   UNK N   1      30.055  25.758  -5.110  0.00  0.00     0.258 C 
HETATM    9  N   UNK N   1      30.886  25.009  -5.867  0.00  0.00    -0.273 N 
HETATM   10  H   UNK N   1      31.346  25.437  -6.625  0.00  0.00     0.189 HD
HETATM   11  O   UNK N   1      30.146  26.974  -5.193  0.00  0.00    -0.269 OA
BRANCH   9  12
HETATM   12  N   UNK N   1      31.120  23.665  -5.624  0.00  0.00    -0.334 N 
HETATM   13  H   UNK N   1      30.481  22.895  -5.824  0.00  0.00     0.180 HD
BRANCH  12  14
HETATM   14  C   UNK N   1      32.459  23.553  -5.023  0.00  0.00     0.139 C 
BRANCH  14  15
HETATM   15  C   UNK N   1      33.102  22.169  -5.226  0.00  0.00     0.023 C 
BRANCH  15  16
HETATM   16  C   UNK N   1      33.342  21.430  -3.917  0.00  0.00     0.021 C 
BRANCH  16  17
HETATM   17  C   UNK N   1      32.161  21.547  -2.968  0.00  0.00     0.111 C 
BRANCH  17  18
HETATM   18  N   UNK N   1      31.078  20.694  -3.424  0.00  0.00    -0.430 N 
HETATM   19  H   UNK N   1      30.659  20.078  -4.120  0.00  0.00     0.149 HD
HETATM   20  H   UNK N   1      30.394  20.725  -2.668  0.00  0.00     0.149 HD
ENDBRANCH  17  18
ENDBRANCH  16  17
ENDBRANCH  15  16
ENDBRANCH  14  15
ENDBRANCH  12  14
ENDBRANCH   9  12
ENDBRANCH   1   8
BRANCH   6  21
HETATM   21  C   UNK N   1      25.967  25.053  -6.503  0.00  0.00     0.183 C 
BRANCH  21  22
HETATM   22  N   UNK N   1      25.684  24.244  -7.669  0.00  0.00    -0.323 N 
HETATM   23  C   UNK N   1      25.244  22.963  -7.560  0.00  0.00     0.361 C 
HETATM   24  O   UNK N   1      25.060  22.466  -6.451  0.00  0.00    -0.238 OA
HETATM   25  H   UNK N   1      25.815  24.631  -8.565  0.00  0.00     0.165 HD
BRANCH  23  26
HETATM   26  O   UNK N   1      25.067  22.215  -8.676  0.00  0.00    -0.304 OA
BRANCH  26  27
HETATM   27  C   UNK N   1      25.969  21.258  -9.095  0.00  0.00     0.176 C 
HETATM   28  C   UNK N   1      25.921  21.080 -10.603  0.00  0.00     0.034 C 
ENDBRANCH  26  27
ENDBRANCH  23  26
ENDBRANCH  21  22
BRANCH  21  29
HETATM   29  C   UNK N   1      25.519  26.512  -6.762  0.00  0.00     0.073 C 
BRANCH  29  30
HETATM   30  C   UNK N   1      26.089  27.604  -5.882  0.00  0.00    -0.056 A 
HETATM   31  C   UNK N   1      27.170  28.412  -6.276  0.00  0.00     0.007 A 
HETATM   32  C   UNK N   1      27.636  29.434  -5.445  0.00  0.00     0.001 A 
HETATM   33  C   UNK N   1      27.041  29.643  -4.200  0.00  0.00     0.000 A 
HETATM   34  C   UNK N   1      25.978  28.832  -3.789  0.00  0.00     0.001 A 
HETATM   35  C   UNK N   1      25.501  27.823  -4.631  0.00  0.00     0.007 A 
ENDBRANCH  29  30
ENDBRANCH  21  29
ENDBRANCH   6  21
TORSDOF 13
ENDMDL
MODEL 9
REMARK VINA RESULT:      -6.0     11.322     14.536
REMARK  13 active torsions:
REMARK  status: ('A' for Active; 'I' for Inactive)
REMARK    1  A    between atoms: N_1  and  C_2 
REMARK    2  A    between atoms: C_2  and  C_3 
REMARK    3  A    between atoms: C_3  and  C_4 
REMARK    4  A    between atoms: C_4  and  C_5 
REMARK    5  A    between atoms: C_5  and  N_6 
REMARK    6  A    between atoms: N_6  and  N_7 
REMARK       I    between atoms: N_7  and  C_8 
REMARK    7  A    between atoms: C_10  and  C_8 
REMARK       I    between atoms: N_11  and  C_15 
REMARK    8  A    between atoms: C_15  and  C_17 
REMARK    9  A    between atoms: C_17  and  N_18 
REMARK   10  A    between atoms: C_17  and  C_19 
REMARK       I    between atoms: N_18  and  C_26 
REMARK   11  A    between atoms: C_19  and  C_20 
REMARK   12  A    between atoms: C_26  and  O_28 
REMARK   13  A    between atoms: O_28  and  C_29 
ROOT
HETATM    1  C   UNK N   1      21.551  14.907   1.296  0.00  0.00     0.181 C 
HETATM    2  N   UNK N   1      22.557  15.155   2.297  0.00  0.00    -0.337 N 
HETATM    3  C   UNK N   1      22.021  13.582   0.736  0.00  0.00     0.037 C 
HETATM    4  C   UNK N   1      23.571  13.714   0.827  0.00  0.00     0.022 C 
HETATM    5  C   UNK N   1      23.856  14.910   1.761  0.00  0.00     0.127 C 
HETATM    6  C   UNK N   1      22.341  15.315   3.648  0.00  0.00     0.243 C 
HETATM    7  O   UNK N   1      21.258  15.023   4.131  0.00  0.00    -0.271 OA
ENDROOT
BRANCH   1   8
HETATM    8  C   UNK N   1      20.120  15.186   1.743  0.00  0.00     0.258 C 
HETATM    9  N   UNK N   1      19.606  16.419   1.942  0.00  0.00    -0.273 N 
HETATM   10  H   UNK N   1      18.629  16.517   2.006  0.00  0.00     0.189 HD
HETATM   11  O   UNK N   1      19.399  14.224   1.962  0.00  0.00    -0.269 OA
BRANCH   9  12
HETATM   12  N   UNK N   1      20.393  17.554   2.060  0.00  0.00    -0.334 N 
HETATM   13  H   UNK N   1      21.207  17.785   1.491  0.00  0.00     0.180 HD
BRANCH  12  14
HETATM   14  C   UNK N   1      19.840  18.361   3.159  0.00  0.00     0.139 C 
BRANCH  14  15
HETATM   15  C   UNK N   1      20.710  19.581   3.515  0.00  0.00     0.023 C 
BRANCH  15  16
HETATM   16  C   UNK N   1      21.427  20.168   2.308  0.00  0.00     0.021 C 
BRANCH  16  17
HETATM   17  C   UNK N   1      20.571  21.184   1.571  0.00  0.00     0.111 C 
BRANCH  17  18
HETATM   18  N   UNK N   1      20.561  20.880   0.151  0.00  0.00    -0.430 N 
HETATM   19  H   UNK N   1      20.958  20.417  -0.666  0.00  0.00     0.149 HD
HETATM   20  H   UNK N   1      19.749  21.380  -0.210  0.00  0.00     0.149 HD
ENDBRANCH  17  18
ENDBRANCH  16  17
ENDBRANCH  15  16
ENDBRANCH  14  15
ENDBRANCH  12  14
ENDBRANCH   9  12
ENDBRANCH   1   8
BRANCH   6  21
HETATM   21  C   UNK N   1      23.394  15.948   4.545  0.00  0.00     0.183 C 
BRANCH  21  22
HETATM   22  N   UNK N   1      23.302  15.494   5.916  0.00  0.00    -0.323 N 
HETATM   23  C   UNK N   1      23.969  14.392   6.351  0.00  0.00     0.361 C 
HETATM   24  O   UNK N   1      24.685  13.760   5.577  0.00  0.00    -0.238 OA
HETATM   25  H   UNK N   1      22.742  15.997   6.551  0.00  0.00     0.165 HD
BRANCH  23  26
HETATM   26  O   UNK N   1      23.792  13.958   7.622  0.00  0.00    -0.304 OA
BRANCH  26  27
HETATM   27  C   UNK N   1      22.810  13.057   7.983  0.00  0.00     0.176 C 
HETATM   28  C   UNK N   1      23.381  11.930   8.827  0.00  0.00     0.034 C 
ENDBRANCH  26  27
ENDBRANCH  23  26
ENDBRANCH  21  22
BRANCH  21  29
HETATM   29  C   UNK N   1      23.417  17.495   4.510  0.00  0.00     0.073 C 
BRANCH  29  30
HETATM   30  C   UNK N   1      24.741  18.188   4.268  0.00  0.00    -0.056 A 
HETATM   31  C   UNK N   1      25.979  17.552   4.467  0.00  0.00     0.007 A 
HETATM   32  C   UNK N   1      27.174  18.220   4.193  0.00  0.00     0.001 A 
HETATM   33  C   UNK N   1      27.146  19.540   3.740  0.00  0.00     0.000 A 
HETATM   34  C   UNK N   1      25.921  20.189   3.558  0.00  0.00     0.001 A 
HETATM   35  C   UNK N   1      24.724  19.512   3.814  0.00  0.00     0.007 A 
ENDBRANCH  29  30
ENDBRANCH  21  29
ENDBRANCH   6  21
TORSDOF 13
ENDMDL
