REMARK  8 active torsions:
REMARK  status: ('A' for Active; 'I' for Inactive)
REMARK    1  A    between atoms: C_8  and  O_9 
REMARK    2  A    between atoms: O_9  and  C_10 
REMARK    3  A    between atoms: C_12  and  O_18 
REMARK    4  A    between atoms: O_18  and  C_19 
REMARK    5  A    between atoms: C_24  and  C_25 
REMARK    6  A    between atoms: C_25  and  C_26 
REMARK    7  A    between atoms: C_26  and  O_28 
REMARK    8  A    between atoms: C_30  and  O_31 
ROOT
HETATM    1  N   UNK N   1       4.930  -1.571  -1.759  0.00  0.00    -0.191 NA
HETATM    2  C   UNK N   1       4.663  -2.517  -1.146  0.00  0.00     0.102 C 
HETATM    3  C   UNK N   1       4.348  -3.698  -0.388  0.00  0.00     0.078 A 
HETATM    4  C   UNK N   1       5.335  -4.688  -0.308  0.00  0.00     0.025 A 
HETATM    5  C   UNK N   1       5.087  -5.893   0.351  0.00  0.00     0.002 A 
HETATM    6  C   UNK N   1       3.841  -6.129   0.924  0.00  0.00     0.003 A 
HETATM    7  C   UNK N   1       2.848  -5.156   0.851  0.00  0.00     0.039 A 
HETATM    8  C   UNK N   1       3.080  -3.930   0.215  0.00  0.00     0.098 A 
ENDROOT
BRANCH   8   9
HETATM    9  O   UNK N   1       2.036  -3.065   0.189  0.00  0.00    -0.292 OA
BRANCH   9  10
HETATM   10  C   UNK N   1       1.976  -1.715   0.184  0.00  0.00     0.153 A 
HETATM   11  C   UNK N   1       0.734  -1.134   0.038  0.00  0.00     0.113 A 
HETATM   12  C   UNK N   1       0.603   0.247   0.092  0.00  0.00     0.153 A 
HETATM   13  N   UNK N   1       1.718   1.010   0.259  0.00  0.00    -0.333 N 
HETATM   14  C   UNK N   1       2.940   0.432   0.415  0.00  0.00     0.184 A 
ATOM     15  HN  UNK N   1       1.637   2.027   0.269  1.00  0.00     0.168 HD
HETATM   16  N   UNK N   1       3.063  -0.923   0.400  0.00  0.00    -0.333 N 
ATOM     17  HN  UNK N   1       3.977  -1.350   0.551  1.00  0.00     0.168 HD
BRANCH  12  18
HETATM   18  O   UNK N   1      -0.613   0.852   0.039  0.00  0.00    -0.293 OA
BRANCH  18  19
HETATM   19  C   UNK N   1      -1.845   0.294   0.227  0.00  0.00     0.089 A 
HETATM   20  C   UNK N   1      -2.001  -1.103   0.340  0.00  0.00     0.038 A 
HETATM   21  C   UNK N   1      -3.252  -1.686   0.503  0.00  0.00     0.003 A 
HETATM   22  C   UNK N   1      -4.383  -0.884   0.546  0.00  0.00     0.001 A 
HETATM   23  C   UNK N   1      -4.257   0.500   0.436  0.00  0.00     0.015 A 
HETATM   24  C   UNK N   1      -3.000   1.122   0.292  0.00  0.00     0.016 A 
BRANCH  24  25
HETATM   25  C   UNK N   1      -2.961   2.632   0.188  0.00  0.00     0.074 C 
HETATM   26  C   UNK N   1      -1.935   3.399   0.621  0.00  0.00     0.152 C 
BRANCH  25  27
HETATM   27  C   UNK N   1      -4.123   3.369  -0.391  0.00  0.00     0.295 C 
HETATM   28  O   UNK N   1      -5.101   2.761  -0.807  0.00  0.00    -0.259 OA
BRANCH  27  29
HETATM   29  O   UNK N   1      -4.074   4.721  -0.491  0.00  0.00    -0.322 OA
HETATM   30  C   UNK N   1      -5.081   5.455  -1.072  0.00  0.00     0.213 C 
ENDBRANCH  27  29
ENDBRANCH  25  27
BRANCH  26  31
HETATM   31  O   UNK N   1      -0.855   2.929   1.272  0.00  0.00    -0.367 OA
HETATM   32  C   UNK N   1       0.182   3.770   1.580  0.00  0.00     0.208 C 
ENDBRANCH  26  31
ENDBRANCH  24  25
ENDBRANCH  18  19
ENDBRANCH  12  18
ENDBRANCH   9  10
ENDBRANCH   8   9
TORSDOF 8
