MODEL 1
REMARK VINA RESULT:      -7.1      0.000      0.000
REMARK  8 active torsions:
REMARK  status: ('A' for Active; 'I' for Inactive)
REMARK    1  A    between atoms: C_8  and  O_9 
REMARK    2  A    between atoms: O_9  and  C_10 
REMARK    3  A    between atoms: C_12  and  O_18 
REMARK    4  A    between atoms: O_18  and  C_19 
REMARK    5  A    between atoms: C_24  and  C_25 
REMARK    6  A    between atoms: C_25  and  C_26 
REMARK    7  A    between atoms: C_26  and  O_28 
REMARK    8  A    between atoms: C_30  and  O_31 
ROOT
HETATM    1  N   UNK N   1      19.773  12.137  11.557  0.00  0.00    -0.191 NA
HETATM    2  C   UNK N   1      20.838  12.245  11.112  0.00  0.00     0.102 C 
HETATM    3  C   UNK N   1      22.166  12.372  10.576  0.00  0.00     0.078 A 
HETATM    4  C   UNK N   1      23.232  12.058  11.428  0.00  0.00     0.025 A 
HETATM    5  C   UNK N   1      24.553  12.218  11.008  0.00  0.00     0.002 A 
HETATM    6  C   UNK N   1      24.824  12.712   9.736  0.00  0.00     0.003 A 
HETATM    7  C   UNK N   1      23.776  13.031   8.878  0.00  0.00     0.039 A 
HETATM    8  C   UNK N   1      22.442  12.858   9.267  0.00  0.00     0.098 A 
ENDROOT
BRANCH   8   9
HETATM    9  O   UNK N   1      21.503  13.218   8.357  0.00  0.00    -0.292 OA
BRANCH   9  10
HETATM   10  C   UNK N   1      20.836  14.375   8.151  0.00  0.00     0.153 A 
HETATM   11  C   UNK N   1      20.429  14.655   6.864  0.00  0.00     0.113 A 
HETATM   12  C   UNK N   1      19.682  15.796   6.604  0.00  0.00     0.153 A 
HETATM   13  N   UNK N   1      19.389  16.641   7.630  0.00  0.00    -0.333 N 
HETATM   14  C   UNK N   1      19.782  16.355   8.901  0.00  0.00     0.184 A 
ATOM     15  HN  UNK N   1      18.868  17.498   7.445  1.00  0.00     0.168 HD
HETATM   16  N   UNK N   1      20.481  15.217   9.162  0.00  0.00    -0.333 N 
ATOM     17  HN  UNK N   1      20.743  14.993  10.122  1.00  0.00     0.168 HD
BRANCH  12  18
HETATM   18  O   UNK N   1      19.190  16.061   5.365  0.00  0.00    -0.293 OA
BRANCH  18  19
HETATM   19  C   UNK N   1      19.774  15.824   4.154  0.00  0.00     0.089 A 
HETATM   20  C   UNK N   1      19.462  14.667   3.410  0.00  0.00     0.038 A 
HETATM   21  C   UNK N   1      20.070  14.399   2.189  0.00  0.00     0.003 A 
HETATM   22  C   UNK N   1      21.016  15.279   1.686  0.00  0.00     0.001 A 
HETATM   23  C   UNK N   1      21.343  16.430   2.401  0.00  0.00     0.015 A 
HETATM   24  C   UNK N   1      20.728  16.740   3.631  0.00  0.00     0.016 A 
BRANCH  24  25
HETATM   25  C   UNK N   1      21.142  18.017   4.332  0.00  0.00     0.074 C 
HETATM   26  C   UNK N   1      20.790  19.258   3.926  0.00  0.00     0.152 C 
BRANCH  25  27
HETATM   27  C   UNK N   1      22.025  17.954   5.534  0.00  0.00     0.295 C 
HETATM   28  O   UNK N   1      21.710  18.529   6.568  0.00  0.00    -0.259 OA
BRANCH  27  29
HETATM   29  O   UNK N   1      23.203  17.285   5.463  0.00  0.00    -0.322 OA
HETATM   30  C   UNK N   1      24.277  17.756   4.746  0.00  0.00     0.213 C 
ENDBRANCH  27  29
ENDBRANCH  25  27
BRANCH  26  31
HETATM   31  O   UNK N   1      20.096  19.523   2.803  0.00  0.00    -0.367 OA
HETATM   32  C   UNK N   1      20.605  20.386   1.869  0.00  0.00     0.208 C 
ENDBRANCH  26  31
ENDBRANCH  24  25
ENDBRANCH  18  19
ENDBRANCH  12  18
ENDBRANCH   9  10
ENDBRANCH   8   9
TORSDOF 8
ENDMDL
MODEL 2
REMARK VINA RESULT:      -7.0      1.160      2.778
REMARK  8 active torsions:
REMARK  status: ('A' for Active; 'I' for Inactive)
REMARK    1  A    between atoms: C_8  and  O_9 
REMARK    2  A    between atoms: O_9  and  C_10 
REMARK    3  A    between atoms: C_12  and  O_18 
REMARK    4  A    between atoms: O_18  and  C_19 
REMARK    5  A    between atoms: C_24  and  C_25 
REMARK    6  A    between atoms: C_25  and  C_26 
REMARK    7  A    between atoms: C_26  and  O_28 
REMARK    8  A    between atoms: C_30  and  O_31 
ROOT
HETATM    1  N   UNK N   1      24.976  13.344   7.206  0.00  0.00    -0.191 NA
HETATM    2  C   UNK N   1      24.360  13.100   8.157  0.00  0.00     0.102 C 
HETATM    3  C   UNK N   1      23.610  12.793   9.345  0.00  0.00     0.078 A 
HETATM    4  C   UNK N   1      24.329  12.314  10.448  0.00  0.00     0.025 A 
HETATM    5  C   UNK N   1      23.671  11.929  11.617  0.00  0.00     0.002 A 
HETATM    6  C   UNK N   1      22.284  12.002  11.691  0.00  0.00     0.003 A 
HETATM    7  C   UNK N   1      21.554  12.473  10.603  0.00  0.00     0.039 A 
HETATM    8  C   UNK N   1      22.193  12.887   9.427  0.00  0.00     0.098 A 
ENDROOT
BRANCH   8   9
HETATM    9  O   UNK N   1      21.382  13.311   8.426  0.00  0.00    -0.292 OA
BRANCH   9  10
HETATM   10  C   UNK N   1      20.878  14.527   8.120  0.00  0.00     0.153 A 
HETATM   11  C   UNK N   1      20.448  14.730   6.825  0.00  0.00     0.113 A 
HETATM   12  C   UNK N   1      19.860  15.936   6.470  0.00  0.00     0.153 A 
HETATM   13  N   UNK N   1      19.745  16.916   7.408  0.00  0.00    -0.333 N 
HETATM   14  C   UNK N   1      20.159  16.707   8.688  0.00  0.00     0.184 A 
ATOM     15  HN  UNK N   1      19.343  17.817   7.150  1.00  0.00     0.168 HD
HETATM   16  N   UNK N   1      20.701  15.511   9.045  0.00  0.00    -0.333 N 
ATOM     17  HN  UNK N   1      20.978  15.350  10.013  1.00  0.00     0.168 HD
BRANCH  12  18
HETATM   18  O   UNK N   1      19.346  16.143   5.229  0.00  0.00    -0.293 OA
BRANCH  18  19
HETATM   19  C   UNK N   1      19.835  15.712   4.029  0.00  0.00     0.089 A 
HETATM   20  C   UNK N   1      19.356  14.527   3.432  0.00  0.00     0.038 A 
HETATM   21  C   UNK N   1      19.864  14.063   2.225  0.00  0.00     0.003 A 
HETATM   22  C   UNK N   1      20.875  14.768   1.588  0.00  0.00     0.001 A 
HETATM   23  C   UNK N   1      21.366  15.942   2.156  0.00  0.00     0.015 A 
HETATM   24  C   UNK N   1      20.856  16.451   3.368  0.00  0.00     0.016 A 
BRANCH  24  25
HETATM   25  C   UNK N   1      21.446  17.737   3.905  0.00  0.00     0.074 C 
HETATM   26  C   UNK N   1      22.471  17.795   4.787  0.00  0.00     0.152 C 
BRANCH  25  27
HETATM   27  C   UNK N   1      20.871  19.051   3.491  0.00  0.00     0.295 C 
HETATM   28  O   UNK N   1      20.700  19.942   4.313  0.00  0.00    -0.259 OA
BRANCH  27  29
HETATM   29  O   UNK N   1      20.500  19.240   2.200  0.00  0.00    -0.322 OA
HETATM   30  C   UNK N   1      20.893  20.338   1.473  0.00  0.00     0.213 C 
ENDBRANCH  27  29
ENDBRANCH  25  27
BRANCH  26  31
HETATM   31  O   UNK N   1      23.043  16.721   5.361  0.00  0.00    -0.367 OA
HETATM   32  C   UNK N   1      24.228  16.233   4.878  0.00  0.00     0.208 C 
ENDBRANCH  26  31
ENDBRANCH  24  25
ENDBRANCH  18  19
ENDBRANCH  12  18
ENDBRANCH   9  10
ENDBRANCH   8   9
TORSDOF 8
ENDMDL
MODEL 3
REMARK VINA RESULT:      -7.0      2.073      2.980
REMARK  8 active torsions:
REMARK  status: ('A' for Active; 'I' for Inactive)
REMARK    1  A    between atoms: C_8  and  O_9 
REMARK    2  A    between atoms: O_9  and  C_10 
REMARK    3  A    between atoms: C_12  and  O_18 
REMARK    4  A    between atoms: O_18  and  C_19 
REMARK    5  A    between atoms: C_24  and  C_25 
REMARK    6  A    between atoms: C_25  and  C_26 
REMARK    7  A    between atoms: C_26  and  O_28 
REMARK    8  A    between atoms: C_30  and  O_31 
ROOT
HETATM    1  N   UNK N   1      19.723  13.870   9.829  0.00  0.00    -0.191 NA
HETATM    2  C   UNK N   1      20.804  13.480   9.976  0.00  0.00     0.102 C 
HETATM    3  C   UNK N   1      22.141  12.988  10.174  0.00  0.00     0.078 A 
HETATM    4  C   UNK N   1      22.417  12.361  11.395  0.00  0.00     0.025 A 
HETATM    5  C   UNK N   1      23.705  11.915  11.694  0.00  0.00     0.002 A 
HETATM    6  C   UNK N   1      24.738  12.108  10.782  0.00  0.00     0.003 A 
HETATM    7  C   UNK N   1      24.481  12.732   9.564  0.00  0.00     0.039 A 
HETATM    8  C   UNK N   1      23.192  13.168   9.231  0.00  0.00     0.098 A 
ENDROOT
BRANCH   8   9
HETATM    9  O   UNK N   1      23.062  13.778   8.027  0.00  0.00    -0.292 OA
BRANCH   9  10
HETATM   10  C   UNK N   1      23.943  14.441   7.246  0.00  0.00     0.153 A 
HETATM   11  C   UNK N   1      23.456  15.038   6.102  0.00  0.00     0.113 A 
HETATM   12  C   UNK N   1      24.301  15.788   5.296  0.00  0.00     0.153 A 
HETATM   13  N   UNK N   1      25.615  15.896   5.638  0.00  0.00    -0.333 N 
HETATM   14  C   UNK N   1      26.089  15.316   6.774  0.00  0.00     0.184 A 
ATOM     15  HN  UNK N   1      26.251  16.419   5.036  1.00  0.00     0.168 HD
HETATM   16  N   UNK N   1      25.252  14.612   7.583  0.00  0.00    -0.333 N 
ATOM     17  HN  UNK N   1      25.607  14.209   8.450  1.00  0.00     0.168 HD
BRANCH  12  18
HETATM   18  O   UNK N   1      23.840  16.462   4.210  0.00  0.00    -0.293 OA
BRANCH  18  19
HETATM   19  C   UNK N   1      22.801  16.133   3.387  0.00  0.00     0.089 A 
HETATM   20  C   UNK N   1      22.903  15.056   2.482  0.00  0.00     0.038 A 
HETATM   21  C   UNK N   1      21.864  14.728   1.619  0.00  0.00     0.003 A 
HETATM   22  C   UNK N   1      20.697  15.478   1.634  0.00  0.00     0.001 A 
HETATM   23  C   UNK N   1      20.570  16.548   2.519  0.00  0.00     0.015 A 
HETATM   24  C   UNK N   1      21.598  16.891   3.421  0.00  0.00     0.016 A 
BRANCH  24  25
HETATM   25  C   UNK N   1      21.367  18.064   4.350  0.00  0.00     0.074 C 
HETATM   26  C   UNK N   1      21.453  19.360   3.976  0.00  0.00     0.152 C 
BRANCH  25  27
HETATM   27  C   UNK N   1      21.056  17.823   5.790  0.00  0.00     0.295 C 
HETATM   28  O   UNK N   1      21.440  18.606   6.650  0.00  0.00    -0.259 OA
BRANCH  27  29
HETATM   29  O   UNK N   1      20.375  16.706   6.149  0.00  0.00    -0.322 OA
HETATM   30  C   UNK N   1      20.101  16.397   7.460  0.00  0.00     0.213 C 
ENDBRANCH  27  29
ENDBRANCH  25  27
BRANCH  26  31
HETATM   31  O   UNK N   1      21.834  19.777   2.755  0.00  0.00    -0.367 OA
HETATM   32  C   UNK N   1      20.911  20.299   1.887  0.00  0.00     0.208 C 
ENDBRANCH  26  31
ENDBRANCH  24  25
ENDBRANCH  18  19
ENDBRANCH  12  18
ENDBRANCH   9  10
ENDBRANCH   8   9
TORSDOF 8
ENDMDL
MODEL 4
REMARK VINA RESULT:      -7.0      1.723      3.781
REMARK  8 active torsions:
REMARK  status: ('A' for Active; 'I' for Inactive)
REMARK    1  A    between atoms: C_8  and  O_9 
REMARK    2  A    between atoms: O_9  and  C_10 
REMARK    3  A    between atoms: C_12  and  O_18 
REMARK    4  A    between atoms: O_18  and  C_19 
REMARK    5  A    between atoms: C_24  and  C_25 
REMARK    6  A    between atoms: C_25  and  C_26 
REMARK    7  A    between atoms: C_26  and  O_28 
REMARK    8  A    between atoms: C_30  and  O_31 
ROOT
HETATM    1  N   UNK N   1      25.208  13.442   7.495  0.00  0.00    -0.191 NA
HETATM    2  C   UNK N   1      24.512  13.190   8.387  0.00  0.00     0.102 C 
HETATM    3  C   UNK N   1      23.662  12.870   9.502  0.00  0.00     0.078 A 
HETATM    4  C   UNK N   1      24.267  12.279  10.618  0.00  0.00     0.025 A 
HETATM    5  C   UNK N   1      23.505  11.876  11.715  0.00  0.00     0.002 A 
HETATM    6  C   UNK N   1      22.124  12.046  11.703  0.00  0.00     0.003 A 
HETATM    7  C   UNK N   1      21.506  12.630  10.600  0.00  0.00     0.039 A 
HETATM    8  C   UNK N   1      22.252  13.063   9.496  0.00  0.00     0.098 A 
ENDROOT
BRANCH   8   9
HETATM    9  O   UNK N   1      21.544  13.601   8.473  0.00  0.00    -0.292 OA
BRANCH   9  10
HETATM   10  C   UNK N   1      21.246  14.878   8.148  0.00  0.00     0.153 A 
HETATM   11  C   UNK N   1      21.862  15.413   7.036  0.00  0.00     0.113 A 
HETATM   12  C   UNK N   1      21.545  16.697   6.617  0.00  0.00     0.153 A 
HETATM   13  N   UNK N   1      20.645  17.423   7.336  0.00  0.00    -0.333 N 
HETATM   14  C   UNK N   1      20.030  16.888   8.425  0.00  0.00     0.184 A 
ATOM     15  HN  UNK N   1      20.427  18.379   7.054  1.00  0.00     0.168 HD
HETATM   16  N   UNK N   1      20.313  15.615   8.814  0.00  0.00    -0.333 N 
ATOM     17  HN  UNK N   1      19.824  15.208   9.611  1.00  0.00     0.168 HD
BRANCH  12  18
HETATM   18  O   UNK N   1      22.065  17.226   5.478  0.00  0.00    -0.293 OA
BRANCH  18  19
HETATM   19  C   UNK N   1      21.404  17.814   4.438  0.00  0.00     0.089 A 
HETATM   20  C   UNK N   1      21.254  19.215   4.371  0.00  0.00     0.038 A 
HETATM   21  C   UNK N   1      20.558  19.824   3.333  0.00  0.00     0.003 A 
HETATM   22  C   UNK N   1      19.984  19.044   2.340  0.00  0.00     0.001 A 
HETATM   23  C   UNK N   1      20.117  17.657   2.383  0.00  0.00     0.015 A 
HETATM   24  C   UNK N   1      20.835  17.012   3.411  0.00  0.00     0.016 A 
BRANCH  24  25
HETATM   25  C   UNK N   1      20.933  15.501   3.370  0.00  0.00     0.074 C 
HETATM   26  C   UNK N   1      22.059  14.819   3.063  0.00  0.00     0.152 C 
BRANCH  25  27
HETATM   27  C   UNK N   1      19.724  14.669   3.645  0.00  0.00     0.295 C 
HETATM   28  O   UNK N   1      19.004  14.915   4.605  0.00  0.00    -0.259 OA
BRANCH  27  29
HETATM   29  O   UNK N   1      19.447  13.609   2.846  0.00  0.00    -0.322 OA
HETATM   30  C   UNK N   1      18.949  13.755   1.572  0.00  0.00     0.213 C 
ENDBRANCH  27  29
ENDBRANCH  25  27
BRANCH  26  31
HETATM   31  O   UNK N   1      23.214  15.390   2.676  0.00  0.00    -0.367 OA
HETATM   32  C   UNK N   1      24.303  15.372   3.508  0.00  0.00     0.208 C 
ENDBRANCH  26  31
ENDBRANCH  24  25
ENDBRANCH  18  19
ENDBRANCH  12  18
ENDBRANCH   9  10
ENDBRANCH   8   9
TORSDOF 8
ENDMDL
MODEL 5
REMARK VINA RESULT:      -6.9      2.880      4.119
REMARK  8 active torsions:
REMARK  status: ('A' for Active; 'I' for Inactive)
REMARK    1  A    between atoms: C_8  and  O_9 
REMARK    2  A    between atoms: O_9  and  C_10 
REMARK    3  A    between atoms: C_12  and  O_18 
REMARK    4  A    between atoms: O_18  and  C_19 
REMARK    5  A    between atoms: C_24  and  C_25 
REMARK    6  A    between atoms: C_25  and  C_26 
REMARK    7  A    between atoms: C_26  and  O_28 
REMARK    8  A    between atoms: C_30  and  O_31 
ROOT
HETATM    1  N   UNK N   1      19.485  14.121   9.813  0.00  0.00    -0.191 NA
HETATM    2  C   UNK N   1      20.551  13.689   9.946  0.00  0.00     0.102 C 
HETATM    3  C   UNK N   1      21.871  13.145  10.125  0.00  0.00     0.078 A 
HETATM    4  C   UNK N   1      22.080  12.334  11.247  0.00  0.00     0.025 A 
HETATM    5  C   UNK N   1      23.346  11.820  11.532  0.00  0.00     0.002 A 
HETATM    6  C   UNK N   1      24.423  12.126  10.705  0.00  0.00     0.003 A 
HETATM    7  C   UNK N   1      24.232  12.933   9.587  0.00  0.00     0.039 A 
HETATM    8  C   UNK N   1      22.967  13.442   9.267  0.00  0.00     0.098 A 
ENDROOT
BRANCH   8   9
HETATM    9  O   UNK N   1      22.901  14.230   8.166  0.00  0.00    -0.292 OA
BRANCH   9  10
HETATM   10  C   UNK N   1      22.869  13.943   6.846  0.00  0.00     0.153 A 
HETATM   11  C   UNK N   1      21.714  14.250   6.156  0.00  0.00     0.113 A 
HETATM   12  C   UNK N   1      21.647  14.039   4.786  0.00  0.00     0.153 A 
HETATM   13  N   UNK N   1      22.722  13.500   4.147  0.00  0.00    -0.333 N 
HETATM   14  C   UNK N   1      23.863  13.210   4.829  0.00  0.00     0.184 A 
ATOM     15  HN  UNK N   1      22.672  13.312   3.146  1.00  0.00     0.168 HD
HETATM   16  N   UNK N   1      23.942  13.452   6.166  0.00  0.00    -0.333 N 
ATOM     17  HN  UNK N   1      24.812  13.263   6.664  1.00  0.00     0.168 HD
BRANCH  12  18
HETATM   18  O   UNK N   1      20.560  14.408   4.059  0.00  0.00    -0.293 OA
BRANCH  18  19
HETATM   19  C   UNK N   1      20.377  15.548   3.330  0.00  0.00     0.089 A 
HETATM   20  C   UNK N   1      20.070  16.772   3.959  0.00  0.00     0.038 A 
HETATM   21  C   UNK N   1      19.853  17.934   3.228  0.00  0.00     0.003 A 
HETATM   22  C   UNK N   1      19.927  17.898   1.843  0.00  0.00     0.001 A 
HETATM   23  C   UNK N   1      20.228  16.700   1.195  0.00  0.00     0.015 A 
HETATM   24  C   UNK N   1      20.475  15.511   1.911  0.00  0.00     0.016 A 
BRANCH  24  25
HETATM   25  C   UNK N   1      20.803  14.261   1.122  0.00  0.00     0.074 C 
HETATM   26  C   UNK N   1      19.882  13.368   0.692  0.00  0.00     0.152 C 
BRANCH  25  27
HETATM   27  C   UNK N   1      22.224  13.931   0.804  0.00  0.00     0.295 C 
HETATM   28  O   UNK N   1      22.494  13.008   0.047  0.00  0.00    -0.259 OA
BRANCH  27  29
HETATM   29  O   UNK N   1      23.221  14.639   1.392  0.00  0.00    -0.322 OA
HETATM   30  C   UNK N   1      24.549  14.391   1.140  0.00  0.00     0.213 C 
ENDBRANCH  27  29
ENDBRANCH  25  27
BRANCH  26  31
HETATM   31  O   UNK N   1      18.569  13.432   0.978  0.00  0.00    -0.367 OA
HETATM   32  C   UNK N   1      17.678  13.862   0.029  0.00  0.00     0.208 C 
ENDBRANCH  26  31
ENDBRANCH  24  25
ENDBRANCH  18  19
ENDBRANCH  12  18
ENDBRANCH   9  10
ENDBRANCH   8   9
TORSDOF 8
ENDMDL
MODEL 6
REMARK VINA RESULT:      -6.9     15.338     18.309
REMARK  8 active torsions:
REMARK  status: ('A' for Active; 'I' for Inactive)
REMARK    1  A    between atoms: C_8  and  O_9 
REMARK    2  A    between atoms: O_9  and  C_10 
REMARK    3  A    between atoms: C_12  and  O_18 
REMARK    4  A    between atoms: O_18  and  C_19 
REMARK    5  A    between atoms: C_24  and  C_25 
REMARK    6  A    between atoms: C_25  and  C_26 
REMARK    7  A    between atoms: C_26  and  O_28 
REMARK    8  A    between atoms: C_30  and  O_31 
ROOT
HETATM    1  N   UNK N   1      28.980  28.590  -8.224  0.00  0.00    -0.191 NA
HETATM    2  C   UNK N   1      28.215  28.495  -7.359  0.00  0.00     0.102 C 
HETATM    3  C   UNK N   1      27.271  28.392  -6.279  0.00  0.00     0.078 A 
HETATM    4  C   UNK N   1      27.372  29.337  -5.250  0.00  0.00     0.025 A 
HETATM    5  C   UNK N   1      26.540  29.268  -4.132  0.00  0.00     0.002 A 
HETATM    6  C   UNK N   1      25.607  28.241  -4.021  0.00  0.00     0.003 A 
HETATM    7  C   UNK N   1      25.496  27.292  -5.034  0.00  0.00     0.039 A 
HETATM    8  C   UNK N   1      26.304  27.353  -6.176  0.00  0.00     0.098 A 
ENDROOT
BRANCH   8   9
HETATM    9  O   UNK N   1      26.122  26.367  -7.089  0.00  0.00    -0.292 OA
BRANCH   9  10
HETATM   10  C   UNK N   1      26.432  25.052  -7.078  0.00  0.00     0.153 A 
HETATM   11  C   UNK N   1      27.754  24.711  -6.877  0.00  0.00     0.113 A 
HETATM   12  C   UNK N   1      28.121  23.376  -6.790  0.00  0.00     0.153 A 
HETATM   13  N   UNK N   1      27.165  22.417  -6.937  0.00  0.00    -0.333 N 
HETATM   14  C   UNK N   1      25.861  22.757  -7.123  0.00  0.00     0.184 A 
ATOM     15  HN  UNK N   1      27.429  21.432  -6.905  1.00  0.00     0.168 HD
HETATM   16  N   UNK N   1      25.496  24.067  -7.170  0.00  0.00    -0.333 N 
ATOM     17  HN  UNK N   1      24.512  24.314  -7.276  1.00  0.00     0.168 HD
BRANCH  12  18
HETATM   18  O   UNK N   1      29.397  23.002  -6.506  0.00  0.00    -0.293 OA
BRANCH  18  19
HETATM   19  C   UNK N   1      30.455  23.796  -6.166  0.00  0.00     0.089 A 
HETATM   20  C   UNK N   1      31.132  24.561  -7.138  0.00  0.00     0.038 A 
HETATM   21  C   UNK N   1      32.228  25.350  -6.811  0.00  0.00     0.003 A 
HETATM   22  C   UNK N   1      32.683  25.385  -5.501  0.00  0.00     0.001 A 
HETATM   23  C   UNK N   1      32.032  24.637  -4.521  0.00  0.00     0.015 A 
HETATM   24  C   UNK N   1      30.905  23.845  -4.817  0.00  0.00     0.016 A 
BRANCH  24  25
HETATM   25  C   UNK N   1      30.259  23.073  -3.686  0.00  0.00     0.074 C 
HETATM   26  C   UNK N   1      29.074  23.399  -3.121  0.00  0.00     0.152 C 
BRANCH  25  27
HETATM   27  C   UNK N   1      30.955  21.890  -3.099  0.00  0.00     0.295 C 
HETATM   28  O   UNK N   1      31.705  22.022  -2.140  0.00  0.00    -0.259 OA
BRANCH  27  29
HETATM   29  O   UNK N   1      30.782  20.667  -3.660  0.00  0.00    -0.322 OA
HETATM   30  C   UNK N   1      31.643  20.161  -4.604  0.00  0.00     0.213 C 
ENDBRANCH  27  29
ENDBRANCH  25  27
BRANCH  26  31
HETATM   31  O   UNK N   1      28.356  24.493  -3.434  0.00  0.00    -0.367 OA
HETATM   32  C   UNK N   1      26.990  24.469  -3.338  0.00  0.00     0.208 C 
ENDBRANCH  26  31
ENDBRANCH  24  25
ENDBRANCH  18  19
ENDBRANCH  12  18
ENDBRANCH   9  10
ENDBRANCH   8   9
TORSDOF 8
ENDMDL
MODEL 7
REMARK VINA RESULT:      -6.8      1.662      3.612
REMARK  8 active torsions:
REMARK  status: ('A' for Active; 'I' for Inactive)
REMARK    1  A    between atoms: C_8  and  O_9 
REMARK    2  A    between atoms: O_9  and  C_10 
REMARK    3  A    between atoms: C_12  and  O_18 
REMARK    4  A    between atoms: O_18  and  C_19 
REMARK    5  A    between atoms: C_24  and  C_25 
REMARK    6  A    between atoms: C_25  and  C_26 
REMARK    7  A    between atoms: C_26  and  O_28 
REMARK    8  A    between atoms: C_30  and  O_31 
ROOT
HETATM    1  N   UNK N   1      23.280  12.676   6.338  0.00  0.00    -0.191 NA
HETATM    2  C   UNK N   1      22.902  12.600   7.430  0.00  0.00     0.102 C 
HETATM    3  C   UNK N   1      22.446  12.495   8.791  0.00  0.00     0.078 A 
HETATM    4  C   UNK N   1      23.210  11.708   9.661  0.00  0.00     0.025 A 
HETATM    5  C   UNK N   1      22.802  11.499  10.979  0.00  0.00     0.002 A 
HETATM    6  C   UNK N   1      21.615  12.063  11.438  0.00  0.00     0.003 A 
HETATM    7  C   UNK N   1      20.844  12.847  10.585  0.00  0.00     0.039 A 
HETATM    8  C   UNK N   1      21.243  13.089   9.265  0.00  0.00     0.098 A 
ENDROOT
BRANCH   8   9
HETATM    9  O   UNK N   1      20.405  13.852   8.519  0.00  0.00    -0.292 OA
BRANCH   9  10
HETATM   10  C   UNK N   1      20.359  15.181   8.281  0.00  0.00     0.153 A 
HETATM   11  C   UNK N   1      21.135  15.670   7.251  0.00  0.00     0.113 A 
HETATM   12  C   UNK N   1      21.077  17.017   6.918  0.00  0.00     0.153 A 
HETATM   13  N   UNK N   1      20.270  17.842   7.640  0.00  0.00    -0.333 N 
HETATM   14  C   UNK N   1      19.497  17.353   8.647  0.00  0.00     0.184 A 
ATOM     15  HN  UNK N   1      20.243  18.839   7.424  1.00  0.00     0.168 HD
HETATM   16  N   UNK N   1      19.525  16.026   8.949  0.00  0.00    -0.333 N 
ATOM     17  HN  UNK N   1      18.918  15.661   9.683  1.00  0.00     0.168 HD
BRANCH  12  18
HETATM   18  O   UNK N   1      21.760  17.520   5.856  0.00  0.00    -0.293 OA
BRANCH  18  19
HETATM   19  C   UNK N   1      22.599  16.864   5.002  0.00  0.00     0.089 A 
HETATM   20  C   UNK N   1      23.968  16.709   5.304  0.00  0.00     0.038 A 
HETATM   21  C   UNK N   1      24.839  16.068   4.430  0.00  0.00     0.003 A 
HETATM   22  C   UNK N   1      24.363  15.576   3.224  0.00  0.00     0.001 A 
HETATM   23  C   UNK N   1      23.015  15.717   2.900  0.00  0.00     0.015 A 
HETATM   24  C   UNK N   1      22.102  16.342   3.775  0.00  0.00     0.016 A 
BRANCH  24  25
HETATM   25  C   UNK N   1      20.655  16.442   3.341  0.00  0.00     0.074 C 
HETATM   26  C   UNK N   1      19.706  15.526   3.639  0.00  0.00     0.152 C 
BRANCH  25  27
HETATM   27  C   UNK N   1      20.208  17.591   2.500  0.00  0.00     0.295 C 
HETATM   28  O   UNK N   1      20.266  17.527   1.278  0.00  0.00    -0.259 OA
BRANCH  27  29
HETATM   29  O   UNK N   1      19.771  18.727   3.098  0.00  0.00    -0.322 OA
HETATM   30  C   UNK N   1      20.612  19.770   3.404  0.00  0.00     0.213 C 
ENDBRANCH  27  29
ENDBRANCH  25  27
BRANCH  26  31
HETATM   31  O   UNK N   1      19.940  14.370   4.287  0.00  0.00    -0.367 OA
HETATM   32  C   UNK N   1      18.907  13.511   4.554  0.00  0.00     0.208 C 
ENDBRANCH  26  31
ENDBRANCH  24  25
ENDBRANCH  18  19
ENDBRANCH  12  18
ENDBRANCH   9  10
ENDBRANCH   8   9
TORSDOF 8
ENDMDL
MODEL 8
REMARK VINA RESULT:      -6.8     15.871     18.523
REMARK  8 active torsions:
REMARK  status: ('A' for Active; 'I' for Inactive)
REMARK    1  A    between atoms: C_8  and  O_9 
REMARK    2  A    between atoms: O_9  and  C_10 
REMARK    3  A    between atoms: C_12  and  O_18 
REMARK    4  A    between atoms: O_18  and  C_19 
REMARK    5  A    between atoms: C_24  and  C_25 
REMARK    6  A    between atoms: C_25  and  C_26 
REMARK    7  A    between atoms: C_26  and  O_28 
REMARK    8  A    between atoms: C_30  and  O_31 
ROOT
HETATM    1  N   UNK N   1      28.961  28.637  -8.173  0.00  0.00    -0.191 NA
HETATM    2  C   UNK N   1      28.188  28.517  -7.319  0.00  0.00     0.102 C 
HETATM    3  C   UNK N   1      27.234  28.383  -6.251  0.00  0.00     0.078 A 
HETATM    4  C   UNK N   1      27.332  29.291  -5.189  0.00  0.00     0.025 A 
HETATM    5  C   UNK N   1      26.489  29.188  -4.081  0.00  0.00     0.002 A 
HETATM    6  C   UNK N   1      25.549  28.165  -4.014  0.00  0.00     0.003 A 
HETATM    7  C   UNK N   1      25.441  27.252  -5.060  0.00  0.00     0.039 A 
HETATM    8  C   UNK N   1      26.260  27.347  -6.193  0.00  0.00     0.098 A 
ENDROOT
BRANCH   8   9
HETATM    9  O   UNK N   1      26.079  26.395  -7.141  0.00  0.00    -0.292 OA
BRANCH   9  10
HETATM   10  C   UNK N   1      26.314  25.064  -7.146  0.00  0.00     0.153 A 
HETATM   11  C   UNK N   1      27.626  24.650  -7.054  0.00  0.00     0.113 A 
HETATM   12  C   UNK N   1      27.924  23.295  -6.988  0.00  0.00     0.153 A 
HETATM   13  N   UNK N   1      26.906  22.392  -7.047  0.00  0.00    -0.333 N 
HETATM   14  C   UNK N   1      25.612  22.806  -7.126  0.00  0.00     0.184 A 
ATOM     15  HN  UNK N   1      27.116  21.394  -7.031  1.00  0.00     0.168 HD
HETATM   16  N   UNK N   1      25.319  24.134  -7.152  0.00  0.00    -0.333 N 
ATOM     17  HN  UNK N   1      24.345  24.437  -7.177  1.00  0.00     0.168 HD
BRANCH  12  18
HETATM   18  O   UNK N   1      29.196  22.851  -6.810  0.00  0.00    -0.293 OA
BRANCH  18  19
HETATM   19  C   UNK N   1      29.729  22.225  -5.719  0.00  0.00     0.089 A 
HETATM   20  C   UNK N   1      29.664  22.814  -4.440  0.00  0.00     0.038 A 
HETATM   21  C   UNK N   1      30.228  22.202  -3.326  0.00  0.00     0.003 A 
HETATM   22  C   UNK N   1      30.881  20.986  -3.468  0.00  0.00     0.001 A 
HETATM   23  C   UNK N   1      30.960  20.383  -4.722  0.00  0.00     0.015 A 
HETATM   24  C   UNK N   1      30.380  20.969  -5.866  0.00  0.00     0.016 A 
BRANCH  24  25
HETATM   25  C   UNK N   1      30.510  20.236  -7.184  0.00  0.00     0.074 C 
HETATM   26  C   UNK N   1      31.632  20.218  -7.939  0.00  0.00     0.152 C 
BRANCH  25  27
HETATM   27  C   UNK N   1      29.338  19.500  -7.746  0.00  0.00     0.295 C 
HETATM   28  O   UNK N   1      29.262  18.282  -7.645  0.00  0.00    -0.259 OA
BRANCH  27  29
HETATM   29  O   UNK N   1      28.372  20.186  -8.407  0.00  0.00    -0.322 OA
HETATM   30  C   UNK N   1      28.549  20.664  -9.683  0.00  0.00     0.213 C 
ENDBRANCH  27  29
ENDBRANCH  25  27
BRANCH  26  31
HETATM   31  O   UNK N   1      32.749  20.914  -7.658  0.00  0.00    -0.367 OA
HETATM   32  C   UNK N   1      33.088  22.005  -8.415  0.00  0.00     0.208 C 
ENDBRANCH  26  31
ENDBRANCH  24  25
ENDBRANCH  18  19
ENDBRANCH  12  18
ENDBRANCH   9  10
ENDBRANCH   8   9
TORSDOF 8
ENDMDL
MODEL 9
REMARK VINA RESULT:      -6.8      1.723      3.377
REMARK  8 active torsions:
REMARK  status: ('A' for Active; 'I' for Inactive)
REMARK    1  A    between atoms: C_8  and  O_9 
REMARK    2  A    between atoms: O_9  and  C_10 
REMARK    3  A    between atoms: C_12  and  O_18 
REMARK    4  A    between atoms: O_18  and  C_19 
REMARK    5  A    between atoms: C_24  and  C_25 
REMARK    6  A    between atoms: C_25  and  C_26 
REMARK    7  A    between atoms: C_26  and  O_28 
REMARK    8  A    between atoms: C_30  and  O_31 
ROOT
HETATM    1  N   UNK N   1      22.512  12.446   5.791  0.00  0.00    -0.191 NA
HETATM    2  C   UNK N   1      22.384  12.428   6.942  0.00  0.00     0.102 C 
HETATM    3  C   UNK N   1      22.239  12.395   8.373  0.00  0.00     0.078 A 
HETATM    4  C   UNK N   1      23.108  11.559   9.084  0.00  0.00     0.025 A 
HETATM    5  C   UNK N   1      22.991  11.417  10.467  0.00  0.00     0.002 A 
HETATM    6  C   UNK N   1      21.990  12.097  11.154  0.00  0.00     0.003 A 
HETATM    7  C   UNK N   1      21.116  12.931  10.462  0.00  0.00     0.039 A 
HETATM    8  C   UNK N   1      21.228  13.107   9.077  0.00  0.00     0.098 A 
ENDROOT
BRANCH   8   9
HETATM    9  O   UNK N   1      20.312  13.928   8.505  0.00  0.00    -0.292 OA
BRANCH   9  10
HETATM   10  C   UNK N   1      20.304  15.260   8.278  0.00  0.00     0.153 A 
HETATM   11  C   UNK N   1      21.062  15.731   7.227  0.00  0.00     0.113 A 
HETATM   12  C   UNK N   1      21.040  17.081   6.905  0.00  0.00     0.153 A 
HETATM   13  N   UNK N   1      20.288  17.928   7.660  0.00  0.00    -0.333 N 
HETATM   14  C   UNK N   1      19.532  17.457   8.689  0.00  0.00     0.184 A 
ATOM     15  HN  UNK N   1      20.289  18.927   7.452  1.00  0.00     0.168 HD
HETATM   16  N   UNK N   1      19.524  16.128   8.981  0.00  0.00    -0.333 N 
ATOM     17  HN  UNK N   1      18.929  15.778   9.732  1.00  0.00     0.168 HD
BRANCH  12  18
HETATM   18  O   UNK N   1      21.705  17.569   5.825  0.00  0.00    -0.293 OA
BRANCH  18  19
HETATM   19  C   UNK N   1      22.600  16.925   5.019  0.00  0.00     0.089 A 
HETATM   20  C   UNK N   1      23.961  16.829   5.376  0.00  0.00     0.038 A 
HETATM   21  C   UNK N   1      24.888  16.201   4.553  0.00  0.00     0.003 A 
HETATM   22  C   UNK N   1      24.477  15.662   3.342  0.00  0.00     0.001 A 
HETATM   23  C   UNK N   1      23.137  15.744   2.965  0.00  0.00     0.015 A 
HETATM   24  C   UNK N   1      22.170  16.355   3.789  0.00  0.00     0.016 A 
BRANCH  24  25
HETATM   25  C   UNK N   1      20.738  16.390   3.299  0.00  0.00     0.074 C 
HETATM   26  C   UNK N   1      20.177  17.441   2.660  0.00  0.00     0.152 C 
BRANCH  25  27
HETATM   27  C   UNK N   1      19.838  15.225   3.546  0.00  0.00     0.295 C 
HETATM   28  O   UNK N   1      18.989  15.270   4.427  0.00  0.00    -0.259 OA
BRANCH  27  29
HETATM   29  O   UNK N   1      19.991  14.095   2.811  0.00  0.00    -0.322 OA
HETATM   30  C   UNK N   1      19.048  13.670   1.905  0.00  0.00     0.213 C 
ENDBRANCH  27  29
ENDBRANCH  25  27
BRANCH  26  31
HETATM   31  O   UNK N   1      20.791  18.620   2.449  0.00  0.00    -0.367 OA
HETATM   32  C   UNK N   1      20.469  19.710   3.214  0.00  0.00     0.208 C 
ENDBRANCH  26  31
ENDBRANCH  24  25
ENDBRANCH  18  19
ENDBRANCH  12  18
ENDBRANCH   9  10
ENDBRANCH   8   9
TORSDOF 8
ENDMDL
