MODEL 1
REMARK VINA RESULT:      -8.6      0.000      0.000
REMARK  7 active torsions:
REMARK  status: ('A' for Active; 'I' for Inactive)
REMARK    1  A    between atoms: C_2  and  C_5 
REMARK    2  A    between atoms: C_5  and  O_6 
REMARK    3  A    between atoms: C_5  and  C_8 
REMARK       I    between atoms: C_8  and  N_10 
REMARK    4  A    between atoms: N_10  and  C_11 
REMARK    5  A    between atoms: C_17  and  S_18 
REMARK    6  A    between atoms: S_18  and  C_21 
REMARK    7  A    between atoms: C_26  and  C_27 
REMARK       I    between atoms: C_27  and  N_29 
ROOT
HETATM    1  C   UNK N   1      29.579  17.155   6.790  0.00  0.00     0.056 A 
HETATM    2  C   UNK N   1      30.607  16.965   5.853  0.00  0.00     0.033 A 
HETATM    3  C   UNK N   1      31.943  17.134   6.208  0.00  0.00     0.026 A 
HETATM    4  C   UNK N   1      29.915  17.581   8.085  0.00  0.00     0.062 A 
HETATM    5 Cl   UNK N   1      28.682  17.841   9.308  0.00  0.00    -0.082 Cl
HETATM    6  C   UNK N   1      31.250  17.745   8.439  0.00  0.00     0.050 A 
HETATM    7  C   UNK N   1      32.262  17.510   7.509  0.00  0.00     0.066 A 
ENDROOT
BRANCH   7   8
HETATM    8  S   UNK N   1      33.942  17.517   8.074  0.00  0.00     0.206 S 
HETATM    9  O   UNK N   1      34.762  17.062   6.858  0.00  0.00    -0.217 OA
HETATM   10  O   UNK N   1      34.498  18.941   8.244  0.00  0.00    -0.217 OA
BRANCH   8  11
HETATM   11  C   UNK N   1      34.436  16.437   9.394  0.00  0.00     0.064 A 
HETATM   12  C   UNK N   1      35.290  16.863  10.412  0.00  0.00     0.025 A 
HETATM   13  C   UNK N   1      35.647  15.973  11.431  0.00  0.00     0.018 A 
HETATM   14  C   UNK N   1      35.146  14.657  11.444  0.00  0.00     0.032 A 
HETATM   15  C   UNK N   1      34.284  14.258  10.417  0.00  0.00     0.018 A 
HETATM   16  C   UNK N   1      33.933  15.138   9.401  0.00  0.00     0.025 A 
BRANCH  14  17
HETATM   17  C   UNK N   1      35.574  13.722  12.537  0.00  0.00     0.253 C 
HETATM   18  N   UNK N   1      36.705  12.941  12.468  0.00  0.00    -0.357 N 
HETATM   19  C   UNK N   1      37.052  12.091  13.581  0.00  0.00     0.152 C 
HETATM   20  C   UNK N   1      37.578  12.906  11.324  0.00  0.00     0.152 C 
HETATM   21  O   UNK N   1      34.876  13.666  13.538  0.00  0.00    -0.267 OA
ENDBRANCH  14  17
ENDBRANCH   8  11
ENDBRANCH   7   8
BRANCH   1  22
HETATM   22  N   UNK N   1      28.207  16.893   6.495  0.00  0.00    -0.323 N 
HETATM   23  C   UNK N   1      27.293  17.627   5.789  0.00  0.00     0.265 C 
HETATM   24  O   UNK N   1      26.172  17.157   5.666  0.00  0.00    -0.269 OA
HETATM   25  H   UNK N   1      27.862  16.046   6.858  0.00  0.00     0.169 HD
BRANCH  23  26
HETATM   26  C   UNK N   1      27.598  18.976   5.131  0.00  0.00     0.233 C 
HETATM   27  C   UNK N   1      26.713  19.170   3.901  0.00  0.00     0.066 C 
BRANCH  26  28
HETATM   28  C   UNK N   1      27.346  20.163   6.080  0.00  0.00     0.427 C 
HETATM   29  F   UNK N   1      27.614  19.809   7.392  0.00  0.00    -0.167 F 
HETATM   30  F   UNK N   1      28.155  21.230   5.726  0.00  0.00    -0.167 F 
HETATM   31  F   UNK N   1      26.026  20.570   5.991  0.00  0.00    -0.167 F 
ENDBRANCH  26  28
BRANCH  26  32
HETATM   32  O   UNK N   1      28.944  19.021   4.762  0.00  0.00    -0.373 OA
HETATM   33  H   UNK N   1      29.346  18.564   4.007  0.00  0.00     0.211 HD
ENDBRANCH  26  32
ENDBRANCH  23  26
ENDBRANCH   1  22
TORSDOF 7
ENDMDL
MODEL 2
REMARK VINA RESULT:      -8.0      1.539      1.932
REMARK  7 active torsions:
REMARK  status: ('A' for Active; 'I' for Inactive)
REMARK    1  A    between atoms: C_2  and  C_5 
REMARK    2  A    between atoms: C_5  and  O_6 
REMARK    3  A    between atoms: C_5  and  C_8 
REMARK       I    between atoms: C_8  and  N_10 
REMARK    4  A    between atoms: N_10  and  C_11 
REMARK    5  A    between atoms: C_17  and  S_18 
REMARK    6  A    between atoms: S_18  and  C_21 
REMARK    7  A    between atoms: C_26  and  C_27 
REMARK       I    between atoms: C_27  and  N_29 
ROOT
HETATM    1  C   UNK N   1      29.730  16.803   5.410  0.00  0.00     0.056 A 
HETATM    2  C   UNK N   1      29.648  16.890   6.810  0.00  0.00     0.033 A 
HETATM    3  C   UNK N   1      30.792  17.062   7.587  0.00  0.00     0.026 A 
HETATM    4  C   UNK N   1      30.996  16.831   4.805  0.00  0.00     0.062 A 
HETATM    5 Cl   UNK N   1      31.175  16.724   3.061  0.00  0.00    -0.082 Cl
HETATM    6  C   UNK N   1      32.136  17.008   5.582  0.00  0.00     0.050 A 
HETATM    7  C   UNK N   1      32.035  17.136   6.966  0.00  0.00     0.066 A 
ENDROOT
BRANCH   7   8
HETATM    8  S   UNK N   1      33.489  17.582   7.878  0.00  0.00     0.206 S 
HETATM    9  O   UNK N   1      34.606  17.627   6.826  0.00  0.00    -0.217 OA
HETATM   10  O   UNK N   1      33.480  19.057   8.310  0.00  0.00    -0.217 OA
BRANCH   8  11
HETATM   11  C   UNK N   1      34.097  16.507   9.153  0.00  0.00     0.064 A 
HETATM   12  C   UNK N   1      35.003  16.951  10.118  0.00  0.00     0.025 A 
HETATM   13  C   UNK N   1      35.451  16.064  11.103  0.00  0.00     0.018 A 
HETATM   14  C   UNK N   1      34.989  14.733  11.137  0.00  0.00     0.032 A 
HETATM   15  C   UNK N   1      34.074  14.317  10.164  0.00  0.00     0.018 A 
HETATM   16  C   UNK N   1      33.633  15.194   9.181  0.00  0.00     0.025 A 
BRANCH  14  17
HETATM   17  C   UNK N   1      35.514  13.804  12.191  0.00  0.00     0.253 C 
HETATM   18  N   UNK N   1      36.702  13.119  12.077  0.00  0.00    -0.357 N 
HETATM   19  C   UNK N   1      37.140  12.267  13.155  0.00  0.00     0.152 C 
HETATM   20  C   UNK N   1      37.551  13.190  10.915  0.00  0.00     0.152 C 
HETATM   21  O   UNK N   1      34.844  13.662  13.203  0.00  0.00    -0.267 OA
ENDBRANCH  14  17
ENDBRANCH   8  11
ENDBRANCH   7   8
BRANCH   1  22
HETATM   22  N   UNK N   1      28.577  16.728   4.574  0.00  0.00    -0.323 N 
HETATM   23  C   UNK N   1      27.704  17.702   4.172  0.00  0.00     0.265 C 
HETATM   24  O   UNK N   1      26.796  17.368   3.425  0.00  0.00    -0.269 OA
HETATM   25  H   UNK N   1      28.376  15.829   4.229  0.00  0.00     0.169 HD
BRANCH  23  26
HETATM   26  C   UNK N   1      27.812  19.174   4.579  0.00  0.00     0.233 C 
HETATM   27  C   UNK N   1      26.954  20.038   3.657  0.00  0.00     0.066 C 
BRANCH  26  28
HETATM   28  C   UNK N   1      27.338  19.421   6.026  0.00  0.00     0.427 C 
HETATM   29  F   UNK N   1      26.343  20.384   6.059  0.00  0.00    -0.167 F 
HETATM   30  F   UNK N   1      26.848  18.244   6.568  0.00  0.00    -0.167 F 
HETATM   31  F   UNK N   1      28.399  19.851   6.804  0.00  0.00    -0.167 F 
ENDBRANCH  26  28
BRANCH  26  32
HETATM   32  O   UNK N   1      29.146  19.581   4.508  0.00  0.00    -0.373 OA
HETATM   33  H   UNK N   1      29.543  20.326   4.987  0.00  0.00     0.211 HD
ENDBRANCH  26  32
ENDBRANCH  23  26
ENDBRANCH   1  22
TORSDOF 7
ENDMDL
MODEL 3
REMARK VINA RESULT:      -7.9      5.671     10.929
REMARK  7 active torsions:
REMARK  status: ('A' for Active; 'I' for Inactive)
REMARK    1  A    between atoms: C_2  and  C_5 
REMARK    2  A    between atoms: C_5  and  O_6 
REMARK    3  A    between atoms: C_5  and  C_8 
REMARK       I    between atoms: C_8  and  N_10 
REMARK    4  A    between atoms: N_10  and  C_11 
REMARK    5  A    between atoms: C_17  and  S_18 
REMARK    6  A    between atoms: S_18  and  C_21 
REMARK    7  A    between atoms: C_26  and  C_27 
REMARK       I    between atoms: C_27  and  N_29 
ROOT
HETATM    1  C   UNK N   1      35.616  12.806  14.016  0.00  0.00     0.056 A 
HETATM    2  C   UNK N   1      34.901  12.388  12.882  0.00  0.00     0.033 A 
HETATM    3  C   UNK N   1      34.826  13.189  11.745  0.00  0.00     0.026 A 
HETATM    4  C   UNK N   1      36.207  14.080  14.010  0.00  0.00     0.062 A 
HETATM    5 Cl   UNK N   1      37.114  14.671  15.394  0.00  0.00    -0.082 Cl
HETATM    6  C   UNK N   1      36.134  14.876  12.872  0.00  0.00     0.050 A 
HETATM    7  C   UNK N   1      35.458  14.428  11.738  0.00  0.00     0.066 A 
ENDROOT
BRANCH   7   8
HETATM    8  S   UNK N   1      35.587  15.382  10.250  0.00  0.00     0.206 S 
HETATM    9  O   UNK N   1      36.415  16.612  10.650  0.00  0.00    -0.217 OA
HETATM   10  O   UNK N   1      36.545  14.747   9.228  0.00  0.00    -0.217 OA
BRANCH   8  11
HETATM   11  C   UNK N   1      34.124  16.037   9.488  0.00  0.00     0.064 A 
HETATM   12  C   UNK N   1      34.098  17.312   8.921  0.00  0.00     0.025 A 
HETATM   13  C   UNK N   1      32.920  17.781   8.330  0.00  0.00     0.018 A 
HETATM   14  C   UNK N   1      31.764  16.976   8.294  0.00  0.00     0.032 A 
HETATM   15  C   UNK N   1      31.819  15.698   8.862  0.00  0.00     0.018 A 
HETATM   16  C   UNK N   1      32.986  15.233   9.453  0.00  0.00     0.025 A 
BRANCH  14  17
HETATM   17  C   UNK N   1      30.510  17.524   7.678  0.00  0.00     0.253 C 
HETATM   18  N   UNK N   1      29.584  18.267   8.375  0.00  0.00    -0.357 N 
HETATM   19  C   UNK N   1      28.420  18.775   7.692  0.00  0.00     0.152 C 
HETATM   20  C   UNK N   1      29.698  18.564   9.779  0.00  0.00     0.152 C 
HETATM   21  O   UNK N   1      30.317  17.297   6.494  0.00  0.00    -0.267 OA
ENDBRANCH  14  17
ENDBRANCH   8  11
ENDBRANCH   7   8
BRANCH   1  22
HETATM   22  N   UNK N   1      35.803  11.975  15.161  0.00  0.00    -0.323 N 
HETATM   23  C   UNK N   1      36.670  10.940  15.378  0.00  0.00     0.265 C 
HETATM   24  O   UNK N   1      36.637  10.400  16.474  0.00  0.00    -0.269 OA
HETATM   25  H   UNK N   1      35.210  12.180  15.920  0.00  0.00     0.169 HD
BRANCH  23  26
HETATM   26  C   UNK N   1      37.687  10.441  14.346  0.00  0.00     0.233 C 
HETATM   27  C   UNK N   1      38.772   9.618  15.037  0.00  0.00     0.066 C 
BRANCH  26  28
HETATM   28  C   UNK N   1      37.040   9.550  13.267  0.00  0.00     0.427 C 
HETATM   29  F   UNK N   1      37.726   8.353  13.142  0.00  0.00    -0.167 F 
HETATM   30  F   UNK N   1      35.723   9.284  13.603  0.00  0.00    -0.167 F 
HETATM   31  F   UNK N   1      37.055  10.201  12.045  0.00  0.00    -0.167 F 
ENDBRANCH  26  28
BRANCH  26  32
HETATM   32  O   UNK N   1      38.260  11.532  13.690  0.00  0.00    -0.373 OA
HETATM   33  H   UNK N   1      38.521  11.564  12.757  0.00  0.00     0.211 HD
ENDBRANCH  26  32
ENDBRANCH  23  26
ENDBRANCH   1  22
TORSDOF 7
ENDMDL
MODEL 4
REMARK VINA RESULT:      -7.6      4.177      5.228
REMARK  7 active torsions:
REMARK  status: ('A' for Active; 'I' for Inactive)
REMARK    1  A    between atoms: C_2  and  C_5 
REMARK    2  A    between atoms: C_5  and  O_6 
REMARK    3  A    between atoms: C_5  and  C_8 
REMARK       I    between atoms: C_8  and  N_10 
REMARK    4  A    between atoms: N_10  and  C_11 
REMARK    5  A    between atoms: C_17  and  S_18 
REMARK    6  A    between atoms: S_18  and  C_21 
REMARK    7  A    between atoms: C_26  and  C_27 
REMARK       I    between atoms: C_27  and  N_29 
ROOT
HETATM    1  C   UNK N   1      32.802  14.426   7.522  0.00  0.00     0.056 A 
HETATM    2  C   UNK N   1      32.681  15.438   8.488  0.00  0.00     0.033 A 
HETATM    3  C   UNK N   1      33.596  15.546   9.533  0.00  0.00     0.026 A 
HETATM    4  C   UNK N   1      33.829  13.478   7.660  0.00  0.00     0.062 A 
HETATM    5 Cl   UNK N   1      34.038  12.184   6.492  0.00  0.00    -0.082 Cl
HETATM    6  C   UNK N   1      34.744  13.591   8.702  0.00  0.00     0.050 A 
HETATM    7  C   UNK N   1      34.636  14.627   9.628  0.00  0.00     0.066 A 
ENDROOT
BRANCH   7   8
HETATM    8  S   UNK N   1      35.951  14.851  10.796  0.00  0.00     0.206 S 
HETATM    9  O   UNK N   1      37.162  14.161  10.151  0.00  0.00    -0.217 OA
HETATM   10  O   UNK N   1      36.465  16.300  10.829  0.00  0.00    -0.217 OA
BRANCH   8  11
HETATM   11  C   UNK N   1      35.825  14.141  12.418  0.00  0.00     0.064 A 
HETATM   12  C   UNK N   1      36.487  14.694  13.515  0.00  0.00     0.025 A 
HETATM   13  C   UNK N   1      36.353  14.098  14.774  0.00  0.00     0.018 A 
HETATM   14  C   UNK N   1      35.548  12.953  14.946  0.00  0.00     0.032 A 
HETATM   15  C   UNK N   1      34.888  12.426  13.831  0.00  0.00     0.018 A 
HETATM   16  C   UNK N   1      35.025  13.012  12.580  0.00  0.00     0.025 A 
BRANCH  14  17
HETATM   17  C   UNK N   1      35.451  12.325  16.305  0.00  0.00     0.253 C 
HETATM   18  N   UNK N   1      36.096  11.158  16.649  0.00  0.00    -0.357 N 
HETATM   19  C   UNK N   1      35.966  10.642  17.990  0.00  0.00     0.152 C 
HETATM   20  C   UNK N   1      36.900  10.394  15.731  0.00  0.00     0.152 C 
HETATM   21  O   UNK N   1      34.767  12.892  17.142  0.00  0.00    -0.267 OA
ENDBRANCH  14  17
ENDBRANCH   8  11
ENDBRANCH   7   8
BRANCH   1  22
HETATM   22  N   UNK N   1      31.948  14.342   6.381  0.00  0.00    -0.323 N 
HETATM   23  C   UNK N   1      32.047  14.930   5.151  0.00  0.00     0.265 C 
HETATM   24  O   UNK N   1      31.176  14.670   4.333  0.00  0.00    -0.269 OA
HETATM   25  H   UNK N   1      31.158  13.767   6.500  0.00  0.00     0.169 HD
BRANCH  23  26
HETATM   26  C   UNK N   1      33.187  15.863   4.733  0.00  0.00     0.233 C 
HETATM   27  C   UNK N   1      33.221  16.002   3.212  0.00  0.00     0.066 C 
BRANCH  26  28
HETATM   28  C   UNK N   1      33.037  17.277   5.329  0.00  0.00     0.427 C 
HETATM   29  F   UNK N   1      31.799  17.427   5.933  0.00  0.00    -0.167 F 
HETATM   30  F   UNK N   1      34.029  17.501   6.268  0.00  0.00    -0.167 F 
HETATM   31  F   UNK N   1      33.160  18.228   4.329  0.00  0.00    -0.167 F 
ENDBRANCH  26  28
BRANCH  26  32
HETATM   32  O   UNK N   1      34.402  15.351   5.193  0.00  0.00    -0.373 OA
HETATM   33  H   UNK N   1      34.731  15.391   6.104  0.00  0.00     0.211 HD
ENDBRANCH  26  32
ENDBRANCH  23  26
ENDBRANCH   1  22
TORSDOF 7
ENDMDL
MODEL 5
REMARK VINA RESULT:      -7.5     13.722     15.666
REMARK  7 active torsions:
REMARK  status: ('A' for Active; 'I' for Inactive)
REMARK    1  A    between atoms: C_2  and  C_5 
REMARK    2  A    between atoms: C_5  and  O_6 
REMARK    3  A    between atoms: C_5  and  C_8 
REMARK       I    between atoms: C_8  and  N_10 
REMARK    4  A    between atoms: N_10  and  C_11 
REMARK    5  A    between atoms: C_17  and  S_18 
REMARK    6  A    between atoms: S_18  and  C_21 
REMARK    7  A    between atoms: C_26  and  C_27 
REMARK       I    between atoms: C_27  and  N_29 
ROOT
HETATM    1  C   UNK N   1      27.105  23.186  -6.131  0.00  0.00     0.056 A 
HETATM    2  C   UNK N   1      28.293  22.503  -6.437  0.00  0.00     0.033 A 
HETATM    3  C   UNK N   1      29.416  22.613  -5.619  0.00  0.00     0.026 A 
HETATM    4  C   UNK N   1      27.083  24.037  -5.014  0.00  0.00     0.062 A 
HETATM    5 Cl   UNK N   1      25.634  24.925  -4.573  0.00  0.00    -0.082 Cl
HETATM    6  C   UNK N   1      28.204  24.142  -4.197  0.00  0.00     0.050 A 
HETATM    7  C   UNK N   1      29.362  23.423  -4.490  0.00  0.00     0.066 A 
ENDROOT
BRANCH   7   8
HETATM    8  S   UNK N   1      30.675  23.421  -3.298  0.00  0.00     0.206 S 
HETATM    9  O   UNK N   1      31.100  24.893  -3.189  0.00  0.00    -0.217 OA
HETATM   10  O   UNK N   1      30.164  23.192  -1.865  0.00  0.00    -0.217 OA
BRANCH   8  11
HETATM   11  C   UNK N   1      32.173  22.530  -3.633  0.00  0.00     0.064 A 
HETATM   12  C   UNK N   1      32.563  21.433  -2.863  0.00  0.00     0.025 A 
HETATM   13  C   UNK N   1      33.753  20.763  -3.170  0.00  0.00     0.018 A 
HETATM   14  C   UNK N   1      34.553  21.178  -4.253  0.00  0.00     0.032 A 
HETATM   15  C   UNK N   1      34.133  22.275  -5.014  0.00  0.00     0.018 A 
HETATM   16  C   UNK N   1      32.956  22.945  -4.708  0.00  0.00     0.025 A 
BRANCH  14  17
HETATM   17  C   UNK N   1      35.836  20.453  -4.534  0.00  0.00     0.253 C 
HETATM   18  N   UNK N   1      35.925  19.365  -5.372  0.00  0.00    -0.357 N 
HETATM   19  C   UNK N   1      37.208  18.748  -5.603  0.00  0.00     0.152 C 
HETATM   20  C   UNK N   1      34.791  18.780  -6.038  0.00  0.00     0.152 C 
HETATM   21  O   UNK N   1      36.848  20.865  -3.989  0.00  0.00    -0.267 OA
ENDBRANCH  14  17
ENDBRANCH   8  11
ENDBRANCH   7   8
BRANCH   1  22
HETATM   22  N   UNK N   1      25.904  23.021  -6.884  0.00  0.00    -0.323 N 
HETATM   23  C   UNK N   1      25.536  23.534  -8.097  0.00  0.00     0.265 C 
HETATM   24  O   UNK N   1      24.441  23.213  -8.533  0.00  0.00    -0.269 OA
HETATM   25  H   UNK N   1      25.230  22.442  -6.461  0.00  0.00     0.169 HD
BRANCH  23  26
HETATM   26  C   UNK N   1      26.419  24.458  -8.942  0.00  0.00     0.233 C 
HETATM   27  C   UNK N   1      25.798  24.656 -10.324  0.00  0.00     0.066 C 
BRANCH  26  28
HETATM   28  C   UNK N   1      26.593  25.850  -8.304  0.00  0.00     0.427 C 
HETATM   29  F   UNK N   1      25.526  26.145  -7.471  0.00  0.00    -0.167 F 
HETATM   30  F   UNK N   1      27.766  25.888  -7.568  0.00  0.00    -0.167 F 
HETATM   31  F   UNK N   1      26.666  26.818  -9.291  0.00  0.00    -0.167 F 
ENDBRANCH  26  28
BRANCH  26  32
HETATM   32  O   UNK N   1      27.693  23.900  -9.067  0.00  0.00    -0.373 OA
HETATM   33  H   UNK N   1      27.920  22.964  -8.958  0.00  0.00     0.211 HD
ENDBRANCH  26  32
ENDBRANCH  23  26
ENDBRANCH   1  22
TORSDOF 7
ENDMDL
MODEL 6
REMARK VINA RESULT:      -7.5      4.497      9.888
REMARK  7 active torsions:
REMARK  status: ('A' for Active; 'I' for Inactive)
REMARK    1  A    between atoms: C_2  and  C_5 
REMARK    2  A    between atoms: C_5  and  O_6 
REMARK    3  A    between atoms: C_5  and  C_8 
REMARK       I    between atoms: C_8  and  N_10 
REMARK    4  A    between atoms: N_10  and  C_11 
REMARK    5  A    between atoms: C_17  and  S_18 
REMARK    6  A    between atoms: S_18  and  C_21 
REMARK    7  A    between atoms: C_26  and  C_27 
REMARK       I    between atoms: C_27  and  N_29 
ROOT
HETATM    1  C   UNK N   1      34.809  13.449   9.576  0.00  0.00     0.056 A 
HETATM    2  C   UNK N   1      33.445  13.612   9.283  0.00  0.00     0.033 A 
HETATM    3  C   UNK N   1      32.968  14.793   8.717  0.00  0.00     0.026 A 
HETATM    4  C   UNK N   1      35.683  14.524   9.346  0.00  0.00     0.062 A 
HETATM    5 Cl   UNK N   1      37.400  14.394   9.690  0.00  0.00    -0.082 Cl
HETATM    6  C   UNK N   1      35.205  15.700   8.776  0.00  0.00     0.050 A 
HETATM    7  C   UNK N   1      33.855  15.830   8.450  0.00  0.00     0.066 A 
ENDROOT
BRANCH   7   8
HETATM    8  S   UNK N   1      33.347  17.255   7.526  0.00  0.00     0.206 S 
HETATM    9  O   UNK N   1      33.564  18.435   8.485  0.00  0.00    -0.217 OA
HETATM   10  O   UNK N   1      34.352  17.628   6.424  0.00  0.00    -0.217 OA
BRANCH   8  11
HETATM   11  C   UNK N   1      31.663  17.404   6.985  0.00  0.00     0.064 A 
HETATM   12  C   UNK N   1      31.302  17.226   5.649  0.00  0.00     0.025 A 
HETATM   13  C   UNK N   1      29.960  17.352   5.273  0.00  0.00     0.018 A 
HETATM   14  C   UNK N   1      28.970  17.646   6.232  0.00  0.00     0.032 A 
HETATM   15  C   UNK N   1      29.358  17.810   7.566  0.00  0.00     0.018 A 
HETATM   16  C   UNK N   1      30.690  17.691   7.940  0.00  0.00     0.025 A 
BRANCH  14  17
HETATM   17  C   UNK N   1      27.546  17.802   5.788  0.00  0.00     0.253 C 
HETATM   18  N   UNK N   1      27.022  18.985   5.318  0.00  0.00    -0.357 N 
HETATM   19  C   UNK N   1      25.646  19.034   4.888  0.00  0.00     0.152 C 
HETATM   20  C   UNK N   1      27.773  20.212   5.242  0.00  0.00     0.152 C 
HETATM   21  O   UNK N   1      26.826  16.817   5.844  0.00  0.00    -0.267 OA
ENDBRANCH  14  17
ENDBRANCH   8  11
ENDBRANCH   7   8
BRANCH   1  22
HETATM   22  N   UNK N   1      35.353  12.223  10.061  0.00  0.00    -0.323 N 
HETATM   23  C   UNK N   1      35.580  11.793  11.339  0.00  0.00     0.265 C 
HETATM   24  O   UNK N   1      36.045  10.671  11.480  0.00  0.00    -0.269 OA
HETATM   25  H   UNK N   1      35.607  11.580   9.360  0.00  0.00     0.169 HD
BRANCH  23  26
HETATM   26  C   UNK N   1      35.266  12.617  12.591  0.00  0.00     0.233 C 
HETATM   27  C   UNK N   1      34.876  11.693  13.743  0.00  0.00     0.066 C 
BRANCH  26  28
HETATM   28  C   UNK N   1      36.468  13.463  13.055  0.00  0.00     0.427 C 
HETATM   29  F   UNK N   1      37.641  13.008  12.476  0.00  0.00    -0.167 F 
HETATM   30  F   UNK N   1      36.275  14.789  12.706  0.00  0.00    -0.167 F 
HETATM   31  F   UNK N   1      36.595  13.389  14.432  0.00  0.00    -0.167 F 
ENDBRANCH  26  28
BRANCH  26  32
HETATM   32  O   UNK N   1      34.222  13.503  12.316  0.00  0.00    -0.373 OA
HETATM   33  H   UNK N   1      33.377  13.278  11.895  0.00  0.00     0.211 HD
ENDBRANCH  26  32
ENDBRANCH  23  26
ENDBRANCH   1  22
TORSDOF 7
ENDMDL
MODEL 7
REMARK VINA RESULT:      -7.4      6.098      9.716
REMARK  7 active torsions:
REMARK  status: ('A' for Active; 'I' for Inactive)
REMARK    1  A    between atoms: C_2  and  C_5 
REMARK    2  A    between atoms: C_5  and  O_6 
REMARK    3  A    between atoms: C_5  and  C_8 
REMARK       I    between atoms: C_8  and  N_10 
REMARK    4  A    between atoms: N_10  and  C_11 
REMARK    5  A    between atoms: C_17  and  S_18 
REMARK    6  A    between atoms: S_18  and  C_21 
REMARK    7  A    between atoms: C_26  and  C_27 
REMARK       I    between atoms: C_27  and  N_29 
ROOT
HETATM    1  C   UNK N   1      36.276  14.097  12.330  0.00  0.00     0.056 A 
HETATM    2  C   UNK N   1      35.340  13.798  13.333  0.00  0.00     0.033 A 
HETATM    3  C   UNK N   1      35.310  12.542  13.936  0.00  0.00     0.026 A 
HETATM    4  C   UNK N   1      37.148  13.086  11.895  0.00  0.00     0.062 A 
HETATM    5 Cl   UNK N   1      38.342  13.387  10.643  0.00  0.00    -0.082 Cl
HETATM    6  C   UNK N   1      37.119  11.834  12.502  0.00  0.00     0.050 A 
HETATM    7  C   UNK N   1      36.213  11.566  13.527  0.00  0.00     0.066 A 
ENDROOT
BRANCH   7   8
HETATM    8  S   UNK N   1      36.372  10.037  14.411  0.00  0.00     0.206 S 
HETATM    9  O   UNK N   1      35.416   9.074  13.692  0.00  0.00    -0.217 OA
HETATM   10  O   UNK N   1      37.710   9.333  14.128  0.00  0.00    -0.217 OA
BRANCH   8  11
HETATM   11  C   UNK N   1      35.912   9.953  16.123  0.00  0.00     0.064 A 
HETATM   12  C   UNK N   1      36.005  11.063  16.964  0.00  0.00     0.025 A 
HETATM   13  C   UNK N   1      35.627  10.945  18.307  0.00  0.00     0.018 A 
HETATM   14  C   UNK N   1      35.145   9.722  18.813  0.00  0.00     0.032 A 
HETATM   15  C   UNK N   1      35.053   8.627  17.946  0.00  0.00     0.018 A 
HETATM   16  C   UNK N   1      35.433   8.741  16.615  0.00  0.00     0.025 A 
BRANCH  14  17
HETATM   17  C   UNK N   1      34.777   9.625  20.264  0.00  0.00     0.253 C 
HETATM   18  N   UNK N   1      35.685   9.346  21.261  0.00  0.00    -0.357 N 
HETATM   19  C   UNK N   1      35.244   9.300  22.633  0.00  0.00     0.152 C 
HETATM   20  C   UNK N   1      37.078   9.077  21.014  0.00  0.00     0.152 C 
HETATM   21  O   UNK N   1      33.608   9.814  20.564  0.00  0.00    -0.267 OA
ENDBRANCH  14  17
ENDBRANCH   8  11
ENDBRANCH   7   8
BRANCH   1  22
HETATM   22  N   UNK N   1      36.406  15.399  11.760  0.00  0.00    -0.323 N 
HETATM   23  C   UNK N   1      35.633  16.048  10.837  0.00  0.00     0.265 C 
HETATM   24  O   UNK N   1      35.961  17.185  10.531  0.00  0.00    -0.269 OA
HETATM   25  H   UNK N   1      37.179  15.915  12.084  0.00  0.00     0.169 HD
BRANCH  23  26
HETATM   26  C   UNK N   1      34.381  15.448  10.190  0.00  0.00     0.233 C 
HETATM   27  C   UNK N   1      33.704  16.485   9.297  0.00  0.00     0.066 C 
BRANCH  26  28
HETATM   28  C   UNK N   1      34.701  14.217   9.319  0.00  0.00     0.427 C 
HETATM   29  F   UNK N   1      34.514  13.046  10.035  0.00  0.00    -0.167 F 
HETATM   30  F   UNK N   1      33.880  14.202   8.204  0.00  0.00    -0.167 F 
HETATM   31  F   UNK N   1      36.017  14.270   8.891  0.00  0.00    -0.167 F 
ENDBRANCH  26  28
BRANCH  26  32
HETATM   32  O   UNK N   1      33.498  15.028  11.187  0.00  0.00    -0.373 OA
HETATM   33  H   UNK N   1      32.909  14.258  11.142  0.00  0.00     0.211 HD
ENDBRANCH  26  32
ENDBRANCH  23  26
ENDBRANCH   1  22
TORSDOF 7
ENDMDL
MODEL 8
REMARK VINA RESULT:      -7.4      2.140      2.730
REMARK  7 active torsions:
REMARK  status: ('A' for Active; 'I' for Inactive)
REMARK    1  A    between atoms: C_2  and  C_5 
REMARK    2  A    between atoms: C_5  and  O_6 
REMARK    3  A    between atoms: C_5  and  C_8 
REMARK       I    between atoms: C_8  and  N_10 
REMARK    4  A    between atoms: N_10  and  C_11 
REMARK    5  A    between atoms: C_17  and  S_18 
REMARK    6  A    between atoms: S_18  and  C_21 
REMARK    7  A    between atoms: C_26  and  C_27 
REMARK       I    between atoms: C_27  and  N_29 
ROOT
HETATM    1  C   UNK N   1      28.180  16.996   5.465  0.00  0.00     0.056 A 
HETATM    2  C   UNK N   1      28.869  17.364   6.632  0.00  0.00     0.033 A 
HETATM    3  C   UNK N   1      30.256  17.256   6.712  0.00  0.00     0.026 A 
HETATM    4  C   UNK N   1      28.908  16.454   4.393  0.00  0.00     0.062 A 
HETATM    5 Cl   UNK N   1      28.113  15.969   2.904  0.00  0.00    -0.082 Cl
HETATM    6  C   UNK N   1      30.293  16.351   4.474  0.00  0.00     0.050 A 
HETATM    7  C   UNK N   1      30.967  16.762   5.623  0.00  0.00     0.066 A 
ENDROOT
BRANCH   7   8
HETATM    8  S   UNK N   1      32.738  16.817   5.585  0.00  0.00     0.206 S 
HETATM    9  O   UNK N   1      33.136  15.754   4.551  0.00  0.00    -0.217 OA
HETATM   10  O   UNK N   1      33.270  18.076   4.879  0.00  0.00    -0.217 OA
BRANCH   8  11
HETATM   11  C   UNK N   1      33.668  16.415   7.043  0.00  0.00     0.064 A 
HETATM   12  C   UNK N   1      33.511  17.127   8.233  0.00  0.00     0.025 A 
HETATM   13  C   UNK N   1      34.267  16.769   9.355  0.00  0.00     0.018 A 
HETATM   14  C   UNK N   1      35.173  15.692   9.298  0.00  0.00     0.032 A 
HETATM   15  C   UNK N   1      35.304  14.990   8.095  0.00  0.00     0.018 A 
HETATM   16  C   UNK N   1      34.560  15.347   6.979  0.00  0.00     0.025 A 
BRANCH  14  17
HETATM   17  C   UNK N   1      35.987  15.356  10.513  0.00  0.00     0.253 C 
HETATM   18  N   UNK N   1      35.758  14.247  11.296  0.00  0.00    -0.357 N 
HETATM   19  C   UNK N   1      36.610  13.989  12.431  0.00  0.00     0.152 C 
HETATM   20  C   UNK N   1      34.689  13.313  11.058  0.00  0.00     0.152 C 
HETATM   21  O   UNK N   1      36.901  16.110  10.807  0.00  0.00    -0.267 OA
ENDBRANCH  14  17
ENDBRANCH   8  11
ENDBRANCH   7   8
BRANCH   1  22
HETATM   22  N   UNK N   1      26.775  17.186   5.305  0.00  0.00    -0.323 N 
HETATM   23  C   UNK N   1      26.069  18.265   4.851  0.00  0.00     0.265 C 
HETATM   24  O   UNK N   1      24.853  18.157   4.795  0.00  0.00    -0.269 OA
HETATM   25  H   UNK N   1      26.223  16.414   5.566  0.00  0.00     0.169 HD
BRANCH  23  26
HETATM   26  C   UNK N   1      26.708  19.578   4.389  0.00  0.00     0.233 C 
HETATM   27  C   UNK N   1      25.693  20.409   3.607  0.00  0.00     0.066 C 
BRANCH  26  28
HETATM   28  C   UNK N   1      27.206  20.437   5.569  0.00  0.00     0.427 C 
HETATM   29  F   UNK N   1      26.695  19.966   6.768  0.00  0.00    -0.167 F 
HETATM   30  F   UNK N   1      28.589  20.407   5.623  0.00  0.00    -0.167 F 
HETATM   31  F   UNK N   1      26.804  21.751   5.400  0.00  0.00    -0.167 F 
ENDBRANCH  26  28
BRANCH  26  32
HETATM   32  O   UNK N   1      27.817  19.300   3.587  0.00  0.00    -0.373 OA
HETATM   33  H   UNK N   1      28.740  19.517   3.792  0.00  0.00     0.211 HD
ENDBRANCH  26  32
ENDBRANCH  23  26
ENDBRANCH   1  22
TORSDOF 7
ENDMDL
MODEL 9
REMARK VINA RESULT:      -7.4      1.801      2.370
REMARK  7 active torsions:
REMARK  status: ('A' for Active; 'I' for Inactive)
REMARK    1  A    between atoms: C_2  and  C_5 
REMARK    2  A    between atoms: C_5  and  O_6 
REMARK    3  A    between atoms: C_5  and  C_8 
REMARK       I    between atoms: C_8  and  N_10 
REMARK    4  A    between atoms: N_10  and  C_11 
REMARK    5  A    between atoms: C_17  and  S_18 
REMARK    6  A    between atoms: S_18  and  C_21 
REMARK    7  A    between atoms: C_26  and  C_27 
REMARK       I    between atoms: C_27  and  N_29 
ROOT
HETATM    1  C   UNK N   1      29.194  16.800   6.507  0.00  0.00     0.056 A 
HETATM    2  C   UNK N   1      29.479  17.260   7.803  0.00  0.00     0.033 A 
HETATM    3  C   UNK N   1      30.793  17.455   8.223  0.00  0.00     0.026 A 
HETATM    4  C   UNK N   1      30.262  16.478   5.654  0.00  0.00     0.062 A 
HETATM    5 Cl   UNK N   1      29.981  15.895   4.021  0.00  0.00    -0.082 Cl
HETATM    6  C   UNK N   1      31.573  16.679   6.074  0.00  0.00     0.050 A 
HETATM    7  C   UNK N   1      31.838  17.177   7.348  0.00  0.00     0.066 A 
ENDROOT
BRANCH   7   8
HETATM    8  S   UNK N   1      33.508  17.622   7.747  0.00  0.00     0.206 S 
HETATM    9  O   UNK N   1      34.187  17.831   6.386  0.00  0.00    -0.217 OA
HETATM   10  O   UNK N   1      33.615  19.048   8.312  0.00  0.00    -0.217 OA
BRANCH   8  11
HETATM   11  C   UNK N   1      34.548  16.471   8.610  0.00  0.00     0.064 A 
HETATM   12  C   UNK N   1      34.941  15.262   8.035  0.00  0.00     0.025 A 
HETATM   13  C   UNK N   1      35.764  14.390   8.757  0.00  0.00     0.018 A 
HETATM   14  C   UNK N   1      36.207  14.726  10.052  0.00  0.00     0.032 A 
HETATM   15  C   UNK N   1      35.805  15.949  10.601  0.00  0.00     0.018 A 
HETATM   16  C   UNK N   1      34.984  16.813   9.889  0.00  0.00     0.025 A 
BRANCH  14  17
HETATM   17  C   UNK N   1      37.064  13.753  10.807  0.00  0.00     0.253 C 
HETATM   18  N   UNK N   1      36.581  12.917  11.787  0.00  0.00    -0.357 N 
HETATM   19  C   UNK N   1      37.476  11.994  12.441  0.00  0.00     0.152 C 
HETATM   20  C   UNK N   1      35.208  12.913  12.223  0.00  0.00     0.152 C 
HETATM   21  O   UNK N   1      38.251  13.707  10.521  0.00  0.00    -0.267 OA
ENDBRANCH  14  17
ENDBRANCH   8  11
ENDBRANCH   7   8
BRANCH   1  22
HETATM   22  N   UNK N   1      27.863  16.683   6.004  0.00  0.00    -0.323 N 
HETATM   23  C   UNK N   1      26.978  17.643   5.598  0.00  0.00     0.265 C 
HETATM   24  O   UNK N   1      25.891  17.266   5.185  0.00  0.00    -0.269 OA
HETATM   25  H   UNK N   1      27.527  15.760   5.940  0.00  0.00     0.169 HD
BRANCH  23  26
HETATM   26  C   UNK N   1      27.276  19.146   5.607  0.00  0.00     0.233 C 
HETATM   27  C   UNK N   1      28.616  19.419   4.927  0.00  0.00     0.066 C 
BRANCH  26  28
HETATM   28  C   UNK N   1      26.200  19.963   4.865  0.00  0.00     0.427 C 
HETATM   29  F   UNK N   1      26.137  19.595   3.531  0.00  0.00    -0.167 F 
HETATM   30  F   UNK N   1      24.962  19.753   5.450  0.00  0.00    -0.167 F 
HETATM   31  F   UNK N   1      26.495  21.313   4.940  0.00  0.00    -0.167 F 
ENDBRANCH  26  28
BRANCH  26  32
HETATM   32  O   UNK N   1      27.307  19.608   6.925  0.00  0.00    -0.373 OA
HETATM   33  H   UNK N   1      28.101  19.733   7.468  0.00  0.00     0.211 HD
ENDBRANCH  26  32
ENDBRANCH  23  26
ENDBRANCH   1  22
TORSDOF 7
ENDMDL
