MODEL 1
REMARK VINA RESULT:      -8.8      0.000      0.000
REMARK  11 active torsions:
REMARK  status: ('A' for Active; 'I' for Inactive)
REMARK    1  A    between atoms: C_6  and  C_7 
REMARK    2  A    between atoms: C_12  and  C_13 
REMARK    3  A    between atoms: C_18  and  C_19 
REMARK    4  A    between atoms: C_19  and  C_20 
REMARK    5  A    between atoms: C_20  and  P_21 
REMARK    6  A    between atoms: C_20  and  O_29 
REMARK    7  A    between atoms: C_20  and  P_25 
REMARK    8  A    between atoms: P_21  and  O_23 
REMARK    9  A    between atoms: P_21  and  O_24 
REMARK   10  A    between atoms: P_25  and  O_27 
REMARK   11  A    between atoms: P_25  and  O_28 
ROOT
HETATM    1  C   UNK N   1      35.947  13.178  12.073  0.00  0.00    -0.025 A 
HETATM    2  C   UNK N   1      35.376  14.357  11.574  0.00  0.00     0.019 A 
HETATM    3  C   UNK N   1      37.157  12.724  11.528  0.00  0.00     0.012 A 
HETATM    4  C   UNK N   1      37.795  13.458  10.526  0.00  0.00     0.001 A 
HETATM    5  C   UNK N   1      37.197  14.614  10.019  0.00  0.00     0.007 A 
HETATM    6  C   UNK N   1      35.982  15.074  10.540  0.00  0.00    -0.053 A 
ENDROOT
BRANCH   6   7
HETATM    7  C   UNK N   1      35.312  16.226   9.832  0.00  0.00     0.102 C 
BRANCH   7   8
HETATM    8  C   UNK N   1      34.427  16.140   8.567  0.00  0.00     0.256 C 
BRANCH   8   9
HETATM    9  P   UNK N   1      32.784  15.243   8.692  0.00  0.00     0.284 P 
HETATM   10  O   UNK N   1      32.915  13.741   8.320  0.00  0.00    -0.651 OA
BRANCH   9  11
HETATM   11  O   UNK N   1      31.596  15.839   7.578  0.00  0.00    -0.327 OA
HETATM   12  H   UNK N   1      31.672  16.728   7.196  0.00  0.00     0.220 HD
ENDBRANCH   9  11
BRANCH   9  13
HETATM   13  O   UNK N   1      32.006  15.261  10.244  0.00  0.00    -0.327 OA
HETATM   14  H   UNK N   1      31.195  15.124  10.757  0.00  0.00     0.220 HD
ENDBRANCH   9  13
ENDBRANCH   8   9
BRANCH   8  15
HETATM   15  O   UNK N   1      35.180  15.483   7.596  0.00  0.00    -0.368 OA
HETATM   16  H   UNK N   1      35.706  15.554   6.783  0.00  0.00     0.212 HD
ENDBRANCH   8  15
BRANCH   8  17
HETATM   17  P   UNK N   1      34.108  17.868   7.963  0.00  0.00     0.284 P 
HETATM   18  O   UNK N   1      34.216  17.946   6.417  0.00  0.00    -0.651 OA
BRANCH  17  19
HETATM   19  O   UNK N   1      35.229  19.061   8.537  0.00  0.00    -0.327 OA
HETATM   20  H   UNK N   1      36.142  18.814   8.748  0.00  0.00     0.220 HD
ENDBRANCH  17  19
BRANCH  17  21
HETATM   21  O   UNK N   1      32.517  18.464   8.314  0.00  0.00    -0.327 OA
HETATM   22  H   UNK N   1      31.739  17.919   8.114  0.00  0.00     0.220 HD
ENDBRANCH  17  21
ENDBRANCH   8  17
ENDBRANCH   7   8
ENDBRANCH   6   7
BRANCH   1  23
HETATM   23  C   UNK N   1      35.211  12.362  13.064  0.00  0.00    -0.025 A 
HETATM   24  C   UNK N   1      35.332  12.651  14.430  0.00  0.00     0.024 A 
HETATM   25  C   UNK N   1      34.746  11.820  15.397  0.00  0.00    -0.025 A 
HETATM   26  C   UNK N   1      33.997  10.709  14.980  0.00  0.00     0.012 A 
HETATM   27  C   UNK N   1      33.856  10.423  13.620  0.00  0.00     0.002 A 
HETATM   28  C   UNK N   1      34.484  11.229  12.668  0.00  0.00     0.012 A 
BRANCH  25  29
HETATM   29  C   UNK N   1      35.002  12.063  16.836  0.00  0.00    -0.026 A 
HETATM   30  C   UNK N   1      35.193  10.982  17.714  0.00  0.00     0.012 A 
HETATM   31  C   UNK N   1      35.372  11.204  19.083  0.00  0.00     0.001 A 
HETATM   32  C   UNK N   1      35.357  12.506  19.587  0.00  0.00     0.000 A 
HETATM   33  C   UNK N   1      35.169  13.587  18.723  0.00  0.00     0.001 A 
HETATM   34  C   UNK N   1      34.988  13.368  17.355  0.00  0.00     0.012 A 
ENDBRANCH  25  29
ENDBRANCH   1  23
TORSDOF 11
ENDMDL
MODEL 2
REMARK VINA RESULT:      -8.5      0.745      2.375
REMARK  11 active torsions:
REMARK  status: ('A' for Active; 'I' for Inactive)
REMARK    1  A    between atoms: C_6  and  C_7 
REMARK    2  A    between atoms: C_12  and  C_13 
REMARK    3  A    between atoms: C_18  and  C_19 
REMARK    4  A    between atoms: C_19  and  C_20 
REMARK    5  A    between atoms: C_20  and  P_21 
REMARK    6  A    between atoms: C_20  and  O_29 
REMARK    7  A    between atoms: C_20  and  P_25 
REMARK    8  A    between atoms: P_21  and  O_23 
REMARK    9  A    between atoms: P_21  and  O_24 
REMARK   10  A    between atoms: P_25  and  O_27 
REMARK   11  A    between atoms: P_25  and  O_28 
ROOT
HETATM    1  C   UNK N   1      36.096  13.077  12.149  0.00  0.00    -0.025 A 
HETATM    2  C   UNK N   1      35.644  14.331  11.714  0.00  0.00     0.019 A 
HETATM    3  C   UNK N   1      37.232  12.516  11.547  0.00  0.00     0.012 A 
HETATM    4  C   UNK N   1      37.917  13.216  10.553  0.00  0.00     0.001 A 
HETATM    5  C   UNK N   1      37.435  14.451  10.110  0.00  0.00     0.007 A 
HETATM    6  C   UNK N   1      36.294  15.019  10.688  0.00  0.00    -0.053 A 
ENDROOT
BRANCH   6   7
HETATM    7  C   UNK N   1      35.735  16.264  10.046  0.00  0.00     0.102 C 
BRANCH   7   8
HETATM    8  C   UNK N   1      34.494  16.349   9.128  0.00  0.00     0.256 C 
BRANCH   8   9
HETATM    9  P   UNK N   1      34.239  17.913   8.122  0.00  0.00     0.284 P 
HETATM   10  O   UNK N   1      32.784  18.443   8.235  0.00  0.00    -0.651 OA
BRANCH   9  11
HETATM   11  O   UNK N   1      34.456  17.670   6.419  0.00  0.00    -0.327 OA
HETATM   12  H   UNK N   1      33.989  18.222   5.772  0.00  0.00     0.220 HD
ENDBRANCH   9  11
BRANCH   9  13
HETATM   13  O   UNK N   1      35.249  19.267   8.524  0.00  0.00    -0.327 OA
HETATM   14  H   UNK N   1      36.098  19.721   8.407  0.00  0.00     0.220 HD
ENDBRANCH   9  13
ENDBRANCH   8   9
BRANCH   8  15
HETATM   15  O   UNK N   1      33.377  16.204   9.950  0.00  0.00    -0.368 OA
HETATM   16  H   UNK N   1      33.028  16.173  10.854  0.00  0.00     0.212 HD
ENDBRANCH   8  15
BRANCH   8  17
HETATM   17  P   UNK N   1      34.532  14.902   7.963  0.00  0.00     0.284 P 
HETATM   18  O   UNK N   1      33.353  14.966   6.957  0.00  0.00    -0.651 OA
BRANCH  17  19
HETATM   19  O   UNK N   1      34.372  13.350   8.721  0.00  0.00    -0.327 OA
HETATM   20  H   UNK N   1      34.670  13.218   9.635  0.00  0.00     0.220 HD
ENDBRANCH  17  19
BRANCH  17  21
HETATM   21  O   UNK N   1      35.948  14.829   6.963  0.00  0.00    -0.327 OA
HETATM   22  H   UNK N   1      35.859  14.716   6.004  0.00  0.00     0.220 HD
ENDBRANCH  17  21
ENDBRANCH   8  17
ENDBRANCH   7   8
ENDBRANCH   6   7
BRANCH   1  23
HETATM   23  C   UNK N   1      35.304  12.306  13.134  0.00  0.00    -0.025 A 
HETATM   24  C   UNK N   1      35.420  12.597  14.500  0.00  0.00     0.024 A 
HETATM   25  C   UNK N   1      34.778  11.804  15.462  0.00  0.00    -0.025 A 
HETATM   26  C   UNK N   1      33.979  10.730  15.040  0.00  0.00     0.012 A 
HETATM   27  C   UNK N   1      33.843  10.444  13.680  0.00  0.00     0.002 A 
HETATM   28  C   UNK N   1      34.526  11.210  12.733  0.00  0.00     0.012 A 
BRANCH  25  29
HETATM   29  C   UNK N   1      35.025  12.042  16.904  0.00  0.00    -0.026 A 
HETATM   30  C   UNK N   1      35.226  10.959  17.777  0.00  0.00     0.012 A 
HETATM   31  C   UNK N   1      35.397  11.175  19.147  0.00  0.00     0.001 A 
HETATM   32  C   UNK N   1      35.363  12.474  19.658  0.00  0.00     0.000 A 
HETATM   33  C   UNK N   1      35.164  13.558  18.800  0.00  0.00     0.001 A 
HETATM   34  C   UNK N   1      34.991  13.344  17.430  0.00  0.00     0.012 A 
ENDBRANCH  25  29
ENDBRANCH   1  23
TORSDOF 11
ENDMDL
MODEL 3
REMARK VINA RESULT:      -8.3      5.361      9.874
REMARK  11 active torsions:
REMARK  status: ('A' for Active; 'I' for Inactive)
REMARK    1  A    between atoms: C_6  and  C_7 
REMARK    2  A    between atoms: C_12  and  C_13 
REMARK    3  A    between atoms: C_18  and  C_19 
REMARK    4  A    between atoms: C_19  and  C_20 
REMARK    5  A    between atoms: C_20  and  P_21 
REMARK    6  A    between atoms: C_20  and  O_29 
REMARK    7  A    between atoms: C_20  and  P_25 
REMARK    8  A    between atoms: P_21  and  O_23 
REMARK    9  A    between atoms: P_21  and  O_24 
REMARK   10  A    between atoms: P_25  and  O_27 
REMARK   11  A    between atoms: P_25  and  O_28 
ROOT
HETATM    1  C   UNK N   1      31.985  16.687   7.801  0.00  0.00    -0.025 A 
HETATM    2  C   UNK N   1      32.504  15.618   8.546  0.00  0.00     0.019 A 
HETATM    3  C   UNK N   1      32.813  17.338   6.875  0.00  0.00     0.012 A 
HETATM    4  C   UNK N   1      34.125  16.901   6.678  0.00  0.00     0.001 A 
HETATM    5  C   UNK N   1      34.635  15.855   7.450  0.00  0.00     0.007 A 
HETATM    6  C   UNK N   1      33.828  15.203   8.390  0.00  0.00    -0.053 A 
ENDROOT
BRANCH   6   7
HETATM    7  C   UNK N   1      34.492  14.203   9.304  0.00  0.00     0.102 C 
BRANCH   7   8
HETATM    8  C   UNK N   1      34.593  14.289  10.845  0.00  0.00     0.256 C 
BRANCH   8   9
HETATM    9  P   UNK N   1      34.962  12.715  11.798  0.00  0.00     0.284 P 
HETATM   10  O   UNK N   1      34.766  12.905  13.327  0.00  0.00    -0.651 OA
BRANCH   9  11
HETATM   11  O   UNK N   1      36.614  12.206  11.658  0.00  0.00    -0.327 OA
HETATM   12  H   UNK N   1      37.279  12.483  12.308  0.00  0.00     0.220 HD
ENDBRANCH   9  11
BRANCH   9  13
HETATM   13  O   UNK N   1      34.017  11.319  11.387  0.00  0.00    -0.327 OA
HETATM   14  H   UNK N   1      33.939  10.352  11.384  0.00  0.00     0.220 HD
ENDBRANCH   9  13
ENDBRANCH   8   9
BRANCH   8  15
HETATM   15  O   UNK N   1      33.366  14.766  11.300  0.00  0.00    -0.368 OA
HETATM   16  H   UNK N   1      32.487  15.109  11.072  0.00  0.00     0.212 HD
ENDBRANCH   8  15
BRANCH   8  17
HETATM   17  P   UNK N   1      35.887  15.552  11.273  0.00  0.00     0.284 P 
HETATM   18  O   UNK N   1      35.356  16.992  11.045  0.00  0.00    -0.651 OA
BRANCH  17  19
HETATM   19  O   UNK N   1      37.334  15.467  10.321  0.00  0.00    -0.327 OA
HETATM   20  H   UNK N   1      37.793  16.279  10.054  0.00  0.00     0.220 HD
ENDBRANCH  17  19
BRANCH  17  21
HETATM   21  O   UNK N   1      36.379  15.533  12.937  0.00  0.00    -0.327 OA
HETATM   22  H   UNK N   1      36.220  14.746  13.481  0.00  0.00     0.220 HD
ENDBRANCH  17  21
ENDBRANCH   8  17
ENDBRANCH   7   8
ENDBRANCH   6   7
BRANCH   1  23
HETATM   23  C   UNK N   1      30.627  17.199   8.091  0.00  0.00    -0.025 A 
HETATM   24  C   UNK N   1      29.872  17.786   7.066  0.00  0.00     0.024 A 
HETATM   25  C   UNK N   1      28.635  18.390   7.337  0.00  0.00    -0.025 A 
HETATM   26  C   UNK N   1      28.137  18.367   8.649  0.00  0.00     0.012 A 
HETATM   27  C   UNK N   1      28.873  17.768   9.673  0.00  0.00     0.002 A 
HETATM   28  C   UNK N   1      30.125  17.213   9.400  0.00  0.00     0.012 A 
BRANCH  25  29
HETATM   29  C   UNK N   1      27.919  19.126   6.268  0.00  0.00    -0.026 A 
HETATM   30  C   UNK N   1      28.050  18.732   4.926  0.00  0.00     0.012 A 
HETATM   31  C   UNK N   1      27.427  19.461   3.909  0.00  0.00     0.001 A 
HETATM   32  C   UNK N   1      26.672  20.593   4.224  0.00  0.00     0.000 A 
HETATM   33  C   UNK N   1      26.535  20.993   5.554  0.00  0.00     0.001 A 
HETATM   34  C   UNK N   1      27.159  20.267   6.573  0.00  0.00     0.012 A 
ENDBRANCH  25  29
ENDBRANCH   1  23
TORSDOF 11
ENDMDL
MODEL 4
REMARK VINA RESULT:      -7.7      1.318      2.265
REMARK  11 active torsions:
REMARK  status: ('A' for Active; 'I' for Inactive)
REMARK    1  A    between atoms: C_6  and  C_7 
REMARK    2  A    between atoms: C_12  and  C_13 
REMARK    3  A    between atoms: C_18  and  C_19 
REMARK    4  A    between atoms: C_19  and  C_20 
REMARK    5  A    between atoms: C_20  and  P_21 
REMARK    6  A    between atoms: C_20  and  O_29 
REMARK    7  A    between atoms: C_20  and  P_25 
REMARK    8  A    between atoms: P_21  and  O_23 
REMARK    9  A    between atoms: P_21  and  O_24 
REMARK   10  A    between atoms: P_25  and  O_27 
REMARK   11  A    between atoms: P_25  and  O_28 
ROOT
HETATM    1  C   UNK N   1      35.104  13.589  12.026  0.00  0.00    -0.025 A 
HETATM    2  C   UNK N   1      34.567  13.511  10.733  0.00  0.00     0.019 A 
HETATM    3  C   UNK N   1      35.965  14.650  12.343  0.00  0.00     0.012 A 
HETATM    4  C   UNK N   1      36.251  15.630  11.392  0.00  0.00     0.001 A 
HETATM    5  C   UNK N   1      35.732  15.521  10.099  0.00  0.00     0.007 A 
HETATM    6  C   UNK N   1      34.884  14.461   9.759  0.00  0.00    -0.053 A 
ENDROOT
BRANCH   6   7
HETATM    7  C   UNK N   1      34.503  14.313   8.307  0.00  0.00     0.102 C 
BRANCH   7   8
HETATM    8  C   UNK N   1      33.231  14.871   7.627  0.00  0.00     0.256 C 
BRANCH   8   9
HETATM    9  P   UNK N   1      32.078  15.945   8.645  0.00  0.00     0.284 P 
HETATM   10  O   UNK N   1      30.776  16.291   7.873  0.00  0.00    -0.651 OA
BRANCH   9  11
HETATM   11  O   UNK N   1      32.753  17.496   9.026  0.00  0.00    -0.327 OA
HETATM   12  H   UNK N   1      33.549  17.820   8.573  0.00  0.00     0.220 HD
ENDBRANCH   9  11
BRANCH   9  13
HETATM   13  O   UNK N   1      31.547  15.292  10.164  0.00  0.00    -0.327 OA
HETATM   14  H   UNK N   1      31.748  14.739  10.934  0.00  0.00     0.220 HD
ENDBRANCH   9  13
ENDBRANCH   8   9
BRANCH   8  15
HETATM   15  O   UNK N   1      32.492  13.770   7.196  0.00  0.00    -0.368 OA
HETATM   16  H   UNK N   1      32.344  13.107   6.504  0.00  0.00     0.212 HD
ENDBRANCH   8  15
BRANCH   8  17
HETATM   17  P   UNK N   1      33.750  15.828   6.122  0.00  0.00     0.284 P 
HETATM   18  O   UNK N   1      34.626  17.047   6.512  0.00  0.00    -0.651 OA
BRANCH  17  19
HETATM   19  O   UNK N   1      32.445  16.508   5.203  0.00  0.00    -0.327 OA
HETATM   20  H   UNK N   1      32.605  16.866   4.316  0.00  0.00     0.220 HD
ENDBRANCH  17  19
BRANCH  17  21
HETATM   21  O   UNK N   1      34.733  14.930   5.009  0.00  0.00    -0.327 OA
HETATM   22  H   UNK N   1      34.319  14.442   4.280  0.00  0.00     0.220 HD
ENDBRANCH  17  21
ENDBRANCH   8  17
ENDBRANCH   7   8
ENDBRANCH   6   7
BRANCH   1  23
HETATM   23  C   UNK N   1      34.869  12.492  12.991  0.00  0.00    -0.025 A 
HETATM   24  C   UNK N   1      34.882  12.761  14.366  0.00  0.00     0.024 A 
HETATM   25  C   UNK N   1      34.786  11.723  15.305  0.00  0.00    -0.025 A 
HETATM   26  C   UNK N   1      34.635  10.403  14.851  0.00  0.00     0.012 A 
HETATM   27  C   UNK N   1      34.602  10.128  13.482  0.00  0.00     0.002 A 
HETATM   28  C   UNK N   1      34.748  11.163  12.557  0.00  0.00     0.012 A 
BRANCH  25  29
HETATM   29  C   UNK N   1      34.942  12.013  16.750  0.00  0.00    -0.026 A 
HETATM   30  C   UNK N   1      34.929  13.340  17.212  0.00  0.00     0.012 A 
HETATM   31  C   UNK N   1      35.139  13.621  18.565  0.00  0.00     0.001 A 
HETATM   32  C   UNK N   1      35.367  12.580  19.467  0.00  0.00     0.000 A 
HETATM   33  C   UNK N   1      35.380  11.257  19.019  0.00  0.00     0.001 A 
HETATM   34  C   UNK N   1      35.173  10.974  17.666  0.00  0.00     0.012 A 
ENDBRANCH  25  29
ENDBRANCH   1  23
TORSDOF 11
ENDMDL
MODEL 5
REMARK VINA RESULT:      -7.7     18.900     22.601
REMARK  11 active torsions:
REMARK  status: ('A' for Active; 'I' for Inactive)
REMARK    1  A    between atoms: C_6  and  C_7 
REMARK    2  A    between atoms: C_12  and  C_13 
REMARK    3  A    between atoms: C_18  and  C_19 
REMARK    4  A    between atoms: C_19  and  C_20 
REMARK    5  A    between atoms: C_20  and  P_21 
REMARK    6  A    between atoms: C_20  and  O_29 
REMARK    7  A    between atoms: C_20  and  P_25 
REMARK    8  A    between atoms: P_21  and  O_23 
REMARK    9  A    between atoms: P_21  and  O_24 
REMARK   10  A    between atoms: P_25  and  O_27 
REMARK   11  A    between atoms: P_25  and  O_28 
ROOT
HETATM    1  C   UNK N   1      27.994  22.469  -7.892  0.00  0.00    -0.025 A 
HETATM    2  C   UNK N   1      28.541  22.305  -6.612  0.00  0.00     0.019 A 
HETATM    3  C   UNK N   1      28.283  21.520  -8.884  0.00  0.00     0.012 A 
HETATM    4  C   UNK N   1      29.079  20.412  -8.584  0.00  0.00     0.001 A 
HETATM    5  C   UNK N   1      29.641  20.280  -7.312  0.00  0.00     0.007 A 
HETATM    6  C   UNK N   1      29.376  21.225  -6.314  0.00  0.00    -0.053 A 
ENDROOT
BRANCH   6   7
HETATM    7  C   UNK N   1      30.151  21.113  -5.025  0.00  0.00     0.102 C 
BRANCH   7   8
HETATM    8  C   UNK N   1      31.108  22.171  -4.429  0.00  0.00     0.256 C 
BRANCH   8   9
HETATM    9  P   UNK N   1      30.426  23.364  -3.151  0.00  0.00     0.284 P 
HETATM   10  O   UNK N   1      28.929  23.689  -3.403  0.00  0.00    -0.651 OA
BRANCH   9  11
HETATM   11  O   UNK N   1      31.196  24.918  -3.192  0.00  0.00    -0.327 OA
HETATM   12  H   UNK N   1      31.901  25.109  -3.831  0.00  0.00     0.220 HD
ENDBRANCH   9  11
BRANCH   9  13
HETATM   13  O   UNK N   1      30.508  22.856  -1.493  0.00  0.00    -0.327 OA
HETATM   14  H   UNK N   1      30.644  23.102  -0.565  0.00  0.00     0.220 HD
ENDBRANCH   9  13
ENDBRANCH   8   9
BRANCH   8  15
HETATM   15  O   UNK N   1      31.573  22.936  -5.498  0.00  0.00    -0.368 OA
HETATM   16  H   UNK N   1      31.898  22.950  -6.412  0.00  0.00     0.212 HD
ENDBRANCH   8  15
BRANCH   8  17
HETATM   17  P   UNK N   1      32.564  21.287  -3.689  0.00  0.00     0.284 P 
HETATM   18  O   UNK N   1      33.900  21.915  -4.170  0.00  0.00    -0.651 OA
BRANCH  17  19
HETATM   19  O   UNK N   1      32.695  19.611  -4.115  0.00  0.00    -0.327 OA
HETATM   20  H   UNK N   1      33.492  19.278  -4.555  0.00  0.00     0.220 HD
ENDBRANCH  17  19
BRANCH  17  21
HETATM   21  O   UNK N   1      32.647  21.373  -1.958  0.00  0.00    -0.327 OA
HETATM   22  H   UNK N   1      33.507  21.336  -1.511  0.00  0.00     0.220 HD
ENDBRANCH  17  21
ENDBRANCH   8  17
ENDBRANCH   7   8
ENDBRANCH   6   7
BRANCH   1  23
HETATM   23  C   UNK N   1      27.234  23.696  -8.220  0.00  0.00    -0.025 A 
HETATM   24  C   UNK N   1      27.257  24.784  -7.336  0.00  0.00     0.024 A 
HETATM   25  C   UNK N   1      26.451  25.910  -7.559  0.00  0.00    -0.025 A 
HETATM   26  C   UNK N   1      25.643  25.956  -8.706  0.00  0.00     0.012 A 
HETATM   27  C   UNK N   1      25.628  24.884  -9.601  0.00  0.00     0.002 A 
HETATM   28  C   UNK N   1      26.397  23.748  -9.344  0.00  0.00     0.012 A 
BRANCH  25  29
HETATM   29  C   UNK N   1      26.384  26.987  -6.543  0.00  0.00    -0.026 A 
HETATM   30  C   UNK N   1      27.344  28.013  -6.533  0.00  0.00     0.012 A 
HETATM   31  C   UNK N   1      27.321  28.996  -5.539  0.00  0.00     0.001 A 
HETATM   32  C   UNK N   1      26.343  28.959  -4.544  0.00  0.00     0.000 A 
HETATM   33  C   UNK N   1      25.383  27.944  -4.544  0.00  0.00     0.001 A 
HETATM   34  C   UNK N   1      25.405  26.959  -5.536  0.00  0.00     0.012 A 
ENDBRANCH  25  29
ENDBRANCH   1  23
TORSDOF 11
ENDMDL
MODEL 6
REMARK VINA RESULT:      -7.6      2.013      4.558
REMARK  11 active torsions:
REMARK  status: ('A' for Active; 'I' for Inactive)
REMARK    1  A    between atoms: C_6  and  C_7 
REMARK    2  A    between atoms: C_12  and  C_13 
REMARK    3  A    between atoms: C_18  and  C_19 
REMARK    4  A    between atoms: C_19  and  C_20 
REMARK    5  A    between atoms: C_20  and  P_21 
REMARK    6  A    between atoms: C_20  and  O_29 
REMARK    7  A    between atoms: C_20  and  P_25 
REMARK    8  A    between atoms: P_21  and  O_23 
REMARK    9  A    between atoms: P_21  and  O_24 
REMARK   10  A    between atoms: P_25  and  O_27 
REMARK   11  A    between atoms: P_25  and  O_28 
ROOT
HETATM    1  C   UNK N   1      34.955  11.832  15.254  0.00  0.00    -0.025 A 
HETATM    2  C   UNK N   1      35.549  12.532  14.193  0.00  0.00     0.019 A 
HETATM    3  C   UNK N   1      34.096  10.762  14.967  0.00  0.00     0.012 A 
HETATM    4  C   UNK N   1      33.865  10.382  13.643  0.00  0.00     0.001 A 
HETATM    5  C   UNK N   1      34.440  11.109  12.598  0.00  0.00     0.007 A 
HETATM    6  C   UNK N   1      35.288  12.190  12.864  0.00  0.00    -0.053 A 
ENDROOT
BRANCH   6   7
HETATM    7  C   UNK N   1      35.733  13.031  11.694  0.00  0.00     0.102 C 
BRANCH   7   8
HETATM    8  C   UNK N   1      34.882  14.073  10.932  0.00  0.00     0.256 C 
BRANCH   8   9
HETATM    9  P   UNK N   1      35.661  15.733  10.531  0.00  0.00     0.284 P 
HETATM   10  O   UNK N   1      35.211  16.838  11.525  0.00  0.00    -0.651 OA
BRANCH   9  11
HETATM   11  O   UNK N   1      35.183  16.353   8.984  0.00  0.00    -0.327 OA
HETATM   12  H   UNK N   1      35.249  17.300   8.783  0.00  0.00     0.220 HD
ENDBRANCH   9  11
BRANCH   9  13
HETATM   13  O   UNK N   1      37.396  15.797  10.534  0.00  0.00    -0.327 OA
HETATM   14  H   UNK N   1      38.204  16.130  10.953  0.00  0.00     0.220 HD
ENDBRANCH   9  13
ENDBRANCH   8   9
BRANCH   8  15
HETATM   15  O   UNK N   1      33.760  14.326  11.720  0.00  0.00    -0.368 OA
HETATM   16  H   UNK N   1      33.409  14.514  12.605  0.00  0.00     0.212 HD
ENDBRANCH   8  15
BRANCH   8  17
HETATM   17  P   UNK N   1      34.298  13.300   9.347  0.00  0.00     0.284 P 
HETATM   18  O   UNK N   1      34.556  11.770   9.346  0.00  0.00    -0.651 OA
BRANCH  17  19
HETATM   19  O   UNK N   1      35.094  13.876   7.917  0.00  0.00    -0.327 OA
HETATM   20  H   UNK N   1      35.306  13.265   7.195  0.00  0.00     0.220 HD
ENDBRANCH  17  19
BRANCH  17  21
HETATM   21  O   UNK N   1      32.592  13.450   9.066  0.00  0.00    -0.327 OA
HETATM   22  H   UNK N   1      32.052  14.010   9.645  0.00  0.00     0.220 HD
ENDBRANCH  17  21
ENDBRANCH   8  17
ENDBRANCH   7   8
ENDBRANCH   6   7
BRANCH   1  23
HETATM   23  C   UNK N   1      35.132  12.307  16.644  0.00  0.00    -0.025 A 
HETATM   24  C   UNK N   1      35.356  11.381  17.672  0.00  0.00     0.024 A 
HETATM   25  C   UNK N   1      35.404  11.791  19.013  0.00  0.00    -0.025 A 
HETATM   26  C   UNK N   1      35.265  13.154  19.316  0.00  0.00     0.012 A 
HETATM   27  C   UNK N   1      35.060  14.086  18.297  0.00  0.00     0.002 A 
HETATM   28  C   UNK N   1      34.965  13.661  16.970  0.00  0.00     0.012 A 
BRANCH  25  29
HETATM   29  C   UNK N   1      35.501  10.781  20.094  0.00  0.00    -0.026 A 
HETATM   30  C   UNK N   1      34.336  10.231  20.657  0.00  0.00     0.012 A 
HETATM   31  C   UNK N   1      34.421   9.327  21.718  0.00  0.00     0.001 A 
HETATM   32  C   UNK N   1      35.669   8.966  22.230  0.00  0.00     0.000 A 
HETATM   33  C   UNK N   1      36.833   9.506  21.678  0.00  0.00     0.001 A 
HETATM   34  C   UNK N   1      36.750  10.413  20.618  0.00  0.00     0.012 A 
ENDBRANCH  25  29
ENDBRANCH   1  23
TORSDOF 11
ENDMDL
MODEL 7
REMARK VINA RESULT:      -7.5      4.561      8.471
REMARK  11 active torsions:
REMARK  status: ('A' for Active; 'I' for Inactive)
REMARK    1  A    between atoms: C_6  and  C_7 
REMARK    2  A    between atoms: C_12  and  C_13 
REMARK    3  A    between atoms: C_18  and  C_19 
REMARK    4  A    between atoms: C_19  and  C_20 
REMARK    5  A    between atoms: C_20  and  P_21 
REMARK    6  A    between atoms: C_20  and  O_29 
REMARK    7  A    between atoms: C_20  and  P_25 
REMARK    8  A    between atoms: P_21  and  O_23 
REMARK    9  A    between atoms: P_21  and  O_24 
REMARK   10  A    between atoms: P_25  and  O_27 
REMARK   11  A    between atoms: P_25  and  O_28 
ROOT
HETATM    1  C   UNK N   1      34.935  15.152   7.199  0.00  0.00    -0.025 A 
HETATM    2  C   UNK N   1      34.957  14.989   8.592  0.00  0.00     0.019 A 
HETATM    3  C   UNK N   1      35.984  14.619   6.435  0.00  0.00     0.012 A 
HETATM    4  C   UNK N   1      37.014  13.910   7.055  0.00  0.00     0.001 A 
HETATM    5  C   UNK N   1      37.036  13.783   8.446  0.00  0.00     0.007 A 
HETATM    6  C   UNK N   1      36.007  14.321   9.227  0.00  0.00    -0.053 A 
ENDROOT
BRANCH   6   7
HETATM    7  C   UNK N   1      36.183  14.297  10.725  0.00  0.00     0.102 C 
BRANCH   7   8
HETATM    8  C   UNK N   1      35.266  13.590  11.750  0.00  0.00     0.256 C 
BRANCH   8   9
HETATM    9  P   UNK N   1      34.803  11.799  11.438  0.00  0.00     0.284 P 
HETATM   10  O   UNK N   1      36.047  10.926  11.121  0.00  0.00    -0.651 OA
BRANCH   9  11
HETATM   11  O   UNK N   1      33.790  11.591  10.046  0.00  0.00    -0.327 OA
HETATM   12  H   UNK N   1      34.149  11.239   9.215  0.00  0.00     0.220 HD
ENDBRANCH   9  11
BRANCH   9  13
HETATM   13  O   UNK N   1      33.984  10.974  12.727  0.00  0.00    -0.327 OA
HETATM   14  H   UNK N   1      33.313  10.326  12.991  0.00  0.00     0.220 HD
ENDBRANCH   9  13
ENDBRANCH   8   9
BRANCH   8  15
HETATM   15  O   UNK N   1      34.080  14.320  11.795  0.00  0.00    -0.368 OA
HETATM   16  H   UNK N   1      33.645  15.159  12.012  0.00  0.00     0.212 HD
ENDBRANCH   8  15
BRANCH   8  17
HETATM   17  P   UNK N   1      36.067  13.707  13.422  0.00  0.00     0.284 P 
HETATM   18  O   UNK N   1      35.049  13.389  14.550  0.00  0.00    -0.651 OA
BRANCH  17  19
HETATM   19  O   UNK N   1      36.688  15.275  13.827  0.00  0.00    -0.327 OA
HETATM   20  H   UNK N   1      36.111  15.940  14.235  0.00  0.00     0.220 HD
ENDBRANCH  17  19
BRANCH  17  21
HETATM   21  O   UNK N   1      37.357  12.575  13.676  0.00  0.00    -0.327 OA
HETATM   22  H   UNK N   1      38.059  12.775  14.315  0.00  0.00     0.220 HD
ENDBRANCH  17  21
ENDBRANCH   8  17
ENDBRANCH   7   8
ENDBRANCH   6   7
BRANCH   1  23
HETATM   23  C   UNK N   1      33.890  15.988   6.569  0.00  0.00    -0.025 A 
HETATM   24  C   UNK N   1      32.812  16.450   7.337  0.00  0.00     0.024 A 
HETATM   25  C   UNK N   1      31.745  17.139   6.741  0.00  0.00    -0.025 A 
HETATM   26  C   UNK N   1      31.786  17.400   5.363  0.00  0.00     0.012 A 
HETATM   27  C   UNK N   1      32.864  16.960   4.593  0.00  0.00     0.002 A 
HETATM   28  C   UNK N   1      33.897  16.232   5.188  0.00  0.00     0.012 A 
BRANCH  25  29
HETATM   29  C   UNK N   1      30.551  17.495   7.544  0.00  0.00    -0.026 A 
HETATM   30  C   UNK N   1      30.699  18.117   8.796  0.00  0.00     0.012 A 
HETATM   31  C   UNK N   1      29.579  18.397   9.584  0.00  0.00     0.001 A 
HETATM   32  C   UNK N   1      28.303  18.055   9.131  0.00  0.00     0.000 A 
HETATM   33  C   UNK N   1      28.145  17.438   7.888  0.00  0.00     0.001 A 
HETATM   34  C   UNK N   1      29.264  17.154   7.100  0.00  0.00     0.012 A 
ENDBRANCH  25  29
ENDBRANCH   1  23
TORSDOF 11
ENDMDL
MODEL 8
REMARK VINA RESULT:      -7.5      2.157      3.111
REMARK  11 active torsions:
REMARK  status: ('A' for Active; 'I' for Inactive)
REMARK    1  A    between atoms: C_6  and  C_7 
REMARK    2  A    between atoms: C_12  and  C_13 
REMARK    3  A    between atoms: C_18  and  C_19 
REMARK    4  A    between atoms: C_19  and  C_20 
REMARK    5  A    between atoms: C_20  and  P_21 
REMARK    6  A    between atoms: C_20  and  O_29 
REMARK    7  A    between atoms: C_20  and  P_25 
REMARK    8  A    between atoms: P_21  and  O_23 
REMARK    9  A    between atoms: P_21  and  O_24 
REMARK   10  A    between atoms: P_25  and  O_27 
REMARK   11  A    between atoms: P_25  and  O_28 
ROOT
HETATM    1  C   UNK N   1      35.834  10.678  12.023  0.00  0.00    -0.025 A 
HETATM    2  C   UNK N   1      35.115  11.816  11.632  0.00  0.00     0.019 A 
HETATM    3  C   UNK N   1      36.623  10.011  11.074  0.00  0.00     0.012 A 
HETATM    4  C   UNK N   1      36.713  10.498   9.769  0.00  0.00     0.001 A 
HETATM    5  C   UNK N   1      35.966  11.616   9.388  0.00  0.00     0.007 A 
HETATM    6  C   UNK N   1      35.161  12.285  10.317  0.00  0.00    -0.053 A 
ENDROOT
BRANCH   6   7
HETATM    7  C   UNK N   1      34.254  13.372   9.797  0.00  0.00     0.102 C 
BRANCH   7   8
HETATM    8  C   UNK N   1      34.229  14.849  10.255  0.00  0.00     0.256 C 
BRANCH   8   9
HETATM    9  P   UNK N   1      35.852  15.656  10.739  0.00  0.00     0.284 P 
HETATM   10  O   UNK N   1      37.045  15.091   9.921  0.00  0.00    -0.651 OA
BRANCH   9  11
HETATM   11  O   UNK N   1      36.301  15.349  12.385  0.00  0.00    -0.327 OA
HETATM   12  H   UNK N   1      37.215  15.480  12.686  0.00  0.00     0.220 HD
ENDBRANCH   9  11
BRANCH   9  13
HETATM   13  O   UNK N   1      35.947  17.380  10.552  0.00  0.00    -0.327 OA
HETATM   14  H   UNK N   1      36.081  18.244  10.971  0.00  0.00     0.220 HD
ENDBRANCH   9  13
ENDBRANCH   8   9
BRANCH   8  15
HETATM   15  O   UNK N   1      33.393  14.907  11.370  0.00  0.00    -0.368 OA
HETATM   16  H   UNK N   1      32.530  15.163  11.730  0.00  0.00     0.212 HD
ENDBRANCH   8  15
BRANCH   8  17
HETATM   17  P   UNK N   1      33.447  15.862   8.908  0.00  0.00     0.284 P 
HETATM   18  O   UNK N   1      31.945  15.510   8.747  0.00  0.00    -0.651 OA
BRANCH  17  19
HETATM   19  O   UNK N   1      34.121  15.621   7.328  0.00  0.00    -0.327 OA
HETATM   20  H   UNK N   1      35.082  15.632   7.199  0.00  0.00     0.220 HD
ENDBRANCH  17  19
BRANCH  17  21
HETATM   21  O   UNK N   1      33.459  17.572   9.203  0.00  0.00    -0.327 OA
HETATM   22  H   UNK N   1      33.518  18.192   8.460  0.00  0.00     0.220 HD
ENDBRANCH  17  21
ENDBRANCH   8  17
ENDBRANCH   7   8
ENDBRANCH   6   7
BRANCH   1  23
HETATM   23  C   UNK N   1      35.651  10.119  13.381  0.00  0.00    -0.025 A 
HETATM   24  C   UNK N   1      35.421  10.980  14.462  0.00  0.00     0.024 A 
HETATM   25  C   UNK N   1      35.368  10.491  15.776  0.00  0.00    -0.025 A 
HETATM   26  C   UNK N   1      35.509   9.112  15.997  0.00  0.00     0.012 A 
HETATM   27  C   UNK N   1      35.720   8.243  14.924  0.00  0.00     0.002 A 
HETATM   28  C   UNK N   1      35.820   8.748  13.626  0.00  0.00     0.012 A 
BRANCH  25  29
HETATM   29  C   UNK N   1      35.264  11.433  16.915  0.00  0.00    -0.026 A 
HETATM   30  C   UNK N   1      35.169  12.816  16.685  0.00  0.00     0.012 A 
HETATM   31  C   UNK N   1      35.135  13.712  17.757  0.00  0.00     0.001 A 
HETATM   32  C   UNK N   1      35.199  13.235  19.068  0.00  0.00     0.000 A 
HETATM   33  C   UNK N   1      35.292  11.862  19.308  0.00  0.00     0.001 A 
HETATM   34  C   UNK N   1      35.329  10.965  18.238  0.00  0.00     0.012 A 
ENDBRANCH  25  29
ENDBRANCH   1  23
TORSDOF 11
ENDMDL
MODEL 9
REMARK VINA RESULT:      -7.5      5.140      9.877
REMARK  11 active torsions:
REMARK  status: ('A' for Active; 'I' for Inactive)
REMARK    1  A    between atoms: C_6  and  C_7 
REMARK    2  A    between atoms: C_12  and  C_13 
REMARK    3  A    between atoms: C_18  and  C_19 
REMARK    4  A    between atoms: C_19  and  C_20 
REMARK    5  A    between atoms: C_20  and  P_21 
REMARK    6  A    between atoms: C_20  and  O_29 
REMARK    7  A    between atoms: C_20  and  P_25 
REMARK    8  A    between atoms: P_21  and  O_23 
REMARK    9  A    between atoms: P_21  and  O_24 
REMARK   10  A    between atoms: P_25  and  O_27 
REMARK   11  A    between atoms: P_25  and  O_28 
ROOT
HETATM    1  C   UNK N   1      32.735  16.605   7.650  0.00  0.00    -0.025 A 
HETATM    2  C   UNK N   1      33.038  15.695   8.673  0.00  0.00     0.019 A 
HETATM    3  C   UNK N   1      33.492  17.779   7.536  0.00  0.00     0.012 A 
HETATM    4  C   UNK N   1      34.552  18.019   8.412  0.00  0.00     0.001 A 
HETATM    5  C   UNK N   1      34.821  17.117   9.445  0.00  0.00     0.007 A 
HETATM    6  C   UNK N   1      34.066  15.947   9.584  0.00  0.00    -0.053 A 
ENDROOT
BRANCH   6   7
HETATM    7  C   UNK N   1      34.299  15.111  10.818  0.00  0.00     0.102 C 
BRANCH   7   8
HETATM    8  C   UNK N   1      35.230  13.883  10.937  0.00  0.00     0.256 C 
BRANCH   8   9
HETATM    9  P   UNK N   1      36.712  13.778   9.791  0.00  0.00     0.284 P 
HETATM   10  O   UNK N   1      37.483  12.441   9.963  0.00  0.00    -0.651 OA
BRANCH   9  11
HETATM   11  O   UNK N   1      37.911  14.988  10.116  0.00  0.00    -0.327 OA
HETATM   12  H   UNK N   1      37.712  15.746  10.690  0.00  0.00     0.220 HD
ENDBRANCH   9  11
BRANCH   9  13
HETATM   13  O   UNK N   1      36.388  13.901   8.090  0.00  0.00    -0.327 OA
HETATM   14  H   UNK N   1      36.284  13.447   7.239  0.00  0.00     0.220 HD
ENDBRANCH   9  13
ENDBRANCH   8   9
BRANCH   8  15
HETATM   15  O   UNK N   1      34.442  12.759  10.693  0.00  0.00    -0.368 OA
HETATM   16  H   UNK N   1      34.157  12.084  10.057  0.00  0.00     0.212 HD
ENDBRANCH   8  15
BRANCH   8  17
HETATM   17  P   UNK N   1      35.835  13.780  12.690  0.00  0.00     0.284 P 
HETATM   18  O   UNK N   1      36.205  15.185  13.235  0.00  0.00    -0.651 OA
BRANCH  17  19
HETATM   19  O   UNK N   1      37.273  12.835  12.913  0.00  0.00    -0.327 OA
HETATM   20  H   UNK N   1      37.351  11.959  12.506  0.00  0.00     0.220 HD
ENDBRANCH  17  19
BRANCH  17  21
HETATM   21  O   UNK N   1      34.660  13.179  13.817  0.00  0.00    -0.327 OA
HETATM   22  H   UNK N   1      34.916  12.519  14.480  0.00  0.00     0.220 HD
ENDBRANCH  17  21
ENDBRANCH   8  17
ENDBRANCH   7   8
ENDBRANCH   6   7
BRANCH   1  23
HETATM   23  C   UNK N   1      31.549  16.384   6.792  0.00  0.00    -0.025 A 
HETATM   24  C   UNK N   1      30.704  17.459   6.484  0.00  0.00     0.024 A 
HETATM   25  C   UNK N   1      29.509  17.257   5.779  0.00  0.00    -0.025 A 
HETATM   26  C   UNK N   1      29.182  15.963   5.345  0.00  0.00     0.012 A 
HETATM   27  C   UNK N   1      30.027  14.889   5.631  0.00  0.00     0.002 A 
HETATM   28  C   UNK N   1      31.189  15.094   6.376  0.00  0.00     0.012 A 
BRANCH  25  29
HETATM   29  C   UNK N   1      28.562  18.381   5.585  0.00  0.00    -0.026 A 
HETATM   30  C   UNK N   1      28.112  19.127   6.688  0.00  0.00     0.012 A 
HETATM   31  C   UNK N   1      27.172  20.147   6.518  0.00  0.00     0.001 A 
HETATM   32  C   UNK N   1      26.670  20.428   5.246  0.00  0.00     0.000 A 
HETATM   33  C   UNK N   1      27.111  19.694   4.143  0.00  0.00     0.001 A 
HETATM   34  C   UNK N   1      28.050  18.672   4.311  0.00  0.00     0.012 A 
ENDBRANCH  25  29
ENDBRANCH   1  23
TORSDOF 11
ENDMDL
