MODEL 1
REMARK VINA RESULT:      -8.5      0.000      0.000
REMARK  2 active torsions:
REMARK  status: ('A' for Active; 'I' for Inactive)
REMARK    1  A    between atoms: C_6  and  N_21 
REMARK       I    between atoms: N_16  and  C_19 
REMARK    2  A    between atoms: C_19  and  C_22 
ROOT
HETATM    1  C   UNK N   1      26.140  27.996  -4.655  0.00  0.00     0.047 A 
HETATM    2  C   UNK N   1      26.141  27.528  -3.362  0.00  0.00     0.106 A 
HETATM    3  N   UNK N   1      26.744  28.253  -2.393  0.00  0.00    -0.356 N 
ATOM      4  HN  UNK N   1      26.713  27.912  -1.432  1.00  0.00     0.166 HD
HETATM    5  C   UNK N   1      27.387  29.419  -2.657  0.00  0.00     0.113 A 
HETATM    6  C   UNK N   1      27.429  29.926  -3.958  0.00  0.00     0.042 A 
HETATM    7  C   UNK N   1      26.794  29.205  -4.965  0.00  0.00     0.021 A 
HETATM    8  C   UNK N   1      28.051  30.075  -1.580  0.00  0.00     0.117 C 
HETATM    9  N   UNK N   1      28.572  30.562  -0.671  0.00  0.00    -0.190 NA
ENDROOT
BRANCH   1  10
HETATM   10  C   UNK N   1      25.544  27.211  -5.721  0.00  0.00     0.255 C 
HETATM   11  N   UNK N   1      26.328  26.414  -6.476  0.00  0.00    -0.348 N 
HETATM   12  C   UNK N   1      25.889  25.061  -6.584  0.00  0.00     0.130 C 
HETATM   13  C   UNK N   1      27.749  26.676  -6.615  0.00  0.00     0.130 C 
HETATM   14  C   UNK N   1      26.447  24.430  -5.283  0.00  0.00     0.074 C 
HETATM   15  C   UNK N   1      27.977  24.476  -5.411  0.00  0.00     0.108 C 
HETATM   16  N   UNK N   1      28.193  23.650  -6.581  0.00  0.00    -0.349 N 
HETATM   17  N   UNK N   1      28.672  24.011  -4.235  0.00  0.00    -0.360 N 
HETATM   18  C   UNK N   1      28.520  25.889  -5.591  0.00  0.00     0.074 C 
HETATM   19  C   UNK N   1      28.767  22.509  -6.576  0.00  0.00     0.112 C 
ATOM     20  HN  UNK N   1      27.861  24.007  -7.477  1.00  0.00     0.163 HD
HETATM   21  C   UNK N   1      29.507  22.061  -5.385  0.00  0.00     0.075 C 
HETATM   22  C   UNK N   1      30.247  20.878  -5.375  0.00  0.00     0.132 C 
HETATM   23  C   UNK N   1      29.543  22.911  -4.280  0.00  0.00     0.086 C 
HETATM   24  C   UNK N   1      31.107  20.611  -4.308  0.00  0.00     0.046 C 
HETATM   25  F   UNK N   1      30.151  19.995  -6.399  0.00  0.00    -0.205 F 
HETATM   26  C   UNK N   1      31.250  21.539  -3.270  0.00  0.00     0.048 C 
HETATM   27  C   UNK N   1      30.454  22.686  -3.246  0.00  0.00     0.143 C 
HETATM   28  F   UNK N   1      30.616  23.607  -2.262  0.00  0.00    -0.204 F 
HETATM   29  H   UNK N   1      28.531  24.477  -3.380  0.00  0.00     0.162 HD
HETATM   30  O   UNK N   1      24.330  27.067  -5.737  0.00  0.00    -0.267 OA
BRANCH  19  31
HETATM   31  N   UNK N   1      28.808  21.775  -7.780  0.00  0.00    -0.385 N 
HETATM   32  H   UNK N   1      28.003  21.423  -8.225  0.00  0.00     0.157 HD
HETATM   33  H   UNK N   1      29.684  21.607  -8.196  0.00  0.00     0.157 HD
ENDBRANCH  19  31
ENDBRANCH   1  10
TORSDOF 2
ENDMDL
MODEL 2
REMARK VINA RESULT:      -8.1     22.235     25.383
REMARK  2 active torsions:
REMARK  status: ('A' for Active; 'I' for Inactive)
REMARK    1  A    between atoms: C_6  and  N_21 
REMARK       I    between atoms: N_16  and  C_19 
REMARK    2  A    between atoms: C_19  and  C_22 
ROOT
HETATM    1  C   UNK N   1      36.221  12.359  11.479  0.00  0.00     0.047 A 
HETATM    2  C   UNK N   1      37.186  13.091  10.828  0.00  0.00     0.106 A 
HETATM    3  N   UNK N   1      37.002  14.416  10.639  0.00  0.00    -0.356 N 
ATOM      4  HN  UNK N   1      37.737  14.956  10.181  1.00  0.00     0.166 HD
HETATM    5  C   UNK N   1      35.871  15.053  11.038  0.00  0.00     0.113 A 
HETATM    6  C   UNK N   1      34.853  14.349  11.687  0.00  0.00     0.042 A 
HETATM    7  C   UNK N   1      35.036  12.987  11.910  0.00  0.00     0.021 A 
HETATM    8  C   UNK N   1      35.739  16.438  10.732  0.00  0.00     0.117 C 
HETATM    9  N   UNK N   1      35.687  17.560  10.457  0.00  0.00    -0.190 NA
ENDROOT
BRANCH   1  10
HETATM   10  C   UNK N   1      36.374  10.925  11.648  0.00  0.00     0.255 C 
HETATM   11  N   UNK N   1      36.983  10.450  12.754  0.00  0.00    -0.348 N 
HETATM   12  C   UNK N   1      36.252   9.452  13.465  0.00  0.00     0.130 C 
HETATM   13  C   UNK N   1      37.916  11.269  13.506  0.00  0.00     0.130 C 
HETATM   14  C   UNK N   1      35.287  10.305  14.328  0.00  0.00     0.074 C 
HETATM   15  C   UNK N   1      36.172  11.082  15.313  0.00  0.00     0.108 C 
HETATM   16  N   UNK N   1      36.793  10.005  16.054  0.00  0.00    -0.349 N 
HETATM   17  N   UNK N   1      35.441  12.011  16.141  0.00  0.00    -0.360 N 
HETATM   18  C   UNK N   1      37.196  11.976  14.623  0.00  0.00     0.074 C 
HETATM   19  C   UNK N   1      36.579   9.745  17.287  0.00  0.00     0.112 C 
ATOM     20  HN  UNK N   1      37.451   9.407  15.554  1.00  0.00     0.163 HD
HETATM   21  C   UNK N   1      35.868  10.718  18.132  0.00  0.00     0.075 C 
HETATM   22  C   UNK N   1      35.716  10.532  19.507  0.00  0.00     0.132 C 
HETATM   23  C   UNK N   1      35.432  11.903  17.541  0.00  0.00     0.086 C 
HETATM   24  C   UNK N   1      35.235  11.579  20.296  0.00  0.00     0.046 C 
HETATM   25  F   UNK N   1      36.046   9.351  20.085  0.00  0.00    -0.205 F 
HETATM   26  C   UNK N   1      34.938  12.818  19.717  0.00  0.00     0.048 C 
HETATM   27  C   UNK N   1      35.021  12.977  18.332  0.00  0.00     0.143 C 
HETATM   28  F   UNK N   1      34.770  14.187  17.770  0.00  0.00    -0.204 F 
HETATM   29  H   UNK N   1      34.935  12.739  15.713  0.00  0.00     0.162 HD
HETATM   30  O   UNK N   1      35.712  10.176  10.944  0.00  0.00    -0.267 OA
BRANCH  19  31
HETATM   31  N   UNK N   1      37.178   8.595  17.842  0.00  0.00    -0.385 N 
HETATM   32  H   UNK N   1      37.208   8.416  18.810  0.00  0.00     0.157 HD
HETATM   33  H   UNK N   1      37.587   7.940  17.233  0.00  0.00     0.157 HD
ENDBRANCH  19  31
ENDBRANCH   1  10
TORSDOF 2
ENDMDL
MODEL 3
REMARK VINA RESULT:      -7.9     13.397     16.796
REMARK  2 active torsions:
REMARK  status: ('A' for Active; 'I' for Inactive)
REMARK    1  A    between atoms: C_6  and  N_21 
REMARK       I    between atoms: N_16  and  C_19 
REMARK    2  A    between atoms: C_19  and  C_22 
ROOT
HETATM    1  C   UNK N   1      34.976  14.598   7.891  0.00  0.00     0.047 A 
HETATM    2  C   UNK N   1      35.075  13.344   8.447  0.00  0.00     0.106 A 
HETATM    3  N   UNK N   1      35.025  13.207   9.791  0.00  0.00    -0.356 N 
ATOM      4  HN  UNK N   1      35.069  12.270  10.193  1.00  0.00     0.166 HD
HETATM    5  C   UNK N   1      34.915  14.275  10.623  0.00  0.00     0.113 A 
HETATM    6  C   UNK N   1      34.830  15.570  10.106  0.00  0.00     0.042 A 
HETATM    7  C   UNK N   1      34.858  15.728   8.723  0.00  0.00     0.021 A 
HETATM    8  C   UNK N   1      34.941  14.034  12.027  0.00  0.00     0.117 C 
HETATM    9  N   UNK N   1      34.966  13.779  13.154  0.00  0.00    -0.190 NA
ENDROOT
BRANCH   1  10
HETATM   10  C   UNK N   1      35.079  14.775   6.453  0.00  0.00     0.255 C 
HETATM   11  N   UNK N   1      33.960  14.747   5.701  0.00  0.00    -0.348 N 
HETATM   12  C   UNK N   1      33.793  15.861   4.825  0.00  0.00     0.130 C 
HETATM   13  C   UNK N   1      32.764  14.065   6.160  0.00  0.00     0.130 C 
HETATM   14  C   UNK N   1      33.171  16.927   5.763  0.00  0.00     0.074 C 
HETATM   15  C   UNK N   1      31.790  16.387   6.162  0.00  0.00     0.108 C 
HETATM   16  N   UNK N   1      31.129  16.307   4.877  0.00  0.00    -0.349 N 
HETATM   17  N   UNK N   1      31.099  17.214   7.121  0.00  0.00    -0.360 N 
HETATM   18  C   UNK N   1      31.855  15.035   6.864  0.00  0.00     0.074 C 
HETATM   19  C   UNK N   1      30.143  17.035   4.514  0.00  0.00     0.112 C 
ATOM     20  HN  UNK N   1      31.477  15.619   4.209  1.00  0.00     0.163 HD
HETATM   21  C   UNK N   1      29.419  17.844   5.508  0.00  0.00     0.075 C 
HETATM   22  C   UNK N   1      28.266  18.560   5.182  0.00  0.00     0.132 C 
HETATM   23  C   UNK N   1      29.855  17.797   6.832  0.00  0.00     0.086 C 
HETATM   24  C   UNK N   1      27.495  19.126   6.199  0.00  0.00     0.046 C 
HETATM   25  F   UNK N   1      27.880  18.696   3.890  0.00  0.00    -0.205 F 
HETATM   26  C   UNK N   1      27.858  18.950   7.540  0.00  0.00     0.048 C 
HETATM   27  C   UNK N   1      29.051  18.297   7.858  0.00  0.00     0.143 C 
HETATM   28  F   UNK N   1      29.388  18.091   9.157  0.00  0.00    -0.204 F 
HETATM   29  H   UNK N   1      31.511  17.374   8.001  0.00  0.00     0.162 HD
HETATM   30  O   UNK N   1      36.118  15.221   5.989  0.00  0.00    -0.267 OA
BRANCH  19  31
HETATM   31  N   UNK N   1      29.674  16.914   3.189  0.00  0.00    -0.385 N 
HETATM   32  H   UNK N   1      30.149  16.405   2.493  0.00  0.00     0.157 HD
HETATM   33  H   UNK N   1      28.830  17.360   2.949  0.00  0.00     0.157 HD
ENDBRANCH  19  31
ENDBRANCH   1  10
TORSDOF 2
ENDMDL
MODEL 4
REMARK VINA RESULT:      -7.9     12.123     13.943
REMARK  2 active torsions:
REMARK  status: ('A' for Active; 'I' for Inactive)
REMARK    1  A    between atoms: C_6  and  N_21 
REMARK       I    between atoms: N_16  and  C_19 
REMARK    2  A    between atoms: C_19  and  C_22 
ROOT
HETATM    1  C   UNK N   1      23.519  16.698   4.205  0.00  0.00     0.047 A 
HETATM    2  C   UNK N   1      23.488  16.189   5.483  0.00  0.00     0.106 A 
HETATM    3  N   UNK N   1      22.616  16.699   6.381  0.00  0.00    -0.356 N 
ATOM      4  HN  UNK N   1      22.580  16.295   7.317  1.00  0.00     0.166 HD
HETATM    5  C   UNK N   1      21.787  17.731   6.078  0.00  0.00     0.113 A 
HETATM    6  C   UNK N   1      21.795  18.294   4.799  0.00  0.00     0.042 A 
HETATM    7  C   UNK N   1      22.670  17.766   3.854  0.00  0.00     0.021 A 
HETATM    8  C   UNK N   1      20.954  18.246   7.112  0.00  0.00     0.117 C 
HETATM    9  N   UNK N   1      20.301  18.622   7.989  0.00  0.00    -0.190 NA
ENDROOT
BRANCH   1  10
HETATM   10  C   UNK N   1      24.481  16.200   3.238  0.00  0.00     0.255 C 
HETATM   11  N   UNK N   1      25.689  16.793   3.140  0.00  0.00    -0.348 N 
HETATM   12  C   UNK N   1      26.805  15.907   3.218  0.00  0.00     0.130 C 
HETATM   13  C   UNK N   1      25.886  18.167   3.564  0.00  0.00     0.130 C 
HETATM   14  C   UNK N   1      26.981  15.735   4.748  0.00  0.00     0.074 C 
HETATM   15  C   UNK N   1      27.391  17.113   5.286  0.00  0.00     0.108 C 
HETATM   16  N   UNK N   1      28.643  17.333   4.592  0.00  0.00    -0.349 N 
HETATM   17  N   UNK N   1      27.507  17.164   6.724  0.00  0.00    -0.360 N 
HETATM   18  C   UNK N   1      26.366  18.202   4.990  0.00  0.00     0.074 C 
HETATM   19  C   UNK N   1      29.792  17.372   5.149  0.00  0.00     0.112 C 
ATOM     20  HN  UNK N   1      28.604  17.467   3.582  1.00  0.00     0.163 HD
HETATM   21  C   UNK N   1      29.899  17.463   6.614  0.00  0.00     0.075 C 
HETATM   22  C   UNK N   1      31.126  17.627   7.258  0.00  0.00     0.132 C 
HETATM   23  C   UNK N   1      28.718  17.491   7.355  0.00  0.00     0.086 C 
HETATM   24  C   UNK N   1      31.155  17.932   8.620  0.00  0.00     0.046 C 
HETATM   25  F   UNK N   1      32.288  17.509   6.570  0.00  0.00    -0.205 F 
HETATM   26  C   UNK N   1      29.960  18.104   9.329  0.00  0.00     0.048 C 
HETATM   27  C   UNK N   1      28.737  17.867   8.699  0.00  0.00     0.143 C 
HETATM   28  F   UNK N   1      27.575  18.070   9.372  0.00  0.00    -0.204 F 
HETATM   29  H   UNK N   1      26.717  16.963   7.276  0.00  0.00     0.162 HD
HETATM   30  O   UNK N   1      24.297  15.099   2.739  0.00  0.00    -0.267 OA
BRANCH  19  31
HETATM   31  N   UNK N   1      30.931  17.487   4.325  0.00  0.00    -0.385 N 
HETATM   32  H   UNK N   1      31.100  16.901   3.552  0.00  0.00     0.157 HD
HETATM   33  H   UNK N   1      31.590  18.189   4.533  0.00  0.00     0.157 HD
ENDBRANCH  19  31
ENDBRANCH   1  10
TORSDOF 2
ENDMDL
MODEL 5
REMARK VINA RESULT:      -7.9     11.799     14.531
REMARK  2 active torsions:
REMARK  status: ('A' for Active; 'I' for Inactive)
REMARK    1  A    between atoms: C_6  and  N_21 
REMARK       I    between atoms: N_16  and  C_19 
REMARK    2  A    between atoms: C_19  and  C_22 
ROOT
HETATM    1  C   UNK N   1      33.075  15.606   5.704  0.00  0.00     0.047 A 
HETATM    2  C   UNK N   1      33.442  14.809   6.763  0.00  0.00     0.106 A 
HETATM    3  N   UNK N   1      33.967  15.377   7.872  0.00  0.00    -0.356 N 
ATOM      4  HN  UNK N   1      34.209  14.780   8.664  1.00  0.00     0.166 HD
HETATM    5  C   UNK N   1      34.182  16.714   7.967  0.00  0.00     0.113 A 
HETATM    6  C   UNK N   1      33.843  17.563   6.911  0.00  0.00     0.042 A 
HETATM    7  C   UNK N   1      33.280  16.998   5.769  0.00  0.00     0.021 A 
HETATM    8  C   UNK N   1      34.805  17.209   9.149  0.00  0.00     0.117 C 
HETATM    9  N   UNK N   1      35.312  17.553  10.130  0.00  0.00    -0.190 NA
ENDROOT
BRANCH   1  10
HETATM   10  C   UNK N   1      32.556  15.015   4.484  0.00  0.00     0.255 C 
HETATM   11  N   UNK N   1      31.225  14.853   4.340  0.00  0.00    -0.348 N 
HETATM   12  C   UNK N   1      30.678  15.386   3.135  0.00  0.00     0.130 C 
HETATM   13  C   UNK N   1      30.352  14.762   5.496  0.00  0.00     0.130 C 
HETATM   14  C   UNK N   1      30.487  16.882   3.495  0.00  0.00     0.074 C 
HETATM   15  C   UNK N   1      29.417  16.920   4.596  0.00  0.00     0.108 C 
HETATM   16  N   UNK N   1      28.276  16.351   3.909  0.00  0.00    -0.349 N 
HETATM   17  N   UNK N   1      29.177  18.240   5.126  0.00  0.00    -0.360 N 
HETATM   18  C   UNK N   1      29.804  16.121   5.835  0.00  0.00     0.074 C 
HETATM   19  C   UNK N   1      27.213  16.989   3.602  0.00  0.00     0.112 C 
ATOM     20  HN  UNK N   1      28.325  15.366   3.650  1.00  0.00     0.163 HD
HETATM   21  C   UNK N   1      26.959  18.319   4.180  0.00  0.00     0.075 C 
HETATM   22  C   UNK N   1      25.760  19.002   3.969  0.00  0.00     0.132 C 
HETATM   23  C   UNK N   1      27.914  18.849   5.047  0.00  0.00     0.086 C 
HETATM   24  C   UNK N   1      25.478  20.148   4.713  0.00  0.00     0.046 C 
HETATM   25  F   UNK N   1      24.861  18.552   3.059  0.00  0.00    -0.205 F 
HETATM   26  C   UNK N   1      26.378  20.593   5.689  0.00  0.00     0.048 C 
HETATM   27  C   UNK N   1      27.607  19.951   5.846  0.00  0.00     0.143 C 
HETATM   28  F   UNK N   1      28.467  20.356   6.817  0.00  0.00    -0.204 F 
HETATM   29  H   UNK N   1      29.918  18.727   5.553  0.00  0.00     0.162 HD
HETATM   30  O   UNK N   1      33.291  14.938   3.510  0.00  0.00    -0.267 OA
BRANCH  19  31
HETATM   31  N   UNK N   1      26.231  16.326   2.838  0.00  0.00    -0.385 N 
HETATM   32  H   UNK N   1      26.420  15.531   2.288  0.00  0.00     0.157 HD
HETATM   33  H   UNK N   1      25.310  16.674   2.854  0.00  0.00     0.157 HD
ENDBRANCH  19  31
ENDBRANCH   1  10
TORSDOF 2
ENDMDL
MODEL 6
REMARK VINA RESULT:      -7.6     14.006     15.790
REMARK  2 active torsions:
REMARK  status: ('A' for Active; 'I' for Inactive)
REMARK    1  A    between atoms: C_6  and  N_21 
REMARK       I    between atoms: N_16  and  C_19 
REMARK    2  A    between atoms: C_19  and  C_22 
ROOT
HETATM    1  C   UNK N   1      21.042  13.960   7.112  0.00  0.00     0.047 A 
HETATM    2  C   UNK N   1      22.240  13.356   6.809  0.00  0.00     0.106 A 
HETATM    3  N   UNK N   1      23.043  12.933   7.811  0.00  0.00    -0.356 N 
ATOM      4  HN  UNK N   1      23.916  12.460   7.576  1.00  0.00     0.166 HD
HETATM    5  C   UNK N   1      22.725  13.115   9.118  0.00  0.00     0.113 A 
HETATM    6  C   UNK N   1      21.528  13.740   9.476  0.00  0.00     0.042 A 
HETATM    7  C   UNK N   1      20.678  14.162   8.457  0.00  0.00     0.021 A 
HETATM    8  C   UNK N   1      23.669  12.697  10.101  0.00  0.00     0.117 C 
HETATM    9  N   UNK N   1      24.470  12.339  10.853  0.00  0.00    -0.190 NA
ENDROOT
BRANCH   1  10
HETATM   10  C   UNK N   1      20.187  14.468   6.054  0.00  0.00     0.255 C 
HETATM   11  N   UNK N   1      20.237  15.777   5.733  0.00  0.00    -0.348 N 
HETATM   12  C   UNK N   1      20.432  16.052   4.347  0.00  0.00     0.130 C 
HETATM   13  C   UNK N   1      20.700  16.766   6.689  0.00  0.00     0.130 C 
HETATM   14  C   UNK N   1      21.970  15.926   4.200  0.00  0.00     0.074 C 
HETATM   15  C   UNK N   1      22.571  17.070   5.031  0.00  0.00     0.108 C 
HETATM   16  N   UNK N   1      22.029  18.231   4.357  0.00  0.00    -0.349 N 
HETATM   17  N   UNK N   1      24.012  17.050   5.088  0.00  0.00    -0.360 N 
HETATM   18  C   UNK N   1      22.172  17.015   6.501  0.00  0.00     0.074 C 
HETATM   19  C   UNK N   1      22.716  19.077   3.690  0.00  0.00     0.112 C 
ATOM     20  HN  UNK N   1      21.023  18.386   4.420  1.00  0.00     0.163 HD
HETATM   21  C   UNK N   1      24.185  19.074   3.786  0.00  0.00     0.075 C 
HETATM   22  C   UNK N   1      24.969  20.050   3.171  0.00  0.00     0.132 C 
HETATM   23  C   UNK N   1      24.784  18.120   4.608  0.00  0.00     0.086 C 
HETATM   24  C   UNK N   1      26.330  20.135   3.473  0.00  0.00     0.046 C 
HETATM   25  F   UNK N   1      24.419  20.927   2.295  0.00  0.00    -0.205 F 
HETATM   26  C   UNK N   1      26.897  19.266   4.413  0.00  0.00     0.048 C 
HETATM   27  C   UNK N   1      26.126  18.244   4.971  0.00  0.00     0.143 C 
HETATM   28  F   UNK N   1      26.662  17.423   5.910  0.00  0.00    -0.204 F 
HETATM   29  H   UNK N   1      24.466  16.265   5.473  0.00  0.00     0.162 HD
HETATM   30  O   UNK N   1      19.654  13.671   5.294  0.00  0.00    -0.267 OA
BRANCH  19  31
HETATM   31  N   UNK N   1      22.031  20.099   3.000  0.00  0.00    -0.385 N 
HETATM   32  H   UNK N   1      21.898  21.003   3.367  0.00  0.00     0.157 HD
HETATM   33  H   UNK N   1      21.669  19.899   2.107  0.00  0.00     0.157 HD
ENDBRANCH  19  31
ENDBRANCH   1  10
TORSDOF 2
ENDMDL
MODEL 7
REMARK VINA RESULT:      -7.4     15.432     18.860
REMARK  2 active torsions:
REMARK  status: ('A' for Active; 'I' for Inactive)
REMARK    1  A    between atoms: C_6  and  N_21 
REMARK       I    between atoms: N_16  and  C_19 
REMARK    2  A    between atoms: C_19  and  C_22 
ROOT
HETATM    1  C   UNK N   1      35.557  13.567   9.888  0.00  0.00     0.047 A 
HETATM    2  C   UNK N   1      35.282  14.509  10.853  0.00  0.00     0.106 A 
HETATM    3  N   UNK N   1      34.998  14.107  12.112  0.00  0.00    -0.356 N 
ATOM      4  HN  UNK N   1      34.825  14.815  12.827  1.00  0.00     0.166 HD
HETATM    5  C   UNK N   1      34.937  12.795  12.456  0.00  0.00     0.113 A 
HETATM    6  C   UNK N   1      35.190  11.801  11.507  0.00  0.00     0.042 A 
HETATM    7  C   UNK N   1      35.506  12.197  10.210  0.00  0.00     0.021 A 
HETATM    8  C   UNK N   1      34.562  12.471  13.792  0.00  0.00     0.117 C 
HETATM    9  N   UNK N   1      34.253  12.268  14.887  0.00  0.00    -0.190 NA
ENDROOT
BRANCH   1  10
HETATM   10  C   UNK N   1      35.814  13.971   8.518  0.00  0.00     0.255 C 
HETATM   11  N   UNK N   1      34.786  14.060   7.649  0.00  0.00    -0.348 N 
HETATM   12  C   UNK N   1      34.694  15.299   6.947  0.00  0.00     0.130 C 
HETATM   13  C   UNK N   1      33.562  13.309   7.857  0.00  0.00     0.130 C 
HETATM   14  C   UNK N   1      33.950  16.199   7.965  0.00  0.00     0.074 C 
HETATM   15  C   UNK N   1      32.544  15.598   8.116  0.00  0.00     0.108 C 
HETATM   16  N   UNK N   1      32.032  15.722   6.768  0.00  0.00    -0.349 N 
HETATM   17  N   UNK N   1      31.734  16.260   9.110  0.00  0.00    -0.360 N 
HETATM   18  C   UNK N   1      32.560  14.152   8.599  0.00  0.00     0.074 C 
HETATM   19  C   UNK N   1      31.077  16.495   6.416  0.00  0.00     0.112 C 
ATOM     20  HN  UNK N   1      32.466  15.150   6.044  1.00  0.00     0.163 HD
HETATM   21  C   UNK N   1      30.231  17.134   7.438  0.00  0.00     0.075 C 
HETATM   22  C   UNK N   1      29.106  17.888   7.101  0.00  0.00     0.132 C 
HETATM   23  C   UNK N   1      30.518  16.877   8.778  0.00  0.00     0.086 C 
HETATM   24  C   UNK N   1      28.215  18.282   8.101  0.00  0.00     0.046 C 
HETATM   25  F   UNK N   1      28.862  18.227   5.812  0.00  0.00    -0.205 F 
HETATM   26  C   UNK N   1      28.431  17.896   9.429  0.00  0.00     0.048 C 
HETATM   27  C   UNK N   1      29.594  17.205   9.773  0.00  0.00     0.143 C 
HETATM   28  F   UNK N   1      29.790  16.795  11.052  0.00  0.00    -0.204 F 
HETATM   29  H   UNK N   1      32.043  16.279  10.045  0.00  0.00     0.162 HD
HETATM   30  O   UNK N   1      36.889  14.489   8.249  0.00  0.00    -0.267 OA
BRANCH  19  31
HETATM   31  N   UNK N   1      30.760  16.586   5.045  0.00  0.00    -0.385 N 
HETATM   32  H   UNK N   1      31.382  16.321   4.328  0.00  0.00     0.157 HD
HETATM   33  H   UNK N   1      29.873  16.930   4.791  0.00  0.00     0.157 HD
ENDBRANCH  19  31
ENDBRANCH   1  10
TORSDOF 2
ENDMDL
MODEL 8
REMARK VINA RESULT:      -7.3     12.864     15.069
REMARK  2 active torsions:
REMARK  status: ('A' for Active; 'I' for Inactive)
REMARK    1  A    between atoms: C_6  and  N_21 
REMARK       I    between atoms: N_16  and  C_19 
REMARK    2  A    between atoms: C_19  and  C_22 
ROOT
HETATM    1  C   UNK N   1      26.465  14.537   2.732  0.00  0.00     0.047 A 
HETATM    2  C   UNK N   1      27.637  15.052   2.229  0.00  0.00     0.106 A 
HETATM    3  N   UNK N   1      28.508  14.230   1.602  0.00  0.00    -0.356 N 
ATOM      4  HN  UNK N   1      29.361  14.627   1.206  1.00  0.00     0.166 HD
HETATM    5  C   UNK N   1      28.285  12.896   1.480  0.00  0.00     0.113 A 
HETATM    6  C   UNK N   1      27.118  12.324   1.992  0.00  0.00     0.042 A 
HETATM    7  C   UNK N   1      26.198  13.158   2.622  0.00  0.00     0.021 A 
HETATM    8  C   UNK N   1      29.295  12.103   0.864  0.00  0.00     0.117 C 
HETATM    9  N   UNK N   1      30.147  11.509   0.356  0.00  0.00    -0.190 NA
ENDROOT
BRANCH   1  10
HETATM   10  C   UNK N   1      25.538  15.390   3.455  0.00  0.00     0.255 C 
HETATM   11  N   UNK N   1      25.704  15.577   4.780  0.00  0.00    -0.348 N 
HETATM   12  C   UNK N   1      25.732  16.940   5.199  0.00  0.00     0.130 C 
HETATM   13  C   UNK N   1      26.418  14.607   5.590  0.00  0.00     0.130 C 
HETATM   14  C   UNK N   1      27.206  17.338   4.927  0.00  0.00     0.074 C 
HETATM   15  C   UNK N   1      28.057  16.496   5.890  0.00  0.00     0.108 C 
HETATM   16  N   UNK N   1      27.573  16.952   7.176  0.00  0.00    -0.349 N 
HETATM   17  N   UNK N   1      29.478  16.667   5.708  0.00  0.00    -0.360 N 
HETATM   18  C   UNK N   1      27.868  14.995   5.700  0.00  0.00     0.074 C 
HETATM   19  C   UNK N   1      28.258  17.627   8.018  0.00  0.00     0.112 C 
ATOM     20  HN  UNK N   1      26.614  16.718   7.429  1.00  0.00     0.163 HD
HETATM   21  C   UNK N   1      29.714  17.762   7.845  0.00  0.00     0.075 C 
HETATM   22  C   UNK N   1      30.518  18.387   8.799  0.00  0.00     0.132 C 
HETATM   23  C   UNK N   1      30.300  17.147   6.739  0.00  0.00     0.086 C 
HETATM   24  C   UNK N   1      31.907  18.293   8.700  0.00  0.00     0.046 C 
HETATM   25  F   UNK N   1      29.962  19.070   9.830  0.00  0.00    -0.205 F 
HETATM   26  C   UNK N   1      32.490  17.549   7.667  0.00  0.00     0.048 C 
HETATM   27  C   UNK N   1      31.686  16.987   6.674  0.00  0.00     0.143 C 
HETATM   28  F   UNK N   1      32.244  16.233   5.692  0.00  0.00    -0.204 F 
HETATM   29  H   UNK N   1      29.880  16.441   4.838  0.00  0.00     0.162 HD
HETATM   30  O   UNK N   1      24.807  16.136   2.818  0.00  0.00    -0.267 OA
BRANCH  19  31
HETATM   31  N   UNK N   1      27.615  18.092   9.184  0.00  0.00    -0.385 N 
HETATM   32  H   UNK N   1      26.816  18.668   9.167  0.00  0.00     0.157 HD
HETATM   33  H   UNK N   1      27.982  17.828  10.058  0.00  0.00     0.157 HD
ENDBRANCH  19  31
ENDBRANCH   1  10
TORSDOF 2
ENDMDL
MODEL 9
REMARK VINA RESULT:      -7.2      2.281      3.403
REMARK  2 active torsions:
REMARK  status: ('A' for Active; 'I' for Inactive)
REMARK    1  A    between atoms: C_6  and  N_21 
REMARK       I    between atoms: N_16  and  C_19 
REMARK    2  A    between atoms: C_19  and  C_22 
ROOT
HETATM    1  C   UNK N   1      26.102  24.617  -6.975  0.00  0.00     0.047 A 
HETATM    2  C   UNK N   1      26.051  24.219  -5.660  0.00  0.00     0.106 A 
HETATM    3  N   UNK N   1      25.872  25.145  -4.691  0.00  0.00    -0.356 N 
ATOM      4  HN  UNK N   1      25.806  24.837  -3.721  1.00  0.00     0.166 HD
HETATM    5  C   UNK N   1      25.778  26.472  -4.968  0.00  0.00     0.113 A 
HETATM    6  C   UNK N   1      25.843  26.927  -6.287  0.00  0.00     0.042 A 
HETATM    7  C   UNK N   1      26.004  25.985  -7.300  0.00  0.00     0.021 A 
HETATM    8  C   UNK N   1      25.661  27.376  -3.873  0.00  0.00     0.117 C 
HETATM    9  N   UNK N   1      25.567  28.062  -2.948  0.00  0.00    -0.190 NA
ENDROOT
BRANCH   1  10
HETATM   10  C   UNK N   1      26.344  23.647  -8.028  0.00  0.00     0.255 C 
HETATM   11  N   UNK N   1      27.613  23.314  -8.344  0.00  0.00    -0.348 N 
HETATM   12  C   UNK N   1      27.884  21.914  -8.358  0.00  0.00     0.130 C 
HETATM   13  C   UNK N   1      28.716  24.213  -8.060  0.00  0.00     0.130 C 
HETATM   14  C   UNK N   1      28.146  21.615  -6.860  0.00  0.00     0.074 C 
HETATM   15  C   UNK N   1      29.430  22.374  -6.494  0.00  0.00     0.108 C 
HETATM   16  N   UNK N   1      30.395  21.750  -7.376  0.00  0.00    -0.349 N 
HETATM   17  N   UNK N   1      29.778  22.287  -5.097  0.00  0.00    -0.360 N 
HETATM   18  C   UNK N   1      29.323  23.877  -6.725  0.00  0.00     0.074 C 
HETATM   19  C   UNK N   1      31.365  21.012  -6.994  0.00  0.00     0.112 C 
ATOM     20  HN  UNK N   1      30.292  21.912  -8.377  1.00  0.00     0.163 HD
HETATM   21  C   UNK N   1      31.737  20.961  -5.570  0.00  0.00     0.075 C 
HETATM   22  C   UNK N   1      32.860  20.264  -5.123  0.00  0.00     0.132 C 
HETATM   23  C   UNK N   1      30.992  21.725  -4.672  0.00  0.00     0.086 C 
HETATM   24  C   UNK N   1      33.296  20.428  -3.806  0.00  0.00     0.046 C 
HETATM   25  F   UNK N   1      33.541  19.442  -5.959  0.00  0.00    -0.205 F 
HETATM   26  C   UNK N   1      32.629  21.312  -2.950  0.00  0.00     0.048 C 
HETATM   27  C   UNK N   1      31.463  21.951  -3.378  0.00  0.00     0.143 C 
HETATM   28  F   UNK N   1      30.835  22.837  -2.564  0.00  0.00    -0.204 F 
HETATM   29  H   UNK N   1      29.146  22.629  -4.424  0.00  0.00     0.162 HD
HETATM   30  O   UNK N   1      25.415  22.950  -8.410  0.00  0.00    -0.267 OA
BRANCH  19  31
HETATM   31  N   UNK N   1      32.159  20.387  -7.978  0.00  0.00    -0.385 N 
HETATM   32  H   UNK N   1      32.607  19.521  -7.841  0.00  0.00     0.157 HD
HETATM   33  H   UNK N   1      32.270  20.839  -8.846  0.00  0.00     0.157 HD
ENDBRANCH  19  31
ENDBRANCH   1  10
TORSDOF 2
ENDMDL
