REMARK  2 active torsions:
REMARK  status: ('A' for Active; 'I' for Inactive)
REMARK    1  A    between atoms: C_6  and  N_21 
REMARK       I    between atoms: N_16  and  C_19 
REMARK    2  A    between atoms: C_19  and  C_22 
ROOT
HETATM    1  C   UNK N   1       3.361  -0.724  -0.022  0.00  0.00     0.047 A 
HETATM    2  C   UNK N   1       4.474  -1.365  -0.514  0.00  0.00     0.106 A 
HETATM    3  N   UNK N   1       4.506  -2.716  -0.540  0.00  0.00    -0.356 N 
ATOM      4  HN  UNK N   1       5.324  -3.182  -0.934  1.00  0.00     0.166 HD
HETATM    5  C   UNK N   1       3.486  -3.473  -0.060  0.00  0.00     0.113 A 
HETATM    6  C   UNK N   1       2.342  -2.868   0.467  0.00  0.00     0.042 A 
HETATM    7  C   UNK N   1       2.282  -1.477   0.481  0.00  0.00     0.021 A 
HETATM    8  C   UNK N   1       3.643  -4.889  -0.067  0.00  0.00     0.117 C 
HETATM    9  N   UNK N   1       3.825  -6.030  -0.098  0.00  0.00    -0.190 NA
ENDROOT
BRANCH   1  10
HETATM   10  C   UNK N   1       3.324   0.725   0.063  0.00  0.00     0.255 C 
HETATM   11  N   UNK N   1       2.333   1.400  -0.555  0.00  0.00    -0.348 N 
HETATM   12  C   UNK N   1       1.628   2.327   0.269  0.00  0.00     0.130 C 
HETATM   13  C   UNK N   1       1.624   0.824  -1.683  0.00  0.00     0.130 C 
HETATM   14  C   UNK N   1       0.600   1.414   0.985  0.00  0.00     0.074 C 
HETATM   15  C   UNK N   1      -0.342   0.894  -0.111  0.00  0.00     0.108 C 
HETATM   16  N   UNK N   1      -0.922   2.127  -0.601  0.00  0.00    -0.349 N 
HETATM   17  N   UNK N   1      -1.316  -0.058   0.365  0.00  0.00    -0.360 N 
HETATM   18  C   UNK N   1       0.383   0.120  -1.206  0.00  0.00     0.074 C 
HETATM   19  C   UNK N   1      -2.146   2.466  -0.462  0.00  0.00     0.112 C 
ATOM     20  HN  UNK N   1      -0.307   2.774  -1.094  1.00  0.00     0.163 HD
HETATM   21  C   UNK N   1      -3.139   1.476  -0.014  0.00  0.00     0.075 C 
HETATM   22  C   UNK N   1      -4.503   1.767   0.038  0.00  0.00     0.132 C 
HETATM   23  C   UNK N   1      -2.695   0.183   0.261  0.00  0.00     0.086 C 
HETATM   24  C   UNK N   1      -5.421   0.737   0.252  0.00  0.00     0.046 C 
HETATM   25  F   UNK N   1      -4.945   3.037  -0.133  0.00  0.00    -0.205 F 
HETATM   26  C   UNK N   1      -4.978  -0.585   0.381  0.00  0.00     0.048 C 
HETATM   27  C   UNK N   1      -3.610  -0.862   0.402  0.00  0.00     0.143 C 
HETATM   28  F   UNK N   1      -3.177  -2.146   0.489  0.00  0.00    -0.204 F 
HETATM   29  H   UNK N   1      -1.005  -0.898   0.774  0.00  0.00     0.162 HD
HETATM   30  O   UNK N   1       4.009   1.282   0.909  0.00  0.00    -0.267 OA
BRANCH  19  31
HETATM   31  N   UNK N   1      -2.539   3.748  -0.900  0.00  0.00    -0.385 N 
HETATM   32  H   UNK N   1      -1.901   4.433  -1.206  0.00  0.00     0.157 HD
HETATM   33  H   UNK N   1      -3.498   3.969  -0.900  0.00  0.00     0.157 HD
ENDBRANCH  19  31
ENDBRANCH   1  10
TORSDOF 2
