MODEL 1
REMARK VINA RESULT:      -8.0      0.000      0.000
REMARK  6 active torsions:
REMARK  status: ('A' for Active; 'I' for Inactive)
REMARK    1  A    between atoms: C_1  and  C_15 
REMARK       I    between atoms: C_15  and  N_17 
REMARK    2  A    between atoms: N_17  and  C_18 
REMARK    3  A    between atoms: C_21  and  C_24 
REMARK       I    between atoms: C_24  and  N_25 
REMARK    4  A    between atoms: N_25  and  C_27 
REMARK    5  A    between atoms: C_27  and  C_28 
REMARK    6  A    between atoms: C_28  and  N_29 
ROOT
HETATM    1  C   UNK N   1      36.082  14.513  11.878  0.00  0.00     0.257 C 
HETATM    2  O   UNK N   1      35.889  15.639  12.310  0.00  0.00    -0.267 OA
HETATM    3  N   UNK N   1      35.850  14.184  10.588  0.00  0.00    -0.303 N 
HETATM    4  H   UNK N   1      36.087  13.248  10.394  0.00  0.00     0.171 HD
ENDROOT
BRANCH   1   5
HETATM    5  C   UNK N   1      36.585  13.403  12.702  0.00  0.00     0.033 A 
HETATM    6  C   UNK N   1      37.277  12.250  12.243  0.00  0.00     0.019 A 
HETATM    7  C   UNK N   1      37.537  11.182  13.153  0.00  0.00     0.031 A 
HETATM    8  C   UNK N   1      37.079  11.323  14.475  0.00  0.00     0.043 A 
HETATM    9  C   UNK N   1      36.466  12.464  14.881  0.00  0.00     0.001 A 
HETATM   10  N   UNK N   1      37.060  10.408  15.475  0.00  0.00    -0.351 N 
HETATM   11  C   UNK N   1      36.222  13.497  14.047  0.00  0.00     0.031 A 
HETATM   12  C   UNK N   1      36.072  12.312  16.164  0.00  0.00    -0.008 A 
HETATM   13  C   UNK N   1      35.283  13.247  17.029  0.00  0.00     0.036 C 
HETATM   14  C   UNK N   1      36.417  11.034  16.498  0.00  0.00     0.108 A 
HETATM   15  C   UNK N   1      35.978  14.596  17.129  0.00  0.00     0.017 C 
HETATM   16  C   UNK N   1      35.103  12.698  18.462  0.00  0.00     0.132 C 
HETATM   17  N   UNK N   1      35.251  11.250  18.621  0.00  0.00    -0.355 N 
HETATM   18  C   UNK N   1      35.922  10.462  17.743  0.00  0.00     0.268 C 
HETATM   19  H   UNK N   1      34.841  10.824  19.408  0.00  0.00     0.162 HD
HETATM   20  O   UNK N   1      36.037   9.264  17.959  0.00  0.00    -0.266 OA
HETATM   21  H   UNK N   1      37.427   9.495  15.465  0.00  0.00     0.166 HD
ENDBRANCH   1   5
BRANCH   3  22
HETATM   22  C   UNK N   1      35.357  14.845   9.466  0.00  0.00     0.151 A 
HETATM   23  S   UNK N   1      35.405  14.415   7.884  0.00  0.00    -0.063 SA
HETATM   24  C   UNK N   1      34.826  15.850   7.263  0.00  0.00     0.088 A 
HETATM   25  C   UNK N   1      34.616  16.684   8.390  0.00  0.00     0.109 A 
HETATM   26  N   UNK N   1      34.892  16.098   9.591  0.00  0.00    -0.332 N 
ATOM     27  HN  UNK N   1      34.759  16.563  10.489  1.00  0.00     0.168 HD
BRANCH  25  28
HETATM   28  C   UNK N   1      34.248  18.125   8.373  0.00  0.00     0.268 C 
HETATM   29  O   UNK N   1      35.149  18.951   8.341  0.00  0.00    -0.266 OA
HETATM   30  N   UNK N   1      32.965  18.566   8.304  0.00  0.00    -0.354 N 
HETATM   31  H   UNK N   1      32.812  19.538   8.335  0.00  0.00     0.162 HD
BRANCH  30  32
HETATM   32  C   UNK N   1      31.809  17.709   8.188  0.00  0.00     0.153 C 
BRANCH  32  33
HETATM   33  C   UNK N   1      30.611  18.305   8.951  0.00  0.00     0.291 C 
BRANCH  33  34
HETATM   34  N   UNK N   1      29.352  18.295   8.208  0.00  0.00     0.081 N 
HETATM   35  C   UNK N   1      28.232  18.059   9.105  0.00  0.00     0.309 C 
HETATM   36  C   UNK N   1      29.384  17.247   7.200  0.00  0.00     0.309 C 
ENDBRANCH  33  34
ENDBRANCH  32  33
ENDBRANCH  30  32
ENDBRANCH  25  28
ENDBRANCH   3  22
TORSDOF 6
ENDMDL
MODEL 2
REMARK VINA RESULT:      -7.9      7.356     11.664
REMARK  6 active torsions:
REMARK  status: ('A' for Active; 'I' for Inactive)
REMARK    1  A    between atoms: C_1  and  C_15 
REMARK       I    between atoms: C_15  and  N_17 
REMARK    2  A    between atoms: N_17  and  C_18 
REMARK    3  A    between atoms: C_21  and  C_24 
REMARK       I    between atoms: C_24  and  N_25 
REMARK    4  A    between atoms: N_25  and  C_27 
REMARK    5  A    between atoms: C_27  and  C_28 
REMARK    6  A    between atoms: C_28  and  N_29 
ROOT
HETATM    1  C   UNK N   1      27.453  18.989   6.371  0.00  0.00     0.257 C 
HETATM    2  O   UNK N   1      27.429  20.145   5.978  0.00  0.00    -0.267 OA
HETATM    3  N   UNK N   1      26.535  18.074   5.985  0.00  0.00    -0.303 N 
HETATM    4  H   UNK N   1      26.715  17.184   6.365  0.00  0.00     0.171 HD
ENDROOT
BRANCH   1   5
HETATM    5  C   UNK N   1      28.472  18.467   7.295  0.00  0.00     0.033 A 
HETATM    6  C   UNK N   1      28.513  18.645   8.704  0.00  0.00     0.019 A 
HETATM    7  C   UNK N   1      29.668  18.224   9.429  0.00  0.00     0.031 A 
HETATM    8  C   UNK N   1      30.727  17.655   8.699  0.00  0.00     0.043 A 
HETATM    9  C   UNK N   1      30.622  17.459   7.360  0.00  0.00     0.001 A 
HETATM   10  N   UNK N   1      31.973  17.323   9.118  0.00  0.00    -0.351 N 
HETATM   11  C   UNK N   1      29.535  17.831   6.651  0.00  0.00     0.031 A 
HETATM   12  C   UNK N   1      31.792  16.964   6.901  0.00  0.00    -0.008 A 
HETATM   13  C   UNK N   1      32.205  16.663   5.492  0.00  0.00     0.036 C 
HETATM   14  C   UNK N   1      32.615  16.918   7.988  0.00  0.00     0.108 A 
HETATM   15  C   UNK N   1      31.238  15.681   4.850  0.00  0.00     0.017 C 
HETATM   16  C   UNK N   1      33.621  16.050   5.423  0.00  0.00     0.132 C 
HETATM   17  N   UNK N   1      34.494  16.309   6.570  0.00  0.00    -0.355 N 
HETATM   18  C   UNK N   1      34.035  16.652   7.800  0.00  0.00     0.268 C 
HETATM   19  H   UNK N   1      35.467  16.230   6.442  0.00  0.00     0.162 HD
HETATM   20  O   UNK N   1      34.821  16.818   8.723  0.00  0.00    -0.266 OA
HETATM   21  H   UNK N   1      32.332  17.365  10.032  0.00  0.00     0.166 HD
ENDBRANCH   1   5
BRANCH   3  22
HETATM   22  C   UNK N   1      25.398  18.083   5.183  0.00  0.00     0.151 A 
HETATM   23  S   UNK N   1      24.526  16.834   4.575  0.00  0.00    -0.063 SA
HETATM   24  C   UNK N   1      23.540  17.736   3.578  0.00  0.00     0.088 A 
HETATM   25  C   UNK N   1      23.966  19.077   3.751  0.00  0.00     0.109 A 
HETATM   26  N   UNK N   1      24.972  19.243   4.657  0.00  0.00    -0.332 N 
ATOM     27  HN  UNK N   1      25.360  20.152   4.909  1.00  0.00     0.168 HD
BRANCH  25  28
HETATM   28  C   UNK N   1      23.511  20.261   2.973  0.00  0.00     0.268 C 
HETATM   29  O   UNK N   1      24.346  20.892   2.341  0.00  0.00    -0.266 OA
HETATM   30  N   UNK N   1      22.206  20.622   2.860  0.00  0.00    -0.354 N 
HETATM   31  H   UNK N   1      22.000  21.442   2.356  0.00  0.00     0.162 HD
BRANCH  30  32
HETATM   32  C   UNK N   1      21.101  19.889   3.429  0.00  0.00     0.153 C 
BRANCH  32  33
HETATM   33  C   UNK N   1      20.060  19.547   2.346  0.00  0.00     0.291 C 
BRANCH  33  34
HETATM   34  N   UNK N   1      19.546  18.179   2.409  0.00  0.00     0.081 N 
HETATM   35  C   UNK N   1      19.904  17.557   3.674  0.00  0.00     0.309 C 
HETATM   36  C   UNK N   1      20.101  17.394   1.318  0.00  0.00     0.309 C 
ENDBRANCH  33  34
ENDBRANCH  32  33
ENDBRANCH  30  32
ENDBRANCH  25  28
ENDBRANCH   3  22
TORSDOF 6
ENDMDL
MODEL 3
REMARK VINA RESULT:      -7.9      2.446      4.113
REMARK  6 active torsions:
REMARK  status: ('A' for Active; 'I' for Inactive)
REMARK    1  A    between atoms: C_1  and  C_15 
REMARK       I    between atoms: C_15  and  N_17 
REMARK    2  A    between atoms: N_17  and  C_18 
REMARK    3  A    between atoms: C_21  and  C_24 
REMARK       I    between atoms: C_24  and  N_25 
REMARK    4  A    between atoms: N_25  and  C_27 
REMARK    5  A    between atoms: C_27  and  C_28 
REMARK    6  A    between atoms: C_28  and  N_29 
ROOT
HETATM    1  C   UNK N   1      34.872  12.514  14.885  0.00  0.00     0.257 C 
HETATM    2  O   UNK N   1      34.250  11.646  14.292  0.00  0.00    -0.267 OA
HETATM    3  N   UNK N   1      35.549  13.488  14.237  0.00  0.00    -0.303 N 
HETATM    4  H   UNK N   1      35.967  14.127  14.859  0.00  0.00     0.171 HD
ENDROOT
BRANCH   1   5
HETATM    5  C   UNK N   1      34.949  12.600  16.351  0.00  0.00     0.033 A 
HETATM    6  C   UNK N   1      34.839  13.775  17.141  0.00  0.00     0.019 A 
HETATM    7  C   UNK N   1      35.116  13.707  18.540  0.00  0.00     0.031 A 
HETATM    8  C   UNK N   1      35.500  12.463  19.070  0.00  0.00     0.043 A 
HETATM    9  C   UNK N   1      35.543  11.356  18.286  0.00  0.00     0.001 A 
HETATM   10  N   UNK N   1      35.960  12.168  20.311  0.00  0.00    -0.351 N 
HETATM   11  C   UNK N   1      35.269  11.387  16.965  0.00  0.00     0.031 A 
HETATM   12  C   UNK N   1      36.001  10.320  19.023  0.00  0.00    -0.008 A 
HETATM   13  C   UNK N   1      36.308   8.917  18.595  0.00  0.00     0.036 C 
HETATM   14  C   UNK N   1      36.280  10.847  20.250  0.00  0.00     0.108 A 
HETATM   15  C   UNK N   1      35.081   8.269  17.971  0.00  0.00     0.017 C 
HETATM   16  C   UNK N   1      36.758   8.036  19.782  0.00  0.00     0.132 C 
HETATM   17  N   UNK N   1      37.285   8.746  20.949  0.00  0.00    -0.355 N 
HETATM   18  C   UNK N   1      37.016  10.047  21.221  0.00  0.00     0.268 C 
HETATM   19  H   UNK N   1      37.866   8.251  21.571  0.00  0.00     0.162 HD
HETATM   20  O   UNK N   1      37.461  10.567  22.235  0.00  0.00    -0.266 OA
HETATM   21  H   UNK N   1      36.044  12.773  21.082  0.00  0.00     0.166 HD
ENDBRANCH   1   5
BRANCH   3  22
HETATM   22  C   UNK N   1      35.801  13.809  12.906  0.00  0.00     0.151 A 
HETATM   23  S   UNK N   1      36.916  13.200  11.868  0.00  0.00    -0.063 SA
HETATM   24  C   UNK N   1      36.668  14.295  10.635  0.00  0.00     0.088 A 
HETATM   25  C   UNK N   1      35.664  15.173  11.115  0.00  0.00     0.109 A 
HETATM   26  N   UNK N   1      35.187  14.869  12.356  0.00  0.00    -0.332 N 
ATOM     27  HN  UNK N   1      34.443  15.390  12.818  1.00  0.00     0.168 HD
BRANCH  25  28
HETATM   28  C   UNK N   1      35.187  16.421  10.459  0.00  0.00     0.268 C 
HETATM   29  O   UNK N   1      35.904  17.409  10.508  0.00  0.00    -0.266 OA
HETATM   30  N   UNK N   1      34.037  16.490   9.738  0.00  0.00    -0.354 N 
HETATM   31  H   UNK N   1      33.780  17.367   9.370  0.00  0.00     0.162 HD
BRANCH  30  32
HETATM   32  C   UNK N   1      33.167  15.370   9.473  0.00  0.00     0.153 C 
BRANCH  32  33
HETATM   33  C   UNK N   1      32.464  15.536   8.113  0.00  0.00     0.291 C 
BRANCH  33  34
HETATM   34  N   UNK N   1      31.900  16.865   7.880  0.00  0.00     0.081 N 
HETATM   35  C   UNK N   1      30.654  17.026   8.613  0.00  0.00     0.309 C 
HETATM   36  C   UNK N   1      31.645  17.049   6.460  0.00  0.00     0.309 C 
ENDBRANCH  33  34
ENDBRANCH  32  33
ENDBRANCH  30  32
ENDBRANCH  25  28
ENDBRANCH   3  22
TORSDOF 6
ENDMDL
MODEL 4
REMARK VINA RESULT:      -7.8      7.288     12.012
REMARK  6 active torsions:
REMARK  status: ('A' for Active; 'I' for Inactive)
REMARK    1  A    between atoms: C_1  and  C_15 
REMARK       I    between atoms: C_15  and  N_17 
REMARK    2  A    between atoms: N_17  and  C_18 
REMARK    3  A    between atoms: C_21  and  C_24 
REMARK       I    between atoms: C_24  and  N_25 
REMARK    4  A    between atoms: N_25  and  C_27 
REMARK    5  A    between atoms: C_27  and  C_28 
REMARK    6  A    between atoms: C_28  and  N_29 
ROOT
HETATM    1  C   UNK N   1      27.552  18.441   5.364  0.00  0.00     0.257 C 
HETATM    2  O   UNK N   1      27.993  18.635   4.242  0.00  0.00    -0.267 OA
HETATM    3  N   UNK N   1      26.227  18.448   5.631  0.00  0.00    -0.303 N 
HETATM    4  H   UNK N   1      26.037  18.242   6.575  0.00  0.00     0.171 HD
ENDROOT
BRANCH   1   5
HETATM    5  C   UNK N   1      28.401  18.177   6.536  0.00  0.00     0.033 A 
HETATM    6  C   UNK N   1      28.143  18.564   7.878  0.00  0.00     0.019 A 
HETATM    7  C   UNK N   1      29.157  18.385   8.867  0.00  0.00     0.031 A 
HETATM    8  C   UNK N   1      30.383  17.836   8.453  0.00  0.00     0.043 A 
HETATM    9  C   UNK N   1      30.567  17.434   7.169  0.00  0.00     0.001 A 
HETATM   10  N   UNK N   1      31.541  17.709   9.146  0.00  0.00    -0.351 N 
HETATM   11  C   UNK N   1      29.620  17.575   6.218  0.00  0.00     0.031 A 
HETATM   12  C   UNK N   1      31.842  17.010   7.026  0.00  0.00    -0.008 A 
HETATM   13  C   UNK N   1      32.555  16.553   5.790  0.00  0.00     0.036 C 
HETATM   14  C   UNK N   1      32.429  17.217   8.241  0.00  0.00     0.108 A 
HETATM   15  C   UNK N   1      31.819  15.385   5.150  0.00  0.00     0.017 C 
HETATM   16  C   UNK N   1      34.000  16.097   6.090  0.00  0.00     0.132 C 
HETATM   17  N   UNK N   1      34.598  16.618   7.321  0.00  0.00    -0.355 N 
HETATM   18  C   UNK N   1      33.874  17.085   8.368  0.00  0.00     0.268 C 
HETATM   19  H   UNK N   1      35.580  16.629   7.392  0.00  0.00     0.162 HD
HETATM   20  O   UNK N   1      34.441  17.471   9.382  0.00  0.00    -0.266 OA
HETATM   21  H   UNK N   1      31.703  17.925  10.092  0.00  0.00     0.166 HD
ENDBRANCH   1   5
BRANCH   3  22
HETATM   22  C   UNK N   1      25.066  18.676   4.899  0.00  0.00     0.151 A 
HETATM   23  S   UNK N   1      24.804  19.667   3.618  0.00  0.00    -0.063 SA
HETATM   24  C   UNK N   1      23.147  19.491   3.557  0.00  0.00     0.088 A 
HETATM   25  C   UNK N   1      22.827  18.617   4.626  0.00  0.00     0.109 A 
HETATM   26  N   UNK N   1      23.903  18.163   5.332  0.00  0.00    -0.332 N 
ATOM     27  HN  UNK N   1      23.831  17.505   6.107  1.00  0.00     0.168 HD
BRANCH  25  28
HETATM   28  C   UNK N   1      21.464  18.257   5.102  0.00  0.00     0.268 C 
HETATM   29  O   UNK N   1      21.002  18.874   6.050  0.00  0.00    -0.266 OA
HETATM   30  N   UNK N   1      20.677  17.339   4.482  0.00  0.00    -0.354 N 
HETATM   31  H   UNK N   1      19.803  17.137   4.889  0.00  0.00     0.162 HD
BRANCH  30  32
HETATM   32  C   UNK N   1      21.031  16.640   3.270  0.00  0.00     0.153 C 
BRANCH  32  33
HETATM   33  C   UNK N   1      20.322  17.265   2.054  0.00  0.00     0.291 C 
BRANCH  33  34
HETATM   34  N   UNK N   1      20.495  16.525   0.805  0.00  0.00     0.081 N 
HETATM   35  C   UNK N   1      19.219  16.373   0.122  0.00  0.00     0.309 C 
HETATM   36  C   UNK N   1      21.045  15.208   1.084  0.00  0.00     0.309 C 
ENDBRANCH  33  34
ENDBRANCH  32  33
ENDBRANCH  30  32
ENDBRANCH  25  28
ENDBRANCH   3  22
TORSDOF 6
ENDMDL
MODEL 5
REMARK VINA RESULT:      -7.7      5.765     13.983
REMARK  6 active torsions:
REMARK  status: ('A' for Active; 'I' for Inactive)
REMARK    1  A    between atoms: C_1  and  C_15 
REMARK       I    between atoms: C_15  and  N_17 
REMARK    2  A    between atoms: N_17  and  C_18 
REMARK    3  A    between atoms: C_21  and  C_24 
REMARK       I    between atoms: C_24  and  N_25 
REMARK    4  A    between atoms: N_25  and  C_27 
REMARK    5  A    between atoms: C_27  and  C_28 
REMARK    6  A    between atoms: C_28  and  N_29 
ROOT
HETATM    1  C   UNK N   1      27.860  17.628   6.006  0.00  0.00     0.257 C 
HETATM    2  O   UNK N   1      27.311  16.767   6.676  0.00  0.00    -0.267 OA
HETATM    3  N   UNK N   1      29.176  17.913   6.131  0.00  0.00    -0.303 N 
HETATM    4  H   UNK N   1      29.468  18.607   5.496  0.00  0.00     0.171 HD
ENDROOT
BRANCH   1   5
HETATM    5  C   UNK N   1      27.162  18.439   4.996  0.00  0.00     0.033 A 
HETATM    6  C   UNK N   1      27.690  19.547   4.282  0.00  0.00     0.019 A 
HETATM    7  C   UNK N   1      26.821  20.334   3.468  0.00  0.00     0.031 A 
HETATM    8  C   UNK N   1      25.463  19.973   3.423  0.00  0.00     0.043 A 
HETATM    9  C   UNK N   1      25.012  18.876   4.083  0.00  0.00     0.001 A 
HETATM   10  N   UNK N   1      24.420  20.634   2.863  0.00  0.00    -0.351 N 
HETATM   11  C   UNK N   1      25.814  18.103   4.846  0.00  0.00     0.031 A 
HETATM   12  C   UNK N   1      23.672  18.796   3.929  0.00  0.00    -0.008 A 
HETATM   13  C   UNK N   1      22.707  17.821   4.531  0.00  0.00     0.036 C 
HETATM   14  C   UNK N   1      23.327  19.900   3.205  0.00  0.00     0.108 A 
HETATM   15  C   UNK N   1      23.095  16.394   4.173  0.00  0.00     0.017 C 
HETATM   16  C   UNK N   1      21.262  18.058   4.037  0.00  0.00     0.132 C 
HETATM   17  N   UNK N   1      20.969  19.395   3.518  0.00  0.00    -0.355 N 
HETATM   18  C   UNK N   1      21.920  20.248   3.060  0.00  0.00     0.268 C 
HETATM   19  H   UNK N   1      20.031  19.692   3.499  0.00  0.00     0.162 HD
HETATM   20  O   UNK N   1      21.599  21.337   2.605  0.00  0.00    -0.266 OA
HETATM   21  H   UNK N   1      24.447  21.460   2.329  0.00  0.00     0.166 HD
ENDBRANCH   1   5
BRANCH   3  22
HETATM   22  C   UNK N   1      30.218  17.467   6.939  0.00  0.00     0.151 A 
HETATM   23  S   UNK N   1      30.304  17.333   8.571  0.00  0.00    -0.063 SA
HETATM   24  C   UNK N   1      31.929  16.970   8.663  0.00  0.00     0.088 A 
HETATM   25  C   UNK N   1      32.388  16.984   7.322  0.00  0.00     0.109 A 
HETATM   26  N   UNK N   1      31.422  17.235   6.391  0.00  0.00    -0.332 N 
ATOM     27  HN  UNK N   1      31.596  17.245   5.387  1.00  0.00     0.168 HD
BRANCH  25  28
HETATM   28  C   UNK N   1      33.799  16.870   6.864  0.00  0.00     0.268 C 
HETATM   29  O   UNK N   1      34.411  17.899   6.620  0.00  0.00    -0.266 OA
HETATM   30  N   UNK N   1      34.465  15.688   6.788  0.00  0.00    -0.354 N 
HETATM   31  H   UNK N   1      35.385  15.703   6.439  0.00  0.00     0.162 HD
BRANCH  30  32
HETATM   32  C   UNK N   1      33.917  14.412   7.183  0.00  0.00     0.153 C 
BRANCH  32  33
HETATM   33  C   UNK N   1      34.534  13.944   8.514  0.00  0.00     0.291 C 
BRANCH  33  34
HETATM   34  N   UNK N   1      35.326  14.959   9.207  0.00  0.00     0.081 N 
HETATM   35  C   UNK N   1      36.662  14.459   9.489  0.00  0.00     0.309 C 
HETATM   36  C   UNK N   1      34.678  15.320  10.457  0.00  0.00     0.309 C 
ENDBRANCH  33  34
ENDBRANCH  32  33
ENDBRANCH  30  32
ENDBRANCH  25  28
ENDBRANCH   3  22
TORSDOF 6
ENDMDL
MODEL 6
REMARK VINA RESULT:      -7.7      7.777     14.022
REMARK  6 active torsions:
REMARK  status: ('A' for Active; 'I' for Inactive)
REMARK    1  A    between atoms: C_1  and  C_15 
REMARK       I    between atoms: C_15  and  N_17 
REMARK    2  A    between atoms: N_17  and  C_18 
REMARK    3  A    between atoms: C_21  and  C_24 
REMARK       I    between atoms: C_24  and  N_25 
REMARK    4  A    between atoms: N_25  and  C_27 
REMARK    5  A    between atoms: C_27  and  C_28 
REMARK    6  A    between atoms: C_28  and  N_29 
ROOT
HETATM    1  C   UNK N   1      27.815  17.646   5.826  0.00  0.00     0.257 C 
HETATM    2  O   UNK N   1      27.285  16.791   6.519  0.00  0.00    -0.267 OA
HETATM    3  N   UNK N   1      29.140  17.907   5.887  0.00  0.00    -0.303 N 
HETATM    4  H   UNK N   1      29.413  18.598   5.242  0.00  0.00     0.171 HD
ENDROOT
BRANCH   1   5
HETATM    5  C   UNK N   1      27.082  18.474   4.856  0.00  0.00     0.033 A 
HETATM    6  C   UNK N   1      27.576  19.615   4.168  0.00  0.00     0.019 A 
HETATM    7  C   UNK N   1      26.676  20.409   3.396  0.00  0.00     0.031 A 
HETATM    8  C   UNK N   1      25.325  20.023   3.364  0.00  0.00     0.043 A 
HETATM    9  C   UNK N   1      24.908  18.896   3.996  0.00  0.00     0.001 A 
HETATM   10  N   UNK N   1      24.259  20.680   2.844  0.00  0.00    -0.351 N 
HETATM   11  C   UNK N   1      25.739  18.116   4.719  0.00  0.00     0.031 A 
HETATM   12  C   UNK N   1      23.567  18.795   3.864  0.00  0.00    -0.008 A 
HETATM   13  C   UNK N   1      22.632  17.782   4.452  0.00  0.00     0.036 C 
HETATM   14  C   UNK N   1      23.187  19.914   3.182  0.00  0.00     0.108 A 
HETATM   15  C   UNK N   1      23.041  16.376   4.042  0.00  0.00     0.017 C 
HETATM   16  C   UNK N   1      21.175  18.006   3.993  0.00  0.00     0.132 C 
HETATM   17  N   UNK N   1      20.846  19.353   3.522  0.00  0.00    -0.355 N 
HETATM   18  C   UNK N   1      21.771  20.238   3.074  0.00  0.00     0.268 C 
HETATM   19  H   UNK N   1      19.902  19.631   3.530  0.00  0.00     0.162 HD
HETATM   20  O   UNK N   1      21.420  21.335   2.660  0.00  0.00    -0.266 OA
HETATM   21  H   UNK N   1      24.261  21.523   2.337  0.00  0.00     0.166 HD
ENDBRANCH   1   5
BRANCH   3  22
HETATM   22  C   UNK N   1      30.213  17.438   6.640  0.00  0.00     0.151 A 
HETATM   23  S   UNK N   1      30.319  17.132   8.248  0.00  0.00    -0.063 SA
HETATM   24  C   UNK N   1      31.963  16.859   8.298  0.00  0.00     0.088 A 
HETATM   25  C   UNK N   1      32.411  17.047   6.966  0.00  0.00     0.109 A 
HETATM   26  N   UNK N   1      31.425  17.340   6.070  0.00  0.00    -0.332 N 
ATOM     27  HN  UNK N   1      31.590  17.471   5.073  1.00  0.00     0.168 HD
BRANCH  25  28
HETATM   28  C   UNK N   1      33.823  17.069   6.498  0.00  0.00     0.268 C 
HETATM   29  O   UNK N   1      34.520  18.023   6.810  0.00  0.00    -0.266 OA
HETATM   30  N   UNK N   1      34.398  16.043   5.817  0.00  0.00    -0.354 N 
HETATM   31  H   UNK N   1      35.327  16.159   5.513  0.00  0.00     0.162 HD
BRANCH  30  32
HETATM   32  C   UNK N   1      33.741  14.796   5.506  0.00  0.00     0.153 C 
BRANCH  32  33
HETATM   33  C   UNK N   1      33.212  14.805   4.060  0.00  0.00     0.291 C 
BRANCH  33  34
HETATM   34  N   UNK N   1      31.810  14.412   3.924  0.00  0.00     0.081 N 
HETATM   35  C   UNK N   1      31.320  13.833   5.165  0.00  0.00     0.309 C 
HETATM   36  C   UNK N   1      31.673  13.436   2.855  0.00  0.00     0.309 C 
ENDBRANCH  33  34
ENDBRANCH  32  33
ENDBRANCH  30  32
ENDBRANCH  25  28
ENDBRANCH   3  22
TORSDOF 6
ENDMDL
MODEL 7
REMARK VINA RESULT:      -7.6      2.028      2.592
REMARK  6 active torsions:
REMARK  status: ('A' for Active; 'I' for Inactive)
REMARK    1  A    between atoms: C_1  and  C_15 
REMARK       I    between atoms: C_15  and  N_17 
REMARK    2  A    between atoms: N_17  and  C_18 
REMARK    3  A    between atoms: C_21  and  C_24 
REMARK       I    between atoms: C_24  and  N_25 
REMARK    4  A    between atoms: N_25  and  C_27 
REMARK    5  A    between atoms: C_27  and  C_28 
REMARK    6  A    between atoms: C_28  and  N_29 
ROOT
HETATM    1  C   UNK N   1      34.629  10.999  12.300  0.00  0.00     0.257 C 
HETATM    2  O   UNK N   1      33.879  10.383  11.558  0.00  0.00    -0.267 OA
HETATM    3  N   UNK N   1      35.139  12.208  11.971  0.00  0.00    -0.303 N 
HETATM    4  H   UNK N   1      35.696  12.584  12.690  0.00  0.00     0.171 HD
ENDROOT
BRANCH   1   5
HETATM    5  C   UNK N   1      35.053  10.505  13.619  0.00  0.00     0.033 A 
HETATM    6  C   UNK N   1      35.221   9.148  14.005  0.00  0.00     0.019 A 
HETATM    7  C   UNK N   1      35.465   8.835  15.375  0.00  0.00     0.031 A 
HETATM    8  C   UNK N   1      35.516   9.901  16.290  0.00  0.00     0.043 A 
HETATM    9  C   UNK N   1      35.400  11.186  15.868  0.00  0.00     0.001 A 
HETATM   10  N   UNK N   1      35.577   9.865  17.644  0.00  0.00    -0.351 N 
HETATM   11  C   UNK N   1      35.187  11.513  14.576  0.00  0.00     0.031 A 
HETATM   12  C   UNK N   1      35.418  12.001  16.946  0.00  0.00    -0.008 A 
HETATM   13  C   UNK N   1      35.235  13.487  17.013  0.00  0.00     0.036 C 
HETATM   14  C   UNK N   1      35.495  11.168  18.025  0.00  0.00     0.108 A 
HETATM   15  C   UNK N   1      36.262  14.191  16.139  0.00  0.00     0.017 C 
HETATM   16  C   UNK N   1      35.390  14.024  18.453  0.00  0.00     0.132 C 
HETATM   17  N   UNK N   1      35.184  13.053  19.530  0.00  0.00    -0.355 N 
HETATM   18  C   UNK N   1      35.296  11.711  19.362  0.00  0.00     0.268 C 
HETATM   19  H   UNK N   1      34.953  13.392  20.425  0.00  0.00     0.162 HD
HETATM   20  O   UNK N   1      35.147  10.959  20.316  0.00  0.00    -0.266 OA
HETATM   21  H   UNK N   1      35.661   9.073  18.222  0.00  0.00     0.166 HD
ENDBRANCH   1   5
BRANCH   3  22
HETATM   22  C   UNK N   1      35.069  13.049  10.865  0.00  0.00     0.151 A 
HETATM   23  S   UNK N   1      35.449  12.762   9.295  0.00  0.00    -0.063 SA
HETATM   24  C   UNK N   1      35.299  14.332   8.756  0.00  0.00     0.088 A 
HETATM   25  C   UNK N   1      34.951  15.087   9.904  0.00  0.00     0.109 A 
HETATM   26  N   UNK N   1      34.806  14.354  11.046  0.00  0.00    -0.332 N 
ATOM     27  HN  UNK N   1      34.528  14.754  11.941  1.00  0.00     0.168 HD
BRANCH  25  28
HETATM   28  C   UNK N   1      34.849  16.569   9.997  0.00  0.00     0.268 C 
HETATM   29  O   UNK N   1      35.758  17.177  10.540  0.00  0.00    -0.266 OA
HETATM   30  N   UNK N   1      33.839  17.282   9.433  0.00  0.00    -0.354 N 
HETATM   31  H   UNK N   1      33.832  18.256   9.576  0.00  0.00     0.162 HD
BRANCH  30  32
HETATM   32  C   UNK N   1      32.777  16.713   8.639  0.00  0.00     0.153 C 
BRANCH  32  33
HETATM   33  C   UNK N   1      31.634  17.728   8.450  0.00  0.00     0.291 C 
BRANCH  33  34
HETATM   34  N   UNK N   1      30.342  17.133   8.112  0.00  0.00     0.081 N 
HETATM   35  C   UNK N   1      30.359  16.614   6.753  0.00  0.00     0.309 C 
HETATM   36  C   UNK N   1      29.293  18.133   8.227  0.00  0.00     0.309 C 
ENDBRANCH  33  34
ENDBRANCH  32  33
ENDBRANCH  30  32
ENDBRANCH  25  28
ENDBRANCH   3  22
TORSDOF 6
ENDMDL
MODEL 8
REMARK VINA RESULT:      -7.4      7.881     11.625
REMARK  6 active torsions:
REMARK  status: ('A' for Active; 'I' for Inactive)
REMARK    1  A    between atoms: C_1  and  C_15 
REMARK       I    between atoms: C_15  and  N_17 
REMARK    2  A    between atoms: N_17  and  C_18 
REMARK    3  A    between atoms: C_21  and  C_24 
REMARK       I    between atoms: C_24  and  N_25 
REMARK    4  A    between atoms: N_25  and  C_27 
REMARK    5  A    between atoms: C_27  and  C_28 
REMARK    6  A    between atoms: C_28  and  N_29 
ROOT
HETATM    1  C   UNK N   1      26.975  17.163   6.436  0.00  0.00     0.257 C 
HETATM    2  O   UNK N   1      26.787  17.827   5.429  0.00  0.00    -0.267 OA
HETATM    3  N   UNK N   1      26.147  16.159   6.805  0.00  0.00    -0.303 N 
HETATM    4  H   UNK N   1      26.457  15.703   7.621  0.00  0.00     0.171 HD
ENDROOT
BRANCH   1   5
HETATM    5  C   UNK N   1      28.110  17.373   7.348  0.00  0.00     0.033 A 
HETATM    6  C   UNK N   1      28.076  18.019   8.613  0.00  0.00     0.019 A 
HETATM    7  C   UNK N   1      29.301  18.298   9.290  0.00  0.00     0.031 A 
HETATM    8  C   UNK N   1      30.498  17.924   8.655  0.00  0.00     0.043 A 
HETATM    9  C   UNK N   1      30.480  17.265   7.468  0.00  0.00     0.001 A 
HETATM   10  N   UNK N   1      31.777  18.210   9.003  0.00  0.00    -0.351 N 
HETATM   11  C   UNK N   1      29.336  16.972   6.814  0.00  0.00     0.031 A 
HETATM   12  C   UNK N   1      31.753  17.087   7.051  0.00  0.00    -0.008 A 
HETATM   13  C   UNK N   1      32.255  16.494   5.770  0.00  0.00     0.036 C 
HETATM   14  C   UNK N   1      32.529  17.701   7.990  0.00  0.00     0.108 A 
HETATM   15  C   UNK N   1      31.722  15.080   5.591  0.00  0.00     0.017 C 
HETATM   16  C   UNK N   1      33.797  16.429   5.728  0.00  0.00     0.132 C 
HETATM   17  N   UNK N   1      34.506  17.347   6.621  0.00  0.00    -0.355 N 
HETATM   18  C   UNK N   1      33.947  17.901   7.726  0.00  0.00     0.268 C 
HETATM   19  H   UNK N   1      35.441  17.574   6.409  0.00  0.00     0.162 HD
HETATM   20  O   UNK N   1      34.612  18.632   8.449  0.00  0.00    -0.266 OA
HETATM   21  H   UNK N   1      32.091  18.681   9.808  0.00  0.00     0.166 HD
ENDBRANCH   1   5
BRANCH   3  22
HETATM   22  C   UNK N   1      24.964  15.615   6.316  0.00  0.00     0.151 A 
HETATM   23  S   UNK N   1      24.044  14.390   6.904  0.00  0.00    -0.063 SA
HETATM   24  C   UNK N   1      23.010  14.266   5.602  0.00  0.00     0.088 A 
HETATM   25  C   UNK N   1      23.459  15.242   4.676  0.00  0.00     0.109 A 
HETATM   26  N   UNK N   1      24.520  15.986   5.104  0.00  0.00    -0.332 N 
ATOM     27  HN  UNK N   1      24.931  16.745   4.561  1.00  0.00     0.168 HD
BRANCH  25  28
HETATM   28  C   UNK N   1      22.971  15.438   3.285  0.00  0.00     0.268 C 
HETATM   29  O   UNK N   1      23.425  14.720   2.407  0.00  0.00    -0.266 OA
HETATM   30  N   UNK N   1      21.986  16.316   2.958  0.00  0.00    -0.354 N 
HETATM   31  H   UNK N   1      21.753  16.407   2.006  0.00  0.00     0.162 HD
BRANCH  30  32
HETATM   32  C   UNK N   1      21.259  17.123   3.908  0.00  0.00     0.153 C 
BRANCH  32  33
HETATM   33  C   UNK N   1      21.747  18.583   3.867  0.00  0.00     0.291 C 
BRANCH  33  34
HETATM   34  N   UNK N   1      20.722  19.556   3.492  0.00  0.00     0.081 N 
HETATM   35  C   UNK N   1      19.636  18.902   2.778  0.00  0.00     0.309 C 
HETATM   36  C   UNK N   1      21.303  20.581   2.640  0.00  0.00     0.309 C 
ENDBRANCH  33  34
ENDBRANCH  32  33
ENDBRANCH  30  32
ENDBRANCH  25  28
ENDBRANCH   3  22
TORSDOF 6
ENDMDL
MODEL 9
REMARK VINA RESULT:      -7.4      7.914     12.181
REMARK  6 active torsions:
REMARK  status: ('A' for Active; 'I' for Inactive)
REMARK    1  A    between atoms: C_1  and  C_15 
REMARK       I    between atoms: C_15  and  N_17 
REMARK    2  A    between atoms: N_17  and  C_18 
REMARK    3  A    between atoms: C_21  and  C_24 
REMARK       I    between atoms: C_24  and  N_25 
REMARK    4  A    between atoms: N_25  and  C_27 
REMARK    5  A    between atoms: C_27  and  C_28 
REMARK    6  A    between atoms: C_28  and  N_29 
ROOT
HETATM    1  C   UNK N   1      26.424  16.028   6.151  0.00  0.00     0.257 C 
HETATM    2  O   UNK N   1      26.351  15.645   7.308  0.00  0.00    -0.267 OA
HETATM    3  N   UNK N   1      25.345  16.088   5.339  0.00  0.00    -0.303 N 
HETATM    4  H   UNK N   1      25.569  16.449   4.450  0.00  0.00     0.171 HD
ENDROOT
BRANCH   1   5
HETATM    5  C   UNK N   1      27.679  16.465   5.519  0.00  0.00     0.033 A 
HETATM    6  C   UNK N   1      27.969  16.483   4.128  0.00  0.00     0.019 A 
HETATM    7  C   UNK N   1      29.299  16.768   3.694  0.00  0.00     0.031 A 
HETATM    8  C   UNK N   1      30.271  17.009   4.681  0.00  0.00     0.043 A 
HETATM    9  C   UNK N   1      29.936  17.030   5.996  0.00  0.00     0.001 A 
HETATM   10  N   UNK N   1      31.613  17.146   4.544  0.00  0.00    -0.351 N 
HETATM   11  C   UNK N   1      28.684  16.783   6.435  0.00  0.00     0.031 A 
HETATM   12  C   UNK N   1      31.058  17.216   6.726  0.00  0.00    -0.008 A 
HETATM   13  C   UNK N   1      31.228  17.227   8.215  0.00  0.00     0.036 C 
HETATM   14  C   UNK N   1      32.076  17.252   5.819  0.00  0.00     0.108 A 
HETATM   15  C   UNK N   1      30.330  18.280   8.847  0.00  0.00     0.017 C 
HETATM   16  C   UNK N   1      32.684  17.535   8.629  0.00  0.00     0.132 C 
HETATM   17  N   UNK N   1      33.711  17.274   7.619  0.00  0.00    -0.355 N 
HETATM   18  C   UNK N   1      33.455  17.205   6.288  0.00  0.00     0.268 C 
HETATM   19  H   UNK N   1      34.638  17.142   7.921  0.00  0.00     0.162 HD
HETATM   20  O   UNK N   1      34.369  17.021   5.496  0.00  0.00    -0.266 OA
HETATM   21  H   UNK N   1      32.134  17.164   3.710  0.00  0.00     0.166 HD
ENDBRANCH   1   5
BRANCH   3  22
HETATM   22  C   UNK N   1      23.997  15.764   5.451  0.00  0.00     0.151 A 
HETATM   23  S   UNK N   1      22.960  15.163   4.331  0.00  0.00    -0.063 SA
HETATM   24  C   UNK N   1      21.567  15.318   5.235  0.00  0.00     0.088 A 
HETATM   25  C   UNK N   1      21.984  15.892   6.462  0.00  0.00     0.109 A 
HETATM   26  N   UNK N   1      23.328  16.103   6.565  0.00  0.00    -0.332 N 
ATOM     27  HN  UNK N   1      23.777  16.480   7.399  1.00  0.00     0.168 HD
BRANCH  25  28
HETATM   28  C   UNK N   1      21.105  16.375   7.561  0.00  0.00     0.268 C 
HETATM   29  O   UNK N   1      20.749  17.544   7.544  0.00  0.00    -0.266 OA
HETATM   30  N   UNK N   1      20.610  15.562   8.531  0.00  0.00    -0.354 N 
HETATM   31  H   UNK N   1      20.067  15.975   9.241  0.00  0.00     0.162 HD
BRANCH  30  32
HETATM   32  C   UNK N   1      20.826  14.136   8.595  0.00  0.00     0.153 C 
BRANCH  32  33
HETATM   33  C   UNK N   1      21.778  13.781   9.753  0.00  0.00     0.291 C 
BRANCH  33  34
HETATM   34  N   UNK N   1      21.674  12.400  10.222  0.00  0.00     0.081 N 
HETATM   35  C   UNK N   1      20.662  12.289  11.261  0.00  0.00     0.309 C 
HETATM   36  C   UNK N   1      22.954  11.963  10.756  0.00  0.00     0.309 C 
ENDBRANCH  33  34
ENDBRANCH  32  33
ENDBRANCH  30  32
ENDBRANCH  25  28
ENDBRANCH   3  22
TORSDOF 6
ENDMDL
