MODEL 1
REMARK VINA RESULT:      -6.0      0.000      0.000
REMARK  4 active torsions:
REMARK  status: ('A' for Active; 'I' for Inactive)
REMARK    1  A    between atoms: O_2  and  C_3 
REMARK    2  A    between atoms: C_8  and  C_9 
REMARK    3  A    between atoms: C_13  and  C_14 
REMARK    4  A    between atoms: C_14  and  O_16 
ROOT
HETATM    1  C   UNK N   1      26.251  24.322  -6.012  0.00  0.00     0.089 A 
HETATM    2  O   UNK N   1      25.255  23.592  -6.423  0.00  0.00    -0.303 OA
HETATM    3  C   UNK N   1      27.437  23.806  -6.527  0.00  0.00     0.041 A 
HETATM    4  C   UNK N   1      27.074  22.702  -7.285  0.00  0.00     0.047 A 
HETATM    5  C   UNK N   1      25.702  22.625  -7.178  0.00  0.00     0.149 A 
ENDROOT
BRANCH   1   6
HETATM    6  C   UNK N   1      26.146  25.522  -5.128  0.00  0.00     0.031 A 
HETATM    7  C   UNK N   1      26.420  25.583  -3.706  0.00  0.00     0.081 A 
HETATM    8  C   UNK N   1      26.260  26.813  -3.053  0.00  0.00     0.038 A 
HETATM    9  C   UNK N   1      25.852  27.958  -3.725  0.00  0.00     0.003 A 
HETATM   10  C   UNK N   1      25.588  27.905  -5.084  0.00  0.00     0.001 A 
HETATM   11  C   UNK N   1      25.734  26.704  -5.772  0.00  0.00     0.017 A 
BRANCH   7  12
HETATM   12  O   UNK N   1      26.826  24.567  -2.894  0.00  0.00    -0.355 OA
HETATM   13  C   UNK N   1      27.997  23.859  -2.856  0.00  0.00     0.210 C 
ENDBRANCH   7  12
ENDBRANCH   1   6
BRANCH   5  14
HETATM   14  C   UNK N   1      24.820  21.629  -7.796  0.00  0.00     0.201 C 
HETATM   15  O   UNK N   1      25.247  20.515  -8.051  0.00  0.00    -0.645 OA
BRANCH  14  16
HETATM   16  O   UNK N   1      23.541  21.935  -8.083  0.00  0.00    -0.771 OA
HETATM   17  H   UNK N   1      23.335  22.756  -8.488  0.00  0.00     0.167 HD
ENDBRANCH  14  16
ENDBRANCH   5  14
TORSDOF 4
ENDMDL
MODEL 2
REMARK VINA RESULT:      -5.9     22.513     25.529
REMARK  4 active torsions:
REMARK  status: ('A' for Active; 'I' for Inactive)
REMARK    1  A    between atoms: O_2  and  C_3 
REMARK    2  A    between atoms: C_8  and  C_9 
REMARK    3  A    between atoms: C_13  and  C_14 
REMARK    4  A    between atoms: C_14  and  O_16 
ROOT
HETATM    1  C   UNK N   1      35.676  13.408  14.817  0.00  0.00     0.089 A 
HETATM    2  O   UNK N   1      34.895  13.220  13.793  0.00  0.00    -0.303 OA
HETATM    3  C   UNK N   1      36.630  14.368  14.493  0.00  0.00     0.041 A 
HETATM    4  C   UNK N   1      36.360  14.745  13.185  0.00  0.00     0.047 A 
HETATM    5  C   UNK N   1      35.268  13.993  12.809  0.00  0.00     0.149 A 
ENDROOT
BRANCH   1   6
HETATM    6  C   UNK N   1      35.571  12.708  16.133  0.00  0.00     0.031 A 
HETATM    7  C   UNK N   1      35.741  11.290  16.381  0.00  0.00     0.081 A 
HETATM    8  C   UNK N   1      35.601  10.826  17.696  0.00  0.00     0.038 A 
HETATM    9  C   UNK N   1      35.307  11.678  18.753  0.00  0.00     0.003 A 
HETATM   10  C   UNK N   1      35.143  13.035  18.521  0.00  0.00     0.001 A 
HETATM   11  C   UNK N   1      35.274  13.538  17.230  0.00  0.00     0.017 A 
BRANCH   7  12
HETATM   12  O   UNK N   1      36.029  10.316  15.472  0.00  0.00    -0.355 OA
HETATM   13  C   UNK N   1      35.228   9.645  14.587  0.00  0.00     0.210 C 
ENDBRANCH   7  12
ENDBRANCH   1   6
BRANCH   5  14
HETATM   14  C   UNK N   1      34.583  14.013  11.512  0.00  0.00     0.201 C 
HETATM   15  O   UNK N   1      34.970  13.288  10.611  0.00  0.00    -0.645 OA
BRANCH  14  16
HETATM   16  O   UNK N   1      33.529  14.826  11.310  0.00  0.00    -0.771 OA
HETATM   17  H   UNK N   1      32.888  14.939  11.984  0.00  0.00     0.167 HD
ENDBRANCH  14  16
ENDBRANCH   5  14
TORSDOF 4
ENDMDL
MODEL 3
REMARK VINA RESULT:      -5.8     16.618     18.697
REMARK  4 active torsions:
REMARK  status: ('A' for Active; 'I' for Inactive)
REMARK    1  A    between atoms: O_2  and  C_3 
REMARK    2  A    between atoms: C_8  and  C_9 
REMARK    3  A    between atoms: C_13  and  C_14 
REMARK    4  A    between atoms: C_14  and  O_16 
ROOT
HETATM    1  C   UNK N   1      21.156  14.746   8.728  0.00  0.00     0.089 A 
HETATM    2  O   UNK N   1      20.850  15.914   9.216  0.00  0.00    -0.303 OA
HETATM    3  C   UNK N   1      20.689  14.662   7.420  0.00  0.00     0.041 A 
HETATM    4  C   UNK N   1      20.074  15.878   7.157  0.00  0.00     0.047 A 
HETATM    5  C   UNK N   1      20.210  16.610   8.317  0.00  0.00     0.149 A 
ENDROOT
BRANCH   1   6
HETATM    6  C   UNK N   1      21.891  13.665   9.452  0.00  0.00     0.031 A 
HETATM    7  C   UNK N   1      23.248  13.218   9.204  0.00  0.00     0.081 A 
HETATM    8  C   UNK N   1      23.759  12.183   9.998  0.00  0.00     0.038 A 
HETATM    9  C   UNK N   1      23.010  11.582  11.001  0.00  0.00     0.003 A 
HETATM   10  C   UNK N   1      21.712  12.005  11.242  0.00  0.00     0.001 A 
HETATM   11  C   UNK N   1      21.165  13.031  10.477  0.00  0.00     0.017 A 
BRANCH   7  12
HETATM   12  O   UNK N   1      24.121  13.690   8.269  0.00  0.00    -0.355 OA
HETATM   13  C   UNK N   1      24.561  13.144   7.094  0.00  0.00     0.210 C 
ENDBRANCH   7  12
ENDBRANCH   1   6
BRANCH   5  14
HETATM   14  C   UNK N   1      19.729  17.974   8.564  0.00  0.00     0.201 C 
HETATM   15  O   UNK N   1      20.379  18.928   8.171  0.00  0.00    -0.645 OA
BRANCH  14  16
HETATM   16  O   UNK N   1      18.573  18.180   9.223  0.00  0.00    -0.771 OA
HETATM   17  H   UNK N   1      18.316  17.599   9.913  0.00  0.00     0.167 HD
ENDBRANCH  14  16
ENDBRANCH   5  14
TORSDOF 4
ENDMDL
MODEL 4
REMARK VINA RESULT:      -5.8     15.128     16.364
REMARK  4 active torsions:
REMARK  status: ('A' for Active; 'I' for Inactive)
REMARK    1  A    between atoms: O_2  and  C_3 
REMARK    2  A    between atoms: C_8  and  C_9 
REMARK    3  A    between atoms: C_13  and  C_14 
REMARK    4  A    between atoms: C_14  and  O_16 
ROOT
HETATM    1  C   UNK N   1      31.685  17.260   6.773  0.00  0.00     0.089 A 
HETATM    2  O   UNK N   1      32.342  17.603   7.843  0.00  0.00    -0.303 OA
HETATM    3  C   UNK N   1      32.565  17.204   5.696  0.00  0.00     0.041 A 
HETATM    4  C   UNK N   1      33.810  17.541   6.206  0.00  0.00     0.047 A 
HETATM    5  C   UNK N   1      33.601  17.778   7.547  0.00  0.00     0.149 A 
ENDROOT
BRANCH   1   6
HETATM    6  C   UNK N   1      30.220  16.973   6.705  0.00  0.00     0.031 A 
HETATM    7  C   UNK N   1      29.169  17.624   7.461  0.00  0.00     0.081 A 
HETATM    8  C   UNK N   1      27.847  17.207   7.252  0.00  0.00     0.038 A 
HETATM    9  C   UNK N   1      27.524  16.200   6.352  0.00  0.00     0.003 A 
HETATM   10  C   UNK N   1      28.525  15.573   5.627  0.00  0.00     0.001 A 
HETATM   11  C   UNK N   1      29.851  15.956   5.804  0.00  0.00     0.017 A 
BRANCH   7  12
HETATM   12  O   UNK N   1      29.302  18.623   8.379  0.00  0.00    -0.355 OA
HETATM   13  C   UNK N   1      29.560  18.581   9.722  0.00  0.00     0.210 C 
ENDBRANCH   7  12
ENDBRANCH   1   6
BRANCH   5  14
HETATM   14  C   UNK N   1      34.604  18.170   8.544  0.00  0.00     0.201 C 
HETATM   15  O   UNK N   1      35.255  19.188   8.382  0.00  0.00    -0.645 OA
BRANCH  14  16
HETATM   16  O   UNK N   1      34.809  17.413   9.638  0.00  0.00    -0.771 OA
HETATM   17  H   UNK N   1      35.139  17.804  10.424  0.00  0.00     0.167 HD
ENDBRANCH  14  16
ENDBRANCH   5  14
TORSDOF 4
ENDMDL
MODEL 5
REMARK VINA RESULT:      -5.8      3.419      4.881
REMARK  4 active torsions:
REMARK  status: ('A' for Active; 'I' for Inactive)
REMARK    1  A    between atoms: O_2  and  C_3 
REMARK    2  A    between atoms: C_8  and  C_9 
REMARK    3  A    between atoms: C_13  and  C_14 
REMARK    4  A    between atoms: C_14  and  O_16 
ROOT
HETATM    1  C   UNK N   1      28.437  25.675  -4.066  0.00  0.00     0.089 A 
HETATM    2  O   UNK N   1      28.567  24.484  -3.557  0.00  0.00    -0.303 OA
HETATM    3  C   UNK N   1      29.685  26.290  -4.112  0.00  0.00     0.041 A 
HETATM    4  C   UNK N   1      30.581  25.370  -3.588  0.00  0.00     0.047 A 
HETATM    5  C   UNK N   1      29.821  24.268  -3.261  0.00  0.00     0.149 A 
ENDROOT
BRANCH   1   6
HETATM    6  C   UNK N   1      27.156  26.289  -4.529  0.00  0.00     0.031 A 
HETATM    7  C   UNK N   1      26.429  27.370  -3.894  0.00  0.00     0.081 A 
HETATM    8  C   UNK N   1      25.238  27.806  -4.489  0.00  0.00     0.038 A 
HETATM    9  C   UNK N   1      24.743  27.237  -5.656  0.00  0.00     0.003 A 
HETATM   10  C   UNK N   1      25.434  26.203  -6.267  0.00  0.00     0.001 A 
HETATM   11  C   UNK N   1      26.621  25.738  -5.710  0.00  0.00     0.017 A 
BRANCH   7  12
HETATM   12  O   UNK N   1      26.764  28.041  -2.756  0.00  0.00    -0.355 OA
HETATM   13  C   UNK N   1      27.600  29.105  -2.552  0.00  0.00     0.210 C 
ENDBRANCH   7  12
ENDBRANCH   1   6
BRANCH   5  14
HETATM   14  C   UNK N   1      30.291  23.011  -2.669  0.00  0.00     0.201 C 
HETATM   15  O   UNK N   1      30.420  22.021  -3.369  0.00  0.00    -0.645 OA
BRANCH  14  16
HETATM   16  O   UNK N   1      30.581  22.943  -1.356  0.00  0.00    -0.771 OA
HETATM   17  H   UNK N   1      31.405  23.259  -1.041  0.00  0.00     0.167 HD
ENDBRANCH  14  16
ENDBRANCH   5  14
TORSDOF 4
ENDMDL
MODEL 6
REMARK VINA RESULT:      -5.7      2.263      4.753
REMARK  4 active torsions:
REMARK  status: ('A' for Active; 'I' for Inactive)
REMARK    1  A    between atoms: O_2  and  C_3 
REMARK    2  A    between atoms: C_8  and  C_9 
REMARK    3  A    between atoms: C_13  and  C_14 
REMARK    4  A    between atoms: C_14  and  O_16 
ROOT
HETATM    1  C   UNK N   1      28.127  24.322  -4.498  0.00  0.00     0.089 A 
HETATM    2  O   UNK N   1      28.714  24.044  -3.370  0.00  0.00    -0.303 OA
HETATM    3  C   UNK N   1      28.634  23.493  -5.493  0.00  0.00     0.041 A 
HETATM    4  C   UNK N   1      29.580  22.689  -4.873  0.00  0.00     0.047 A 
HETATM    5  C   UNK N   1      29.580  23.084  -3.552  0.00  0.00     0.149 A 
ENDROOT
BRANCH   1   6
HETATM    6  C   UNK N   1      27.074  25.364  -4.698  0.00  0.00     0.031 A 
HETATM    7  C   UNK N   1      25.919  25.279  -5.569  0.00  0.00     0.081 A 
HETATM    8  C   UNK N   1      25.043  26.371  -5.616  0.00  0.00     0.038 A 
HETATM    9  C   UNK N   1      25.250  27.518  -4.861  0.00  0.00     0.003 A 
HETATM   10  C   UNK N   1      26.354  27.605  -4.026  0.00  0.00     0.001 A 
HETATM   11  C   UNK N   1      27.249  26.543  -3.949  0.00  0.00     0.017 A 
BRANCH   7  12
HETATM   12  O   UNK N   1      25.561  24.239  -6.375  0.00  0.00    -0.355 OA
HETATM   13  C   UNK N   1      25.723  24.048  -7.721  0.00  0.00     0.210 C 
ENDBRANCH   7  12
ENDBRANCH   1   6
BRANCH   5  14
HETATM   14  C   UNK N   1      30.406  22.544  -2.466  0.00  0.00     0.201 C 
HETATM   15  O   UNK N   1      30.385  23.074  -1.368  0.00  0.00    -0.645 OA
BRANCH  14  16
HETATM   16  O   UNK N   1      31.186  21.468  -2.674  0.00  0.00    -0.771 OA
HETATM   17  H   UNK N   1      31.453  21.242  -3.544  0.00  0.00     0.167 HD
ENDBRANCH  14  16
ENDBRANCH   5  14
TORSDOF 4
ENDMDL
MODEL 7
REMARK VINA RESULT:      -5.5     15.255     17.607
REMARK  4 active torsions:
REMARK  status: ('A' for Active; 'I' for Inactive)
REMARK    1  A    between atoms: O_2  and  C_3 
REMARK    2  A    between atoms: C_8  and  C_9 
REMARK    3  A    between atoms: C_13  and  C_14 
REMARK    4  A    between atoms: C_14  and  O_16 
ROOT
HETATM    1  C   UNK N   1      32.510  17.509   8.466  0.00  0.00     0.089 A 
HETATM    2  O   UNK N   1      33.116  16.622   9.202  0.00  0.00    -0.303 OA
HETATM    3  C   UNK N   1      33.455  18.379   7.930  0.00  0.00     0.041 A 
HETATM    4  C   UNK N   1      34.684  17.944   8.404  0.00  0.00     0.047 A 
HETATM    5  C   UNK N   1      34.402  16.847   9.189  0.00  0.00     0.149 A 
ENDROOT
BRANCH   1   6
HETATM    6  C   UNK N   1      31.037  17.586   8.231  0.00  0.00     0.031 A 
HETATM    7  C   UNK N   1      30.290  16.944   7.168  0.00  0.00     0.081 A 
HETATM    8  C   UNK N   1      28.903  17.141   7.120  0.00  0.00     0.038 A 
HETATM    9  C   UNK N   1      28.235  17.924   8.052  0.00  0.00     0.003 A 
HETATM   10  C   UNK N   1      28.945  18.540   9.071  0.00  0.00     0.001 A 
HETATM   11  C   UNK N   1      30.323  18.371   9.157  0.00  0.00     0.017 A 
BRANCH   7  12
HETATM   12  O   UNK N   1      30.777  16.147   6.174  0.00  0.00    -0.355 OA
HETATM   13  C   UNK N   1      31.231  14.856   6.199  0.00  0.00     0.210 C 
ENDBRANCH   7  12
ENDBRANCH   1   6
BRANCH   5  14
HETATM   14  C   UNK N   1      35.360  16.015   9.926  0.00  0.00     0.201 C 
HETATM   15  O   UNK N   1      35.262  14.800   9.889  0.00  0.00    -0.645 OA
BRANCH  14  16
HETATM   16  O   UNK N   1      36.347  16.584  10.643  0.00  0.00    -0.771 OA
HETATM   17  H   UNK N   1      37.175  16.764  10.242  0.00  0.00     0.167 HD
ENDBRANCH  14  16
ENDBRANCH   5  14
TORSDOF 4
ENDMDL
MODEL 8
REMARK VINA RESULT:      -5.5     23.736     26.626
REMARK  4 active torsions:
REMARK  status: ('A' for Active; 'I' for Inactive)
REMARK    1  A    between atoms: O_2  and  C_3 
REMARK    2  A    between atoms: C_8  and  C_9 
REMARK    3  A    between atoms: C_13  and  C_14 
REMARK    4  A    between atoms: C_14  and  O_16 
ROOT
HETATM    1  C   UNK N   1      34.743  11.646  15.519  0.00  0.00     0.089 A 
HETATM    2  O   UNK N   1      35.117  12.468  14.582  0.00  0.00    -0.303 OA
HETATM    3  C   UNK N   1      34.048  10.586  14.944  0.00  0.00     0.041 A 
HETATM    4  C   UNK N   1      34.033  10.837  13.580  0.00  0.00     0.047 A 
HETATM    5  C   UNK N   1      34.715  12.023  13.422  0.00  0.00     0.149 A 
ENDROOT
BRANCH   1   6
HETATM    6  C   UNK N   1      35.014  11.808  16.979  0.00  0.00     0.031 A 
HETATM    7  C   UNK N   1      35.338  10.760  17.927  0.00  0.00     0.081 A 
HETATM    8  C   UNK N   1      35.559  11.119  19.263  0.00  0.00     0.038 A 
HETATM    9  C   UNK N   1      35.476  12.436  19.697  0.00  0.00     0.003 A 
HETATM   10  C   UNK N   1      35.166  13.442  18.795  0.00  0.00     0.001 A 
HETATM   11  C   UNK N   1      34.940  13.129  17.459  0.00  0.00     0.017 A 
BRANCH   7  12
HETATM   12  O   UNK N   1      35.461   9.424  17.679  0.00  0.00    -0.355 OA
HETATM   13  C   UNK N   1      36.497   8.698  17.158  0.00  0.00     0.210 C 
ENDBRANCH   7  12
ENDBRANCH   1   6
BRANCH   5  14
HETATM   14  C   UNK N   1      34.983  12.731  12.165  0.00  0.00     0.201 C 
HETATM   15  O   UNK N   1      35.836  12.310  11.402  0.00  0.00    -0.645 OA
BRANCH  14  16
HETATM   16  O   UNK N   1      34.293  13.843  11.848  0.00  0.00    -0.771 OA
HETATM   17  H   UNK N   1      33.382  13.907  12.063  0.00  0.00     0.167 HD
ENDBRANCH  14  16
ENDBRANCH   5  14
TORSDOF 4
ENDMDL
MODEL 9
REMARK VINA RESULT:      -5.5     16.828     18.881
REMARK  4 active torsions:
REMARK  status: ('A' for Active; 'I' for Inactive)
REMARK    1  A    between atoms: O_2  and  C_3 
REMARK    2  A    between atoms: C_8  and  C_9 
REMARK    3  A    between atoms: C_13  and  C_14 
REMARK    4  A    between atoms: C_14  and  O_16 
ROOT
HETATM    1  C   UNK N   1      20.795  14.891   8.668  0.00  0.00     0.089 A 
HETATM    2  O   UNK N   1      19.644  15.191   9.198  0.00  0.00    -0.303 OA
HETATM    3  C   UNK N   1      21.185  15.919   7.814  0.00  0.00     0.041 A 
HETATM    4  C   UNK N   1      20.173  16.866   7.873  0.00  0.00     0.047 A 
HETATM    5  C   UNK N   1      19.245  16.351   8.752  0.00  0.00     0.149 A 
ENDROOT
BRANCH   1   6
HETATM    6  C   UNK N   1      21.576  13.645   8.929  0.00  0.00     0.031 A 
HETATM    7  C   UNK N   1      22.121  12.735   7.941  0.00  0.00     0.081 A 
HETATM    8  C   UNK N   1      22.829  11.613   8.393  0.00  0.00     0.038 A 
HETATM    9  C   UNK N   1      23.019  11.354   9.744  0.00  0.00     0.003 A 
HETATM   10  C   UNK N   1      22.500  12.220  10.693  0.00  0.00     0.001 A 
HETATM   11  C   UNK N   1      21.790  13.347  10.288  0.00  0.00     0.017 A 
BRANCH   7  12
HETATM   12  O   UNK N   1      22.032  12.831   6.584  0.00  0.00    -0.355 OA
HETATM   13  C   UNK N   1      21.003  12.545   5.728  0.00  0.00     0.210 C 
ENDBRANCH   7  12
ENDBRANCH   1   6
BRANCH   5  14
HETATM   14  C   UNK N   1      17.979  16.967   9.165  0.00  0.00     0.201 C 
HETATM   15  O   UNK N   1      16.938  16.341   9.060  0.00  0.00    -0.645 OA
BRANCH  14  16
HETATM   16  O   UNK N   1      17.960  18.219   9.660  0.00  0.00    -0.771 OA
HETATM   17  H   UNK N   1      18.681  18.797   9.503  0.00  0.00     0.167 HD
ENDBRANCH  14  16
ENDBRANCH   5  14
TORSDOF 4
ENDMDL
