REMARK  4 active torsions:
REMARK  status: ('A' for Active; 'I' for Inactive)
REMARK    1  A    between atoms: O_2  and  C_3 
REMARK    2  A    between atoms: C_8  and  C_9 
REMARK    3  A    between atoms: C_13  and  C_14 
REMARK    4  A    between atoms: C_14  and  O_16 
ROOT
HETATM    1  C   UNK N   1      -0.978  -0.621   0.000  0.00  0.00     0.089 A 
HETATM    2  O   UNK N   1       0.068  -1.396  -0.000  0.00  0.00    -0.303 OA
HETATM    3  C   UNK N   1      -2.127  -1.406   0.000  0.00  0.00     0.041 A 
HETATM    4  C   UNK N   1      -1.688  -2.722   0.000  0.00  0.00     0.047 A 
HETATM    5  C   UNK N   1      -0.312  -2.645   0.000  0.00  0.00     0.149 A 
ENDROOT
BRANCH   1   6
HETATM    6  C   UNK N   1      -0.955   0.873  -0.000  0.00  0.00     0.031 A 
HETATM    7  C   UNK N   1       0.217   1.726  -0.000  0.00  0.00     0.081 A 
HETATM    8  C   UNK N   1       0.026   3.114  -0.000  0.00  0.00     0.038 A 
HETATM    9  C   UNK N   1      -1.240   3.686  -0.000  0.00  0.00     0.003 A 
HETATM   10  C   UNK N   1      -2.364   2.875  -0.000  0.00  0.00     0.001 A 
HETATM   11  C   UNK N   1      -2.220   1.491  -0.000  0.00  0.00     0.017 A 
BRANCH   7  12
HETATM   12  O   UNK N   1       1.525   1.341   0.000  0.00  0.00    -0.355 OA
HETATM   13  C   UNK N   1       2.096   0.097   0.000  0.00  0.00     0.210 C 
ENDBRANCH   7  12
ENDBRANCH   1   6
BRANCH   5  14
HETATM   14  C   UNK N   1       0.638  -3.763  -0.000  0.00  0.00     0.201 C 
HETATM   15  O   UNK N   1       1.837  -3.540  -0.000  0.00  0.00    -0.645 OA
BRANCH  14  16
HETATM   16  O   UNK N   1       0.195  -5.034  -0.000  0.00  0.00    -0.771 OA
HETATM   17  H   UNK N   1      -0.726  -5.210   0.000  0.00  0.00     0.167 HD
ENDBRANCH  14  16
ENDBRANCH   5  14
TORSDOF 4
