MODEL 1
REMARK VINA RESULT:      -6.5      0.000      0.000
REMARK  4 active torsions:
REMARK  status: ('A' for Active; 'I' for Inactive)
REMARK    1  A    between atoms: O_1  and  C_2 
REMARK    2  A    between atoms: C_2  and  C_4 
REMARK    3  A    between atoms: C_8  and  C_9 
REMARK    4  A    between atoms: C_14  and  N_15 
ROOT
HETATM    1  C   UNK N   1      29.509  17.860   7.867  0.00  0.00     0.149 A 
HETATM    2  O   UNK N   1      30.482  17.543   8.688  0.00  0.00    -0.303 OA
HETATM    3  C   UNK N   1      29.799  17.426   6.597  0.00  0.00     0.047 A 
HETATM    4  C   UNK N   1      31.027  16.815   6.693  0.00  0.00     0.041 A 
HETATM    5  C   UNK N   1      31.419  16.908   8.013  0.00  0.00     0.089 A 
ENDROOT
BRANCH   5   6
HETATM    6  C   UNK N   1      32.676  16.405   8.658  0.00  0.00     0.031 A 
HETATM    7  C   UNK N   1      32.491  15.269   9.470  0.00  0.00     0.017 A 
HETATM    8  C   UNK N   1      33.545  14.664  10.147  0.00  0.00     0.001 A 
HETATM    9  C   UNK N   1      34.826  15.178  10.035  0.00  0.00     0.002 A 
HETATM   10  C   UNK N   1      35.054  16.297   9.244  0.00  0.00     0.037 A 
HETATM   11  C   UNK N   1      34.020  16.944   8.539  0.00  0.00     0.115 A 
BRANCH  11  12
HETATM   12  N   UNK N   1      34.415  18.090   7.764  0.00  0.00    -0.115 N 
HETATM   13  O   UNK N   1      34.901  19.148   8.377  0.00  0.00    -0.532 OA
HETATM   14  O   UNK N   1      34.320  18.122   6.580  0.00  0.00    -0.532 OA
ENDBRANCH  11  12
ENDBRANCH   5   6
BRANCH   1  15
HETATM   15  C   UNK N   1      28.283  18.575   8.237  0.00  0.00     0.201 C 
HETATM   16  O   UNK N   1      27.885  19.507   7.560  0.00  0.00    -0.645 OA
BRANCH  15  17
HETATM   17  O   UNK N   1      27.594  18.201   9.332  0.00  0.00    -0.771 OA
HETATM   18  H   UNK N   1      27.400  18.827  10.001  0.00  0.00     0.167 HD
ENDBRANCH  15  17
ENDBRANCH   1  15
TORSDOF 4
ENDMDL
MODEL 2
REMARK VINA RESULT:      -6.4     15.372     17.238
REMARK  4 active torsions:
REMARK  status: ('A' for Active; 'I' for Inactive)
REMARK    1  A    between atoms: O_1  and  C_2 
REMARK    2  A    between atoms: C_2  and  C_4 
REMARK    3  A    between atoms: C_8  and  C_9 
REMARK    4  A    between atoms: C_14  and  N_15 
ROOT
HETATM    1  C   UNK N   1      25.692  22.703  -7.373  0.00  0.00     0.149 A 
HETATM    2  O   UNK N   1      25.267  23.610  -6.526  0.00  0.00    -0.303 OA
HETATM    3  C   UNK N   1      27.036  22.857  -7.602  0.00  0.00     0.047 A 
HETATM    4  C   UNK N   1      27.415  23.931  -6.831  0.00  0.00     0.041 A 
HETATM    5  C   UNK N   1      26.283  24.373  -6.174  0.00  0.00     0.089 A 
ENDROOT
BRANCH   5   6
HETATM    6  C   UNK N   1      26.140  25.513  -5.212  0.00  0.00     0.031 A 
HETATM    7  C   UNK N   1      25.404  26.603  -5.716  0.00  0.00     0.017 A 
HETATM    8  C   UNK N   1      25.169  27.749  -4.963  0.00  0.00     0.001 A 
HETATM    9  C   UNK N   1      25.666  27.844  -3.674  0.00  0.00     0.002 A 
HETATM   10  C   UNK N   1      26.398  26.792  -3.136  0.00  0.00     0.037 A 
HETATM   11  C   UNK N   1      26.662  25.612  -3.859  0.00  0.00     0.115 A 
BRANCH  11  12
HETATM   12  N   UNK N   1      27.433  24.615  -3.166  0.00  0.00    -0.115 N 
HETATM   13  O   UNK N   1      28.706  24.464  -3.461  0.00  0.00    -0.532 OA
HETATM   14  O   UNK N   1      26.963  23.915  -2.329  0.00  0.00    -0.532 OA
ENDBRANCH  11  12
ENDBRANCH   5   6
BRANCH   1  15
HETATM   15  C   UNK N   1      24.861  21.666  -7.995  0.00  0.00     0.201 C 
HETATM   16  O   UNK N   1      25.359  20.617  -8.365  0.00  0.00    -0.645 OA
BRANCH  15  17
HETATM   17  O   UNK N   1      23.540  21.875  -8.158  0.00  0.00    -0.771 OA
HETATM   18  H   UNK N   1      23.038  22.264  -7.470  0.00  0.00     0.167 HD
ENDBRANCH  15  17
ENDBRANCH   1  15
TORSDOF 4
ENDMDL
MODEL 3
REMARK VINA RESULT:      -6.0      2.285      3.734
REMARK  4 active torsions:
REMARK  status: ('A' for Active; 'I' for Inactive)
REMARK    1  A    between atoms: O_1  and  C_2 
REMARK    2  A    between atoms: C_2  and  C_4 
REMARK    3  A    between atoms: C_8  and  C_9 
REMARK    4  A    between atoms: C_14  and  N_15 
ROOT
HETATM    1  C   UNK N   1      29.401  17.724   8.424  0.00  0.00     0.149 A 
HETATM    2  O   UNK N   1      29.652  17.422   7.172  0.00  0.00    -0.303 OA
HETATM    3  C   UNK N   1      30.573  17.910   9.112  0.00  0.00     0.047 A 
HETATM    4  C   UNK N   1      31.573  17.701   8.192  0.00  0.00     0.041 A 
HETATM    5  C   UNK N   1      30.958  17.399   6.993  0.00  0.00     0.089 A 
ENDROOT
BRANCH   5   6
HETATM    6  C   UNK N   1      31.585  17.085   5.668  0.00  0.00     0.031 A 
HETATM    7  C   UNK N   1      30.668  17.005   4.602  0.00  0.00     0.017 A 
HETATM    8  C   UNK N   1      31.069  16.723   3.300  0.00  0.00     0.001 A 
HETATM    9  C   UNK N   1      32.409  16.510   3.020  0.00  0.00     0.002 A 
HETATM   10  C   UNK N   1      33.349  16.580   4.041  0.00  0.00     0.037 A 
HETATM   11  C   UNK N   1      32.991  16.862   5.374  0.00  0.00     0.115 A 
BRANCH  11  12
HETATM   12  N   UNK N   1      34.077  16.900   6.317  0.00  0.00    -0.115 N 
HETATM   13  O   UNK N   1      34.563  18.063   6.696  0.00  0.00    -0.532 OA
HETATM   14  O   UNK N   1      34.558  15.915   6.773  0.00  0.00    -0.532 OA
ENDBRANCH  11  12
ENDBRANCH   5   6
BRANCH   1  15
HETATM   15  C   UNK N   1      28.064  17.847   9.016  0.00  0.00     0.201 C 
HETATM   16  O   UNK N   1      27.582  16.921   9.646  0.00  0.00    -0.645 OA
BRANCH  15  17
HETATM   17  O   UNK N   1      27.366  18.988   8.862  0.00  0.00    -0.771 OA
HETATM   18  H   UNK N   1      26.802  19.289   9.547  0.00  0.00     0.167 HD
ENDBRANCH  15  17
ENDBRANCH   1  15
TORSDOF 4
ENDMDL
MODEL 4
REMARK VINA RESULT:      -6.0      3.236      6.000
REMARK  4 active torsions:
REMARK  status: ('A' for Active; 'I' for Inactive)
REMARK    1  A    between atoms: O_1  and  C_2 
REMARK    2  A    between atoms: C_2  and  C_4 
REMARK    3  A    between atoms: C_8  and  C_9 
REMARK    4  A    between atoms: C_14  and  N_15 
ROOT
HETATM    1  C   UNK N   1      35.404  14.265  11.740  0.00  0.00     0.149 A 
HETATM    2  O   UNK N   1      34.481  15.077  11.282  0.00  0.00    -0.303 OA
HETATM    3  C   UNK N   1      36.118  13.723  10.701  0.00  0.00     0.047 A 
HETATM    4  C   UNK N   1      35.568  14.261   9.562  0.00  0.00     0.041 A 
HETATM    5  C   UNK N   1      34.549  15.101   9.966  0.00  0.00     0.089 A 
ENDROOT
BRANCH   5   6
HETATM    6  C   UNK N   1      33.629  15.934   9.126  0.00  0.00     0.031 A 
HETATM    7  C   UNK N   1      32.462  15.264   8.712  0.00  0.00     0.017 A 
HETATM    8  C   UNK N   1      31.493  15.880   7.926  0.00  0.00     0.001 A 
HETATM    9  C   UNK N   1      31.661  17.195   7.526  0.00  0.00     0.002 A 
HETATM   10  C   UNK N   1      32.798  17.895   7.911  0.00  0.00     0.037 A 
HETATM   11  C   UNK N   1      33.805  17.314   8.706  0.00  0.00     0.115 A 
BRANCH  11  12
HETATM   12  N   UNK N   1      34.921  18.167   9.022  0.00  0.00    -0.115 N 
HETATM   13  O   UNK N   1      35.666  17.893  10.071  0.00  0.00    -0.532 OA
HETATM   14  O   UNK N   1      35.199  19.118   8.368  0.00  0.00    -0.532 OA
ENDBRANCH  11  12
ENDBRANCH   5   6
BRANCH   1  15
HETATM   15  C   UNK N   1      35.649  13.969  13.156  0.00  0.00     0.201 C 
HETATM   16  O   UNK N   1      34.786  13.433  13.831  0.00  0.00    -0.645 OA
BRANCH  15  17
HETATM   17  O   UNK N   1      36.832  14.291  13.713  0.00  0.00    -0.771 OA
HETATM   18  H   UNK N   1      37.233  15.115  13.518  0.00  0.00     0.167 HD
ENDBRANCH  15  17
ENDBRANCH   1  15
TORSDOF 4
ENDMDL
MODEL 5
REMARK VINA RESULT:      -6.0     13.870     16.399
REMARK  4 active torsions:
REMARK  status: ('A' for Active; 'I' for Inactive)
REMARK    1  A    between atoms: O_1  and  C_2 
REMARK    2  A    between atoms: C_2  and  C_4 
REMARK    3  A    between atoms: C_8  and  C_9 
REMARK    4  A    between atoms: C_14  and  N_15 
ROOT
HETATM    1  C   UNK N   1      29.580  23.213  -3.472  0.00  0.00     0.149 A 
HETATM    2  O   UNK N   1      28.693  24.172  -3.350  0.00  0.00    -0.303 OA
HETATM    3  C   UNK N   1      29.608  22.751  -4.764  0.00  0.00     0.047 A 
HETATM    4  C   UNK N   1      28.670  23.498  -5.437  0.00  0.00     0.041 A 
HETATM    5  C   UNK N   1      28.121  24.373  -4.521  0.00  0.00     0.089 A 
ENDROOT
BRANCH   5   6
HETATM    6  C   UNK N   1      27.055  25.406  -4.730  0.00  0.00     0.031 A 
HETATM    7  C   UNK N   1      27.140  26.506  -3.855  0.00  0.00     0.017 A 
HETATM    8  C   UNK N   1      26.236  27.562  -3.902  0.00  0.00     0.001 A 
HETATM    9  C   UNK N   1      25.210  27.553  -4.833  0.00  0.00     0.002 A 
HETATM   10  C   UNK N   1      25.088  26.487  -5.717  0.00  0.00     0.037 A 
HETATM   11  C   UNK N   1      25.979  25.396  -5.707  0.00  0.00     0.115 A 
BRANCH  11  12
HETATM   12  N   UNK N   1      25.721  24.371  -6.683  0.00  0.00    -0.115 N 
HETATM   13  O   UNK N   1      25.221  23.219  -6.293  0.00  0.00    -0.532 OA
HETATM   14  O   UNK N   1      25.944  24.524  -7.840  0.00  0.00    -0.532 OA
ENDBRANCH  11  12
ENDBRANCH   5   6
BRANCH   1  15
HETATM   15  C   UNK N   1      30.427  22.697  -2.391  0.00  0.00     0.201 C 
HETATM   16  O   UNK N   1      30.279  23.096  -1.248  0.00  0.00    -0.645 OA
BRANCH  15  17
HETATM   17  O   UNK N   1      31.374  21.779  -2.661  0.00  0.00    -0.771 OA
HETATM   18  H   UNK N   1      31.324  21.271  -3.448  0.00  0.00     0.167 HD
ENDBRANCH  15  17
ENDBRANCH   1  15
TORSDOF 4
ENDMDL
MODEL 6
REMARK VINA RESULT:      -6.0      9.968     11.519
REMARK  4 active torsions:
REMARK  status: ('A' for Active; 'I' for Inactive)
REMARK    1  A    between atoms: O_1  and  C_2 
REMARK    2  A    between atoms: C_2  and  C_4 
REMARK    3  A    between atoms: C_8  and  C_9 
REMARK    4  A    between atoms: C_14  and  N_15 
ROOT
HETATM    1  C   UNK N   1      22.664  12.616  10.976  0.00  0.00     0.149 A 
HETATM    2  O   UNK N   1      23.055  13.411  10.009  0.00  0.00    -0.303 OA
HETATM    3  C   UNK N   1      21.325  12.341  10.854  0.00  0.00     0.047 A 
HETATM    4  C   UNK N   1      20.914  13.028   9.736  0.00  0.00     0.041 A 
HETATM    5  C   UNK N   1      22.022  13.683   9.237  0.00  0.00     0.089 A 
ENDROOT
BRANCH   5   6
HETATM    6  C   UNK N   1      22.126  14.570   8.033  0.00  0.00     0.031 A 
HETATM    7  C   UNK N   1      23.150  14.206   7.137  0.00  0.00     0.017 A 
HETATM    8  C   UNK N   1      23.395  14.914   5.965  0.00  0.00     0.001 A 
HETATM    9  C   UNK N   1      22.620  16.017   5.648  0.00  0.00     0.002 A 
HETATM   10  C   UNK N   1      21.598  16.412   6.504  0.00  0.00     0.037 A 
HETATM   11  C   UNK N   1      21.312  15.727   7.701  0.00  0.00     0.115 A 
BRANCH  11  12
HETATM   12  N   UNK N   1      20.225  16.257   8.479  0.00  0.00    -0.115 N 
HETATM   13  O   UNK N   1      20.334  17.457   9.007  0.00  0.00    -0.532 OA
HETATM   14  O   UNK N   1      19.221  15.651   8.667  0.00  0.00    -0.532 OA
ENDBRANCH  11  12
ENDBRANCH   5   6
BRANCH   1  15
HETATM   15  C   UNK N   1      23.523  12.088  12.042  0.00  0.00     0.201 C 
HETATM   16  O   UNK N   1      23.032  11.640  13.064  0.00  0.00    -0.645 OA
BRANCH  15  17
HETATM   17  O   UNK N   1      24.861  12.098  11.891  0.00  0.00    -0.771 OA
HETATM   18  H   UNK N   1      25.343  12.890  12.027  0.00  0.00     0.167 HD
ENDBRANCH  15  17
ENDBRANCH   1  15
TORSDOF 4
ENDMDL
MODEL 7
REMARK VINA RESULT:      -5.8     10.292     11.738
REMARK  4 active torsions:
REMARK  status: ('A' for Active; 'I' for Inactive)
REMARK    1  A    between atoms: O_1  and  C_2 
REMARK    2  A    between atoms: C_2  and  C_4 
REMARK    3  A    between atoms: C_8  and  C_9 
REMARK    4  A    between atoms: C_14  and  N_15 
ROOT
HETATM    1  C   UNK N   1      20.921  19.345   2.633  0.00  0.00     0.149 A 
HETATM    2  O   UNK N   1      21.721  18.686   3.439  0.00  0.00    -0.303 OA
HETATM    3  C   UNK N   1      19.703  18.717   2.554  0.00  0.00     0.047 A 
HETATM    4  C   UNK N   1      19.807  17.618   3.373  0.00  0.00     0.041 A 
HETATM    5  C   UNK N   1      21.080  17.634   3.907  0.00  0.00     0.089 A 
ENDROOT
BRANCH   5   6
HETATM    6  C   UNK N   1      21.711  16.664   4.861  0.00  0.00     0.031 A 
HETATM    7  C   UNK N   1      22.564  15.726   4.247  0.00  0.00     0.017 A 
HETATM    8  C   UNK N   1      23.236  14.750   4.976  0.00  0.00     0.001 A 
HETATM    9  C   UNK N   1      23.078  14.679   6.350  0.00  0.00     0.002 A 
HETATM   10  C   UNK N   1      22.246  15.586   6.997  0.00  0.00     0.037 A 
HETATM   11  C   UNK N   1      21.545  16.591   6.303  0.00  0.00     0.115 A 
BRANCH  11  12
HETATM   12  N   UNK N   1      20.724  17.452   7.112  0.00  0.00    -0.115 N 
HETATM   13  O   UNK N   1      20.981  18.742   7.148  0.00  0.00    -0.532 OA
HETATM   14  O   UNK N   1      19.814  17.043   7.757  0.00  0.00    -0.532 OA
ENDBRANCH  11  12
ENDBRANCH   5   6
BRANCH   1  15
HETATM   15  C   UNK N   1      21.266  20.575   1.912  0.00  0.00     0.201 C 
HETATM   16  O   UNK N   1      21.279  20.592   0.693  0.00  0.00    -0.645 OA
BRANCH  15  17
HETATM   17  O   UNK N   1      21.571  21.691   2.601  0.00  0.00    -0.771 OA
HETATM   18  H   UNK N   1      22.452  21.845   2.881  0.00  0.00     0.167 HD
ENDBRANCH  15  17
ENDBRANCH   1  15
TORSDOF 4
ENDMDL
MODEL 8
REMARK VINA RESULT:      -5.8      2.437      5.803
REMARK  4 active torsions:
REMARK  status: ('A' for Active; 'I' for Inactive)
REMARK    1  A    between atoms: O_1  and  C_2 
REMARK    2  A    between atoms: C_2  and  C_4 
REMARK    3  A    between atoms: C_8  and  C_9 
REMARK    4  A    between atoms: C_14  and  N_15 
ROOT
HETATM    1  C   UNK N   1      33.295  16.146   9.181  0.00  0.00     0.149 A 
HETATM    2  O   UNK N   1      32.089  16.066   8.671  0.00  0.00    -0.303 OA
HETATM    3  C   UNK N   1      33.882  17.336   8.828  0.00  0.00     0.047 A 
HETATM    4  C   UNK N   1      32.947  17.989   8.060  0.00  0.00     0.041 A 
HETATM    5  C   UNK N   1      31.842  17.165   7.986  0.00  0.00     0.089 A 
ENDROOT
BRANCH   5   6
HETATM    6  C   UNK N   1      30.544  17.396   7.273  0.00  0.00     0.031 A 
HETATM    7  C   UNK N   1      30.624  17.261   5.873  0.00  0.00     0.017 A 
HETATM    8  C   UNK N   1      29.519  17.439   5.047  0.00  0.00     0.001 A 
HETATM    9  C   UNK N   1      28.289  17.760   5.598  0.00  0.00     0.002 A 
HETATM   10  C   UNK N   1      28.164  17.903   6.974  0.00  0.00     0.037 A 
HETATM   11  C   UNK N   1      29.254  17.733   7.850  0.00  0.00     0.115 A 
BRANCH  11  12
HETATM   12  N   UNK N   1      28.965  17.914   9.248  0.00  0.00    -0.115 N 
HETATM   13  O   UNK N   1      28.024  17.188   9.813  0.00  0.00    -0.532 OA
HETATM   14  O   UNK N   1      29.547  18.700   9.922  0.00  0.00    -0.532 OA
ENDBRANCH  11  12
ENDBRANCH   5   6
BRANCH   1  15
HETATM   15  C   UNK N   1      33.938  15.120  10.009  0.00  0.00     0.201 C 
HETATM   16  O   UNK N   1      34.903  14.505   9.590  0.00  0.00    -0.645 OA
BRANCH  15  17
HETATM   17  O   UNK N   1      33.458  14.856  11.239  0.00  0.00    -0.771 OA
HETATM   18  H   UNK N   1      33.594  15.466  11.937  0.00  0.00     0.167 HD
ENDBRANCH  15  17
ENDBRANCH   1  15
TORSDOF 4
ENDMDL
MODEL 9
REMARK VINA RESULT:      -5.8      9.785     11.396
REMARK  4 active torsions:
REMARK  status: ('A' for Active; 'I' for Inactive)
REMARK    1  A    between atoms: O_1  and  C_2 
REMARK    2  A    between atoms: C_2  and  C_4 
REMARK    3  A    between atoms: C_8  and  C_9 
REMARK    4  A    between atoms: C_14  and  N_15 
ROOT
HETATM    1  C   UNK N   1      22.300  12.584  11.173  0.00  0.00     0.149 A 
HETATM    2  O   UNK N   1      22.585  13.495  10.274  0.00  0.00    -0.303 OA
HETATM    3  C   UNK N   1      20.952  12.330  11.183  0.00  0.00     0.047 A 
HETATM    4  C   UNK N   1      20.420  13.155  10.220  0.00  0.00     0.041 A 
HETATM    5  C   UNK N   1      21.470  13.865   9.675  0.00  0.00     0.089 A 
ENDROOT
BRANCH   5   6
HETATM    6  C   UNK N   1      21.443  14.899   8.589  0.00  0.00     0.031 A 
HETATM    7  C   UNK N   1      20.483  15.911   8.782  0.00  0.00     0.017 A 
HETATM    8  C   UNK N   1      20.314  16.953   7.876  0.00  0.00     0.001 A 
HETATM    9  C   UNK N   1      21.105  17.018   6.741  0.00  0.00     0.002 A 
HETATM   10  C   UNK N   1      22.066  16.040   6.511  0.00  0.00     0.037 A 
HETATM   11  C   UNK N   1      22.273  14.966   7.398  0.00  0.00     0.115 A 
BRANCH  11  12
HETATM   12  N   UNK N   1      23.304  14.036   7.022  0.00  0.00    -0.115 N 
HETATM   13  O   UNK N   1      24.533  14.226   7.451  0.00  0.00    -0.532 OA
HETATM   14  O   UNK N   1      23.089  13.093   6.332  0.00  0.00    -0.532 OA
ENDBRANCH  11  12
ENDBRANCH   5   6
BRANCH   1  15
HETATM   15  C   UNK N   1      23.273  11.922  12.050  0.00  0.00     0.201 C 
HETATM   16  O   UNK N   1      24.462  11.945  11.778  0.00  0.00    -0.645 OA
BRANCH  15  17
HETATM   17  O   UNK N   1      22.851  11.286  13.159  0.00  0.00    -0.771 OA
HETATM   18  H   UNK N   1      23.473  10.983  13.791  0.00  0.00     0.167 HD
ENDBRANCH  15  17
ENDBRANCH   1  15
TORSDOF 4
ENDMDL
