MODEL 1
REMARK VINA RESULT:      -8.3      0.000      0.000
REMARK  11 active torsions:
REMARK  status: ('A' for Active; 'I' for Inactive)
REMARK    1  A    between atoms: C_6  and  C_7 
REMARK    2  A    between atoms: C_12  and  C_13 
REMARK    3  A    between atoms: C_18  and  C_19 
REMARK    4  A    between atoms: C_19  and  C_20 
REMARK    5  A    between atoms: C_20  and  O_29 
REMARK    6  A    between atoms: C_20  and  P_25 
REMARK    7  A    between atoms: C_20  and  P_21 
REMARK    8  A    between atoms: P_21  and  O_22 
REMARK    9  A    between atoms: P_21  and  O_24 
REMARK   10  A    between atoms: P_25  and  O_28 
REMARK   11  A    between atoms: P_25  and  O_27 
ROOT
HETATM    1  C   UNK N   1      35.602  12.921  11.498  0.00  0.00    -0.025 A 
HETATM    2  C   UNK N   1      35.641  14.157  10.842  0.00  0.00     0.019 A 
HETATM    3  C   UNK N   1      35.563  11.743  10.735  0.00  0.00     0.012 A 
HETATM    4  C   UNK N   1      35.585  11.813   9.337  0.00  0.00     0.001 A 
HETATM    5  C   UNK N   1      35.564  13.059   8.699  0.00  0.00     0.007 A 
HETATM    6  C   UNK N   1      35.594  14.235   9.454  0.00  0.00    -0.053 A 
ENDROOT
BRANCH   6   7
HETATM    7  C   UNK N   1      35.404  15.552   8.763  0.00  0.00     0.102 C 
BRANCH   7   8
HETATM    8  C   UNK N   1      34.158  16.397   9.132  0.00  0.00     0.256 C 
BRANCH   8   9
HETATM    9  O   UNK N   1      34.251  16.806  10.463  0.00  0.00    -0.368 OA
HETATM   10  H   UNK N   1      33.919  16.747  11.371  0.00  0.00     0.212 HD
ENDBRANCH   8   9
BRANCH   8  11
HETATM   11  P   UNK N   1      34.180  17.896   8.032  0.00  0.00     0.284 P 
HETATM   12  O   UNK N   1      32.826  18.652   8.069  0.00  0.00    -0.651 OA
BRANCH  11  13
HETATM   13  O   UNK N   1      35.352  19.090   8.496  0.00  0.00    -0.327 OA
HETATM   14  H   UNK N   1      35.512  19.997   8.800  0.00  0.00     0.220 HD
ENDBRANCH  11  13
BRANCH  11  15
HETATM   15  O   UNK N   1      34.449  17.568   6.348  0.00  0.00    -0.327 OA
HETATM   16  H   UNK N   1      35.151  18.029   5.863  0.00  0.00     0.220 HD
ENDBRANCH  11  15
ENDBRANCH   8  11
BRANCH   8  17
HETATM   17  P   UNK N   1      32.486  15.568   8.861  0.00  0.00     0.284 P 
HETATM   18  O   UNK N   1      32.146  15.469   7.351  0.00  0.00    -0.651 OA
BRANCH  17  19
HETATM   19  O   UNK N   1      32.230  13.961   9.460  0.00  0.00    -0.327 OA
HETATM   20  H   UNK N   1      31.472  13.771  10.035  0.00  0.00     0.220 HD
ENDBRANCH  17  19
BRANCH  17  21
HETATM   21  O   UNK N   1      31.168  16.493   9.508  0.00  0.00    -0.327 OA
HETATM   22  H   UNK N   1      30.426  16.066   9.966  0.00  0.00     0.220 HD
ENDBRANCH  17  21
ENDBRANCH   8  17
ENDBRANCH   7   8
ENDBRANCH   6   7
BRANCH   1  23
HETATM   23  C   UNK N   1      35.337  12.909  12.952  0.00  0.00    -0.026 A 
HETATM   24  C   UNK N   1      36.019  13.783  13.812  0.00  0.00     0.013 A 
HETATM   25  C   UNK N   1      35.978  13.579  15.197  0.00  0.00     0.013 A 
HETATM   26  C   UNK N   1      35.252  12.501  15.736  0.00  0.00    -0.026 A 
HETATM   27  C   UNK N   1      34.521  11.675  14.875  0.00  0.00     0.013 A 
HETATM   28  C   UNK N   1      34.570  11.870  13.500  0.00  0.00     0.013 A 
BRANCH  26  29
HETATM   29  C   UNK N   1      35.335  12.166  17.175  0.00  0.00    -0.026 A 
HETATM   30  C   UNK N   1      35.498  10.837  17.595  0.00  0.00     0.012 A 
HETATM   31  C   UNK N   1      35.494  10.521  18.958  0.00  0.00     0.001 A 
HETATM   32  C   UNK N   1      35.322  11.529  19.910  0.00  0.00     0.000 A 
HETATM   33  C   UNK N   1      35.160  12.855  19.503  0.00  0.00     0.001 A 
HETATM   34  C   UNK N   1      35.161  13.171  18.143  0.00  0.00     0.012 A 
ENDBRANCH  26  29
ENDBRANCH   1  23
TORSDOF 11
ENDMDL
MODEL 2
REMARK VINA RESULT:      -8.1      0.781      1.363
REMARK  11 active torsions:
REMARK  status: ('A' for Active; 'I' for Inactive)
REMARK    1  A    between atoms: C_6  and  C_7 
REMARK    2  A    between atoms: C_12  and  C_13 
REMARK    3  A    between atoms: C_18  and  C_19 
REMARK    4  A    between atoms: C_19  and  C_20 
REMARK    5  A    between atoms: C_20  and  O_29 
REMARK    6  A    between atoms: C_20  and  P_25 
REMARK    7  A    between atoms: C_20  and  P_21 
REMARK    8  A    between atoms: P_21  and  O_22 
REMARK    9  A    between atoms: P_21  and  O_24 
REMARK   10  A    between atoms: P_25  and  O_28 
REMARK   11  A    between atoms: P_25  and  O_27 
ROOT
HETATM    1  C   UNK N   1      36.275  12.835  10.953  0.00  0.00    -0.025 A 
HETATM    2  C   UNK N   1      36.170  14.085  10.333  0.00  0.00     0.019 A 
HETATM    3  C   UNK N   1      36.018  11.676  10.203  0.00  0.00     0.012 A 
HETATM    4  C   UNK N   1      35.683  11.779   8.848  0.00  0.00     0.001 A 
HETATM    5  C   UNK N   1      35.523  13.039   8.261  0.00  0.00     0.007 A 
HETATM    6  C   UNK N   1      35.769  14.197   9.005  0.00  0.00    -0.053 A 
ENDROOT
BRANCH   6   7
HETATM    7  C   UNK N   1      35.435  15.533   8.412  0.00  0.00     0.102 C 
BRANCH   7   8
HETATM    8  C   UNK N   1      34.185  16.276   8.947  0.00  0.00     0.256 C 
BRANCH   8   9
HETATM    9  O   UNK N   1      34.344  16.534  10.309  0.00  0.00    -0.368 OA
HETATM   10  H   UNK N   1      34.523  16.195  11.199  0.00  0.00     0.212 HD
ENDBRANCH   8   9
BRANCH   8  11
HETATM   11  P   UNK N   1      34.087  17.892   8.030  0.00  0.00     0.284 P 
HETATM   12  O   UNK N   1      32.723  18.595   8.254  0.00  0.00    -0.651 OA
BRANCH  11  13
HETATM   13  O   UNK N   1      35.263  19.062   8.542  0.00  0.00    -0.327 OA
HETATM   14  H   UNK N   1      35.985  19.656   8.284  0.00  0.00     0.220 HD
ENDBRANCH  11  13
BRANCH  11  15
HETATM   15  O   UNK N   1      34.234  17.767   6.304  0.00  0.00    -0.327 OA
HETATM   16  H   UNK N   1      35.105  17.658   5.891  0.00  0.00     0.220 HD
ENDBRANCH  11  15
ENDBRANCH   8  11
BRANCH   8  17
HETATM   17  P   UNK N   1      32.530  15.415   8.675  0.00  0.00     0.284 P 
HETATM   18  O   UNK N   1      32.179  15.335   7.167  0.00  0.00    -0.651 OA
BRANCH  17  19
HETATM   19  O   UNK N   1      32.315  13.793   9.247  0.00  0.00    -0.327 OA
HETATM   20  H   UNK N   1      32.062  13.088   8.630  0.00  0.00     0.220 HD
ENDBRANCH  17  19
BRANCH  17  21
HETATM   21  O   UNK N   1      31.197  16.299   9.350  0.00  0.00    -0.327 OA
HETATM   22  H   UNK N   1      30.871  17.116   8.940  0.00  0.00     0.220 HD
ENDBRANCH  17  21
ENDBRANCH   8  17
ENDBRANCH   7   8
ENDBRANCH   6   7
BRANCH   1  23
HETATM   23  C   UNK N   1      36.392  12.792  12.425  0.00  0.00    -0.026 A 
HETATM   24  C   UNK N   1      36.839  11.632  13.076  0.00  0.00     0.013 A 
HETATM   25  C   UNK N   1      36.680  11.499  14.461  0.00  0.00     0.013 A 
HETATM   26  C   UNK N   1      36.076  12.525  15.210  0.00  0.00    -0.026 A 
HETATM   27  C   UNK N   1      35.695  13.706  14.563  0.00  0.00     0.013 A 
HETATM   28  C   UNK N   1      35.842  13.834  13.187  0.00  0.00     0.013 A 
BRANCH  26  29
HETATM   29  C   UNK N   1      35.743  12.335  16.639  0.00  0.00    -0.026 A 
HETATM   30  C   UNK N   1      35.349  13.421  17.436  0.00  0.00     0.012 A 
HETATM   31  C   UNK N   1      35.116  13.246  18.804  0.00  0.00     0.001 A 
HETATM   32  C   UNK N   1      35.278  11.987  19.387  0.00  0.00     0.000 A 
HETATM   33  C   UNK N   1      35.668  10.899  18.603  0.00  0.00     0.001 A 
HETATM   34  C   UNK N   1      35.905  11.073  17.238  0.00  0.00     0.012 A 
ENDBRANCH  26  29
ENDBRANCH   1  23
TORSDOF 11
ENDMDL
MODEL 3
REMARK VINA RESULT:      -7.4      1.625      2.638
REMARK  11 active torsions:
REMARK  status: ('A' for Active; 'I' for Inactive)
REMARK    1  A    between atoms: C_6  and  C_7 
REMARK    2  A    between atoms: C_12  and  C_13 
REMARK    3  A    between atoms: C_18  and  C_19 
REMARK    4  A    between atoms: C_19  and  C_20 
REMARK    5  A    between atoms: C_20  and  O_29 
REMARK    6  A    between atoms: C_20  and  P_25 
REMARK    7  A    between atoms: C_20  and  P_21 
REMARK    8  A    between atoms: P_21  and  O_22 
REMARK    9  A    between atoms: P_21  and  O_24 
REMARK   10  A    between atoms: P_25  and  O_28 
REMARK   11  A    between atoms: P_25  and  O_27 
ROOT
HETATM    1  C   UNK N   1      37.015  13.135  12.162  0.00  0.00    -0.025 A 
HETATM    2  C   UNK N   1      36.341  14.181  11.521  0.00  0.00     0.019 A 
HETATM    3  C   UNK N   1      38.032  12.454  11.474  0.00  0.00     0.012 A 
HETATM    4  C   UNK N   1      38.374  12.836  10.172  0.00  0.00     0.001 A 
HETATM    5  C   UNK N   1      37.649  13.844   9.526  0.00  0.00     0.007 A 
HETATM    6  C   UNK N   1      36.629  14.520  10.203  0.00  0.00    -0.053 A 
ENDROOT
BRANCH   6   7
HETATM    7  C   UNK N   1      35.757  15.476   9.445  0.00  0.00     0.102 C 
BRANCH   7   8
HETATM    8  C   UNK N   1      34.684  14.888   8.495  0.00  0.00     0.256 C 
BRANCH   8   9
HETATM    9  O   UNK N   1      34.831  13.503   8.426  0.00  0.00    -0.368 OA
HETATM   10  H   UNK N   1      35.264  12.737   8.020  0.00  0.00     0.212 HD
ENDBRANCH   8   9
BRANCH   8  11
HETATM   11  P   UNK N   1      33.028  15.286   9.242  0.00  0.00     0.284 P 
HETATM   12  O   UNK N   1      31.894  14.444   8.602  0.00  0.00    -0.651 OA
BRANCH  11  13
HETATM   13  O   UNK N   1      32.920  14.933  10.939  0.00  0.00    -0.327 OA
HETATM   14  H   UNK N   1      33.242  14.396  11.680  0.00  0.00     0.220 HD
ENDBRANCH  11  13
BRANCH  11  15
HETATM   15  O   UNK N   1      32.510  16.932   9.047  0.00  0.00    -0.327 OA
HETATM   16  H   UNK N   1      32.879  17.633   9.607  0.00  0.00     0.220 HD
ENDBRANCH  11  15
ENDBRANCH   8  11
BRANCH   8  17
HETATM   17  P   UNK N   1      34.654  15.590   6.745  0.00  0.00     0.284 P 
HETATM   18  O   UNK N   1      34.538  17.136   6.761  0.00  0.00    -0.651 OA
BRANCH  17  19
HETATM   19  O   UNK N   1      35.988  15.275   5.683  0.00  0.00    -0.327 OA
HETATM   20  H   UNK N   1      36.623  15.980   5.477  0.00  0.00     0.220 HD
ENDBRANCH  17  19
BRANCH  17  21
HETATM   21  O   UNK N   1      33.254  15.092   5.848  0.00  0.00    -0.327 OA
HETATM   22  H   UNK N   1      33.315  14.433   5.138  0.00  0.00     0.220 HD
ENDBRANCH  17  21
ENDBRANCH   8  17
ENDBRANCH   7   8
ENDBRANCH   6   7
BRANCH   1  23
HETATM   23  C   UNK N   1      36.458  12.618  13.429  0.00  0.00    -0.026 A 
HETATM   24  C   UNK N   1      35.418  13.293  14.085  0.00  0.00     0.013 A 
HETATM   25  C   UNK N   1      35.091  12.966  15.407  0.00  0.00     0.013 A 
HETATM   26  C   UNK N   1      35.798  11.957  16.085  0.00  0.00    -0.026 A 
HETATM   27  C   UNK N   1      36.788  11.242  15.401  0.00  0.00     0.013 A 
HETATM   28  C   UNK N   1      37.121  11.574  14.094  0.00  0.00     0.013 A 
BRANCH  26  29
HETATM   29  C   UNK N   1      35.587  11.713  17.530  0.00  0.00    -0.026 A 
HETATM   30  C   UNK N   1      35.576  10.407  18.044  0.00  0.00     0.012 A 
HETATM   31  C   UNK N   1      35.294  10.183  19.395  0.00  0.00     0.001 A 
HETATM   32  C   UNK N   1      35.017  11.259  20.242  0.00  0.00     0.000 A 
HETATM   33  C   UNK N   1      35.026  12.563  19.741  0.00  0.00     0.001 A 
HETATM   34  C   UNK N   1      35.304  12.788  18.391  0.00  0.00     0.012 A 
ENDBRANCH  26  29
ENDBRANCH   1  23
TORSDOF 11
ENDMDL
MODEL 4
REMARK VINA RESULT:      -7.4      5.474     10.659
REMARK  11 active torsions:
REMARK  status: ('A' for Active; 'I' for Inactive)
REMARK    1  A    between atoms: C_6  and  C_7 
REMARK    2  A    between atoms: C_12  and  C_13 
REMARK    3  A    between atoms: C_18  and  C_19 
REMARK    4  A    between atoms: C_19  and  C_20 
REMARK    5  A    between atoms: C_20  and  O_29 
REMARK    6  A    between atoms: C_20  and  P_25 
REMARK    7  A    between atoms: C_20  and  P_21 
REMARK    8  A    between atoms: P_21  and  O_22 
REMARK    9  A    between atoms: P_21  and  O_24 
REMARK   10  A    between atoms: P_25  and  O_28 
REMARK   11  A    between atoms: P_25  and  O_27 
ROOT
HETATM    1  C   UNK N   1      32.509  16.978   7.427  0.00  0.00    -0.025 A 
HETATM    2  C   UNK N   1      32.595  16.067   8.487  0.00  0.00     0.019 A 
HETATM    3  C   UNK N   1      33.544  17.907   7.239  0.00  0.00     0.012 A 
HETATM    4  C   UNK N   1      34.654  17.902   8.092  0.00  0.00     0.001 A 
HETATM    5  C   UNK N   1      34.694  17.025   9.182  0.00  0.00     0.007 A 
HETATM    6  C   UNK N   1      33.662  16.103   9.379  0.00  0.00    -0.053 A 
ENDROOT
BRANCH   6   7
HETATM    7  C   UNK N   1      33.639  15.288  10.638  0.00  0.00     0.102 C 
BRANCH   7   8
HETATM    8  C   UNK N   1      34.631  14.104  10.759  0.00  0.00     0.256 C 
BRANCH   8   9
HETATM    9  O   UNK N   1      34.420  13.442  11.969  0.00  0.00    -0.368 OA
HETATM   10  H   UNK N   1      33.983  13.419  12.833  0.00  0.00     0.212 HD
ENDBRANCH   8   9
BRANCH   8  11
HETATM   11  P   UNK N   1      34.255  12.942   9.357  0.00  0.00     0.284 P 
HETATM   12  O   UNK N   1      34.936  11.563   9.558  0.00  0.00    -0.651 OA
BRANCH  11  13
HETATM   13  O   UNK N   1      32.568  12.568   9.187  0.00  0.00    -0.327 OA
HETATM   14  H   UNK N   1      31.666  12.717   9.510  0.00  0.00     0.220 HD
ENDBRANCH  11  13
BRANCH  11  15
HETATM   15  O   UNK N   1      34.802  13.473   7.796  0.00  0.00    -0.327 OA
HETATM   16  H   UNK N   1      34.722  12.893   7.023  0.00  0.00     0.220 HD
ENDBRANCH  11  15
ENDBRANCH   8  11
BRANCH   8  17
HETATM   17  P   UNK N   1      36.460  14.537  10.608  0.00  0.00     0.284 P 
HETATM   18  O   UNK N   1      36.993  14.239   9.183  0.00  0.00    -0.651 OA
BRANCH  17  19
HETATM   19  O   UNK N   1      36.974  16.164  10.921  0.00  0.00    -0.327 OA
HETATM   20  H   UNK N   1      36.317  16.868  11.040  0.00  0.00     0.220 HD
ENDBRANCH  17  19
BRANCH  17  21
HETATM   21  O   UNK N   1      37.467  13.556  11.626  0.00  0.00    -0.327 OA
HETATM   22  H   UNK N   1      38.428  13.681  11.659  0.00  0.00     0.220 HD
ENDBRANCH  17  21
ENDBRANCH   8  17
ENDBRANCH   7   8
ENDBRANCH   6   7
BRANCH   1  23
HETATM   23  C   UNK N   1      31.221  17.101   6.714  0.00  0.00    -0.026 A 
HETATM   24  C   UNK N   1      31.172  17.077   5.312  0.00  0.00     0.013 A 
HETATM   25  C   UNK N   1      30.007  17.474   4.643  0.00  0.00     0.013 A 
HETATM   26  C   UNK N   1      28.878  17.894   5.369  0.00  0.00    -0.026 A 
HETATM   27  C   UNK N   1      28.913  17.850   6.767  0.00  0.00     0.013 A 
HETATM   28  C   UNK N   1      30.072  17.467   7.432  0.00  0.00     0.013 A 
BRANCH  26  29
HETATM   29  C   UNK N   1      27.702  18.478   4.686  0.00  0.00    -0.026 A 
HETATM   30  C   UNK N   1      26.658  17.659   4.229  0.00  0.00     0.012 A 
HETATM   31  C   UNK N   1      25.591  18.211   3.512  0.00  0.00     0.001 A 
HETATM   32  C   UNK N   1      25.561  19.582   3.242  0.00  0.00     0.000 A 
HETATM   33  C   UNK N   1      26.595  20.405   3.693  0.00  0.00     0.001 A 
HETATM   34  C   UNK N   1      27.662  19.856   4.406  0.00  0.00     0.012 A 
ENDBRANCH  26  29
ENDBRANCH   1  23
TORSDOF 11
ENDMDL
MODEL 5
REMARK VINA RESULT:      -7.4      7.007     11.847
REMARK  11 active torsions:
REMARK  status: ('A' for Active; 'I' for Inactive)
REMARK    1  A    between atoms: C_6  and  C_7 
REMARK    2  A    between atoms: C_12  and  C_13 
REMARK    3  A    between atoms: C_18  and  C_19 
REMARK    4  A    between atoms: C_19  and  C_20 
REMARK    5  A    between atoms: C_20  and  O_29 
REMARK    6  A    between atoms: C_20  and  P_25 
REMARK    7  A    between atoms: C_20  and  P_21 
REMARK    8  A    between atoms: P_21  and  O_22 
REMARK    9  A    between atoms: P_21  and  O_24 
REMARK   10  A    between atoms: P_25  and  O_28 
REMARK   11  A    between atoms: P_25  and  O_27 
ROOT
HETATM    1  C   UNK N   1      30.652  17.298   5.141  0.00  0.00    -0.025 A 
HETATM    2  C   UNK N   1      31.140  16.873   6.382  0.00  0.00     0.019 A 
HETATM    3  C   UNK N   1      31.562  17.703   4.151  0.00  0.00     0.012 A 
HETATM    4  C   UNK N   1      32.938  17.658   4.404  0.00  0.00     0.001 A 
HETATM    5  C   UNK N   1      33.404  17.288   5.671  0.00  0.00     0.007 A 
HETATM    6  C   UNK N   1      32.502  16.892   6.663  0.00  0.00    -0.053 A 
ENDROOT
BRANCH   6   7
HETATM    7  C   UNK N   1      33.003  16.660   8.057  0.00  0.00     0.102 C 
BRANCH   7   8
HETATM    8  C   UNK N   1      33.970  15.473   8.297  0.00  0.00     0.256 C 
BRANCH   8   9
HETATM    9  O   UNK N   1      35.097  15.620   7.486  0.00  0.00    -0.368 OA
HETATM   10  H   UNK N   1      35.512  16.035   6.716  0.00  0.00     0.212 HD
ENDBRANCH   8   9
BRANCH   8  11
HETATM   11  P   UNK N   1      34.491  15.555  10.080  0.00  0.00     0.284 P 
HETATM   12  O   UNK N   1      35.757  14.701  10.347  0.00  0.00    -0.651 OA
BRANCH  11  13
HETATM   13  O   UNK N   1      34.927  17.149  10.612  0.00  0.00    -0.327 OA
HETATM   14  H   UNK N   1      35.620  17.725  10.971  0.00  0.00     0.220 HD
ENDBRANCH  11  13
BRANCH  11  15
HETATM   15  O   UNK N   1      33.318  14.959  11.215  0.00  0.00    -0.327 OA
HETATM   16  H   UNK N   1      32.517  14.510  10.905  0.00  0.00     0.220 HD
ENDBRANCH  11  15
ENDBRANCH   8  11
BRANCH   8  17
HETATM   17  P   UNK N   1      33.248  13.751   8.037  0.00  0.00     0.284 P 
HETATM   18  O   UNK N   1      32.308  13.715   6.804  0.00  0.00    -0.651 OA
BRANCH  17  19
HETATM   19  O   UNK N   1      34.321  12.411   7.791  0.00  0.00    -0.327 OA
HETATM   20  H   UNK N   1      34.678  12.228   6.907  0.00  0.00     0.220 HD
ENDBRANCH  17  19
BRANCH  17  21
HETATM   21  O   UNK N   1      32.218  13.253   9.342  0.00  0.00    -0.327 OA
HETATM   22  H   UNK N   1      32.494  12.571   9.974  0.00  0.00     0.220 HD
ENDBRANCH  17  21
ENDBRANCH   8  17
ENDBRANCH   7   8
ENDBRANCH   6   7
BRANCH   1  23
HETATM   23  C   UNK N   1      29.203  17.555   5.009  0.00  0.00    -0.026 A 
HETATM   24  C   UNK N   1      28.410  16.772   4.157  0.00  0.00     0.013 A 
HETATM   25  C   UNK N   1      27.116  17.190   3.821  0.00  0.00     0.013 A 
HETATM   26  C   UNK N   1      26.601  18.393   4.337  0.00  0.00    -0.026 A 
HETATM   27  C   UNK N   1      27.373  19.133   5.239  0.00  0.00     0.013 A 
HETATM   28  C   UNK N   1      28.661  18.725   5.564  0.00  0.00     0.013 A 
BRANCH  26  29
HETATM   29  C   UNK N   1      25.309  18.938   3.862  0.00  0.00    -0.026 A 
HETATM   30  C   UNK N   1      25.249  20.180   3.213  0.00  0.00     0.012 A 
HETATM   31  C   UNK N   1      24.015  20.724   2.841  0.00  0.00     0.001 A 
HETATM   32  C   UNK N   1      22.832  20.033   3.119  0.00  0.00     0.000 A 
HETATM   33  C   UNK N   1      22.881  18.796   3.765  0.00  0.00     0.001 A 
HETATM   34  C   UNK N   1      24.112  18.253   4.139  0.00  0.00     0.012 A 
ENDBRANCH  26  29
ENDBRANCH   1  23
TORSDOF 11
ENDMDL
MODEL 6
REMARK VINA RESULT:      -7.4      1.287      2.057
REMARK  11 active torsions:
REMARK  status: ('A' for Active; 'I' for Inactive)
REMARK    1  A    between atoms: C_6  and  C_7 
REMARK    2  A    between atoms: C_12  and  C_13 
REMARK    3  A    between atoms: C_18  and  C_19 
REMARK    4  A    between atoms: C_19  and  C_20 
REMARK    5  A    between atoms: C_20  and  O_29 
REMARK    6  A    between atoms: C_20  and  P_25 
REMARK    7  A    between atoms: C_20  and  P_21 
REMARK    8  A    between atoms: P_21  and  O_22 
REMARK    9  A    between atoms: P_21  and  O_24 
REMARK   10  A    between atoms: P_25  and  O_28 
REMARK   11  A    between atoms: P_25  and  O_27 
ROOT
HETATM    1  C   UNK N   1      36.201  13.639  11.770  0.00  0.00    -0.025 A 
HETATM    2  C   UNK N   1      35.247  14.095  10.853  0.00  0.00     0.019 A 
HETATM    3  C   UNK N   1      37.404  13.095  11.292  0.00  0.00     0.012 A 
HETATM    4  C   UNK N   1      37.647  13.035   9.915  0.00  0.00     0.001 A 
HETATM    5  C   UNK N   1      36.658  13.441   9.012  0.00  0.00     0.007 A 
HETATM    6  C   UNK N   1      35.454  13.974   9.482  0.00  0.00    -0.053 A 
ENDROOT
BRANCH   6   7
HETATM    7  C   UNK N   1      34.346  14.248   8.510  0.00  0.00     0.102 C 
BRANCH   7   8
HETATM    8  C   UNK N   1      34.069  15.720   8.114  0.00  0.00     0.256 C 
BRANCH   8   9
HETATM    9  O   UNK N   1      34.951  16.559   8.796  0.00  0.00    -0.368 OA
HETATM   10  H   UNK N   1      35.761  17.090   8.786  0.00  0.00     0.212 HD
ENDBRANCH   8   9
BRANCH   8  11
HETATM   11  P   UNK N   1      34.391  15.856   6.288  0.00  0.00     0.284 P 
HETATM   12  O   UNK N   1      34.266  17.320   5.791  0.00  0.00    -0.651 OA
BRANCH  11  13
HETATM   13  O   UNK N   1      35.994  15.379   5.820  0.00  0.00    -0.327 OA
HETATM   14  H   UNK N   1      36.923  15.283   6.083  0.00  0.00     0.220 HD
ENDBRANCH  11  13
BRANCH  11  15
HETATM   15  O   UNK N   1      33.297  14.960   5.280  0.00  0.00    -0.327 OA
HETATM   16  H   UNK N   1      32.423  15.319   5.062  0.00  0.00     0.220 HD
ENDBRANCH  11  15
ENDBRANCH   8  11
BRANCH   8  17
HETATM   17  P   UNK N   1      32.306  16.333   8.385  0.00  0.00     0.284 P 
HETATM   18  O   UNK N   1      31.538  15.419   9.374  0.00  0.00    -0.651 OA
BRANCH  17  19
HETATM   19  O   UNK N   1      32.051  17.934   9.001  0.00  0.00    -0.327 OA
HETATM   20  H   UNK N   1      32.746  18.374   9.515  0.00  0.00     0.220 HD
ENDBRANCH  17  19
BRANCH  17  21
HETATM   21  O   UNK N   1      31.343  16.260   6.942  0.00  0.00    -0.327 OA
HETATM   22  H   UNK N   1      30.628  15.612   6.843  0.00  0.00     0.220 HD
ENDBRANCH  17  21
ENDBRANCH   8  17
ENDBRANCH   7   8
ENDBRANCH   6   7
BRANCH   1  23
HETATM   23  C   UNK N   1      35.800  13.502  13.186  0.00  0.00    -0.026 A 
HETATM   24  C   UNK N   1      36.477  14.203  14.195  0.00  0.00     0.013 A 
HETATM   25  C   UNK N   1      36.286  13.859  15.539  0.00  0.00     0.013 A 
HETATM   26  C   UNK N   1      35.413  12.813  15.888  0.00  0.00    -0.026 A 
HETATM   27  C   UNK N   1      34.690  12.165  14.880  0.00  0.00     0.013 A 
HETATM   28  C   UNK N   1      34.888  12.498  13.546  0.00  0.00     0.013 A 
BRANCH  26  29
HETATM   29  C   UNK N   1      35.327  12.322  17.281  0.00  0.00    -0.026 A 
HETATM   30  C   UNK N   1      35.227  13.220  18.355  0.00  0.00     0.012 A 
HETATM   31  C   UNK N   1      35.229  12.749  19.672  0.00  0.00     0.001 A 
HETATM   32  C   UNK N   1      35.334  11.379  19.927  0.00  0.00     0.000 A 
HETATM   33  C   UNK N   1      35.433  10.477  18.866  0.00  0.00     0.001 A 
HETATM   34  C   UNK N   1      35.435  10.945  17.550  0.00  0.00     0.012 A 
ENDBRANCH  26  29
ENDBRANCH   1  23
TORSDOF 11
ENDMDL
MODEL 7
REMARK VINA RESULT:      -7.4      5.215      9.921
REMARK  11 active torsions:
REMARK  status: ('A' for Active; 'I' for Inactive)
REMARK    1  A    between atoms: C_6  and  C_7 
REMARK    2  A    between atoms: C_12  and  C_13 
REMARK    3  A    between atoms: C_18  and  C_19 
REMARK    4  A    between atoms: C_19  and  C_20 
REMARK    5  A    between atoms: C_20  and  O_29 
REMARK    6  A    between atoms: C_20  and  P_25 
REMARK    7  A    between atoms: C_20  and  P_21 
REMARK    8  A    between atoms: P_21  and  O_22 
REMARK    9  A    between atoms: P_21  and  O_24 
REMARK   10  A    between atoms: P_25  and  O_28 
REMARK   11  A    between atoms: P_25  and  O_27 
ROOT
HETATM    1  C   UNK N   1      32.364  14.620   6.477  0.00  0.00    -0.025 A 
HETATM    2  C   UNK N   1      33.271  14.741   7.536  0.00  0.00     0.019 A 
HETATM    3  C   UNK N   1      32.722  13.856   5.355  0.00  0.00     0.012 A 
HETATM    4  C   UNK N   1      33.962  13.208   5.315  0.00  0.00     0.001 A 
HETATM    5  C   UNK N   1      34.879  13.389   6.357  0.00  0.00     0.007 A 
HETATM    6  C   UNK N   1      34.532  14.157   7.472  0.00  0.00    -0.053 A 
ENDROOT
BRANCH   6   7
HETATM    7  C   UNK N   1      35.580  14.476   8.496  0.00  0.00     0.102 C 
BRANCH   7   8
HETATM    8  C   UNK N   1      35.549  13.701   9.838  0.00  0.00     0.256 C 
BRANCH   8   9
HETATM    9  O   UNK N   1      35.012  12.430   9.629  0.00  0.00    -0.368 OA
HETATM   10  H   UNK N   1      34.227  11.874   9.514  0.00  0.00     0.212 HD
ENDBRANCH   8   9
BRANCH   8  11
HETATM   11  P   UNK N   1      37.313  13.529  10.401  0.00  0.00     0.284 P 
HETATM   12  O   UNK N   1      37.979  12.256   9.818  0.00  0.00    -0.651 OA
BRANCH  11  13
HETATM   13  O   UNK N   1      38.344  14.828   9.885  0.00  0.00    -0.327 OA
HETATM   14  H   UNK N   1      38.872  15.599  10.145  0.00  0.00     0.220 HD
ENDBRANCH  11  13
BRANCH  11  15
HETATM   15  O   UNK N   1      37.525  13.384  12.119  0.00  0.00    -0.327 OA
HETATM   16  H   UNK N   1      38.329  13.718  12.545  0.00  0.00     0.220 HD
ENDBRANCH  11  15
ENDBRANCH   8  11
BRANCH   8  17
HETATM   17  P   UNK N   1      34.623  14.534  11.254  0.00  0.00     0.284 P 
HETATM   18  O   UNK N   1      35.389  15.778  11.772  0.00  0.00    -0.651 OA
BRANCH  17  19
HETATM   19  O   UNK N   1      33.009  15.110  10.988  0.00  0.00    -0.327 OA
HETATM   20  H   UNK N   1      32.713  15.334  10.091  0.00  0.00     0.220 HD
ENDBRANCH  17  19
BRANCH  17  21
HETATM   21  O   UNK N   1      34.501  13.523  12.660  0.00  0.00    -0.327 OA
HETATM   22  H   UNK N   1      34.023  13.814  13.452  0.00  0.00     0.220 HD
ENDBRANCH  17  21
ENDBRANCH   8  17
ENDBRANCH   7   8
ENDBRANCH   6   7
BRANCH   1  23
HETATM   23  C   UNK N   1      31.184  15.509   6.462  0.00  0.00    -0.026 A 
HETATM   24  C   UNK N   1      30.288  15.494   5.382  0.00  0.00     0.013 A 
HETATM   25  C   UNK N   1      29.346  16.520   5.236  0.00  0.00     0.013 A 
HETATM   26  C   UNK N   1      29.287  17.569   6.172  0.00  0.00    -0.026 A 
HETATM   27  C   UNK N   1      30.139  17.540   7.281  0.00  0.00     0.013 A 
HETATM   28  C   UNK N   1      31.082  16.529   7.420  0.00  0.00     0.013 A 
BRANCH  26  29
HETATM   29  C   UNK N   1      28.420  18.747   5.946  0.00  0.00    -0.026 A 
HETATM   30  C   UNK N   1      27.895  19.470   7.028  0.00  0.00     0.012 A 
HETATM   31  C   UNK N   1      27.011  20.532   6.805  0.00  0.00     0.001 A 
HETATM   32  C   UNK N   1      26.643  20.876   5.502  0.00  0.00     0.000 A 
HETATM   33  C   UNK N   1      27.160  20.163   4.418  0.00  0.00     0.001 A 
HETATM   34  C   UNK N   1      28.040  19.102   4.639  0.00  0.00     0.012 A 
ENDBRANCH  26  29
ENDBRANCH   1  23
TORSDOF 11
ENDMDL
MODEL 8
REMARK VINA RESULT:      -7.3      5.520     10.618
REMARK  11 active torsions:
REMARK  status: ('A' for Active; 'I' for Inactive)
REMARK    1  A    between atoms: C_6  and  C_7 
REMARK    2  A    between atoms: C_12  and  C_13 
REMARK    3  A    between atoms: C_18  and  C_19 
REMARK    4  A    between atoms: C_19  and  C_20 
REMARK    5  A    between atoms: C_20  and  O_29 
REMARK    6  A    between atoms: C_20  and  P_25 
REMARK    7  A    between atoms: C_20  and  P_21 
REMARK    8  A    between atoms: P_21  and  O_22 
REMARK    9  A    between atoms: P_21  and  O_24 
REMARK   10  A    between atoms: P_25  and  O_28 
REMARK   11  A    between atoms: P_25  and  O_27 
ROOT
HETATM    1  C   UNK N   1      32.599  17.043   7.488  0.00  0.00    -0.025 A 
HETATM    2  C   UNK N   1      32.761  15.978   8.382  0.00  0.00     0.019 A 
HETATM    3  C   UNK N   1      33.519  18.103   7.513  0.00  0.00     0.012 A 
HETATM    4  C   UNK N   1      34.594  18.076   8.409  0.00  0.00     0.001 A 
HETATM    5  C   UNK N   1      34.706  17.033   9.336  0.00  0.00     0.007 A 
HETATM    6  C   UNK N   1      33.787  15.979   9.321  0.00  0.00    -0.053 A 
ENDROOT
BRANCH   6   7
HETATM    7  C   UNK N   1      33.824  14.961  10.421  0.00  0.00     0.102 C 
BRANCH   7   8
HETATM    8  C   UNK N   1      34.870  13.821  10.326  0.00  0.00     0.256 C 
BRANCH   8   9
HETATM    9  O   UNK N   1      35.791  14.118   9.322  0.00  0.00    -0.368 OA
HETATM   10  H   UNK N   1      36.307  13.817   8.559  0.00  0.00     0.212 HD
ENDBRANCH   8   9
BRANCH   8  11
HETATM   11  P   UNK N   1      35.753  13.764  11.962  0.00  0.00     0.284 P 
HETATM   12  O   UNK N   1      36.940  12.767  11.937  0.00  0.00    -0.651 OA
BRANCH  11  13
HETATM   13  O   UNK N   1      36.471  15.275  12.426  0.00  0.00    -0.327 OA
HETATM   14  H   UNK N   1      37.092  15.984  12.198  0.00  0.00     0.220 HD
ENDBRANCH  11  13
BRANCH  11  15
HETATM   15  O   UNK N   1      34.779  13.247  13.305  0.00  0.00    -0.327 OA
HETATM   16  H   UNK N   1      33.840  13.485  13.351  0.00  0.00     0.220 HD
ENDBRANCH  11  15
ENDBRANCH   8  11
BRANCH   8  17
HETATM   17  P   UNK N   1      34.183  12.089  10.038  0.00  0.00     0.284 P 
HETATM   18  O   UNK N   1      35.084  11.281   9.069  0.00  0.00    -0.651 OA
BRANCH  17  19
HETATM   19  O   UNK N   1      33.960  11.030  11.392  0.00  0.00    -0.327 OA
HETATM   20  H   UNK N   1      34.640  10.972  12.082  0.00  0.00     0.220 HD
ENDBRANCH  17  19
BRANCH  17  21
HETATM   21  O   UNK N   1      32.644  12.104   9.235  0.00  0.00    -0.327 OA
HETATM   22  H   UNK N   1      32.173  12.934   9.059  0.00  0.00     0.220 HD
ENDBRANCH  17  21
ENDBRANCH   8  17
ENDBRANCH   7   8
ENDBRANCH   6   7
BRANCH   1  23
HETATM   23  C   UNK N   1      31.328  17.140   6.740  0.00  0.00    -0.026 A 
HETATM   24  C   UNK N   1      31.323  17.207   5.338  0.00  0.00     0.013 A 
HETATM   25  C   UNK N   1      30.159  17.581   4.657  0.00  0.00     0.013 A 
HETATM   26  C   UNK N   1      28.985  17.888   5.369  0.00  0.00    -0.026 A 
HETATM   27  C   UNK N   1      28.980  17.754   6.762  0.00  0.00     0.013 A 
HETATM   28  C   UNK N   1      30.139  17.394   7.440  0.00  0.00     0.013 A 
BRANCH  26  29
HETATM   29  C   UNK N   1      27.799  18.449   4.685  0.00  0.00    -0.026 A 
HETATM   30  C   UNK N   1      26.780  17.609   4.211  0.00  0.00     0.012 A 
HETATM   31  C   UNK N   1      25.703  18.142   3.493  0.00  0.00     0.001 A 
HETATM   32  C   UNK N   1      25.639  19.514   3.240  0.00  0.00     0.000 A 
HETATM   33  C   UNK N   1      26.648  20.358   3.707  0.00  0.00     0.001 A 
HETATM   34  C   UNK N   1      27.725  19.829   4.421  0.00  0.00     0.012 A 
ENDBRANCH  26  29
ENDBRANCH   1  23
TORSDOF 11
ENDMDL
MODEL 9
REMARK VINA RESULT:      -7.3     11.267     14.991
REMARK  11 active torsions:
REMARK  status: ('A' for Active; 'I' for Inactive)
REMARK    1  A    between atoms: C_6  and  C_7 
REMARK    2  A    between atoms: C_12  and  C_13 
REMARK    3  A    between atoms: C_18  and  C_19 
REMARK    4  A    between atoms: C_19  and  C_20 
REMARK    5  A    between atoms: C_20  and  O_29 
REMARK    6  A    between atoms: C_20  and  P_25 
REMARK    7  A    between atoms: C_20  and  P_21 
REMARK    8  A    between atoms: P_21  and  O_22 
REMARK    9  A    between atoms: P_21  and  O_24 
REMARK   10  A    between atoms: P_25  and  O_28 
REMARK   11  A    between atoms: P_25  and  O_27 
ROOT
HETATM    1  C   UNK N   1      24.568  19.397   3.713  0.00  0.00    -0.025 A 
HETATM    2  C   UNK N   1      23.555  18.562   4.198  0.00  0.00     0.019 A 
HETATM    3  C   UNK N   1      24.223  20.501   2.918  0.00  0.00     0.012 A 
HETATM    4  C   UNK N   1      22.878  20.769   2.637  0.00  0.00     0.001 A 
HETATM    5  C   UNK N   1      21.883  19.890   3.080  0.00  0.00     0.007 A 
HETATM    6  C   UNK N   1      22.222  18.783   3.865  0.00  0.00    -0.053 A 
ENDROOT
BRANCH   6   7
HETATM    7  C   UNK N   1      21.169  17.766   4.189  0.00  0.00     0.102 C 
BRANCH   7   8
HETATM    8  C   UNK N   1      20.788  16.736   3.096  0.00  0.00     0.256 C 
BRANCH   8   9
HETATM    9  O   UNK N   1      21.944  16.125   2.609  0.00  0.00    -0.368 OA
HETATM   10  H   UNK N   1      22.912  16.108   2.559  0.00  0.00     0.212 HD
ENDBRANCH   8   9
BRANCH   8  11
HETATM   11  P   UNK N   1      19.722  15.451   3.915  0.00  0.00     0.284 P 
HETATM   12  O   UNK N   1      20.543  14.556   4.879  0.00  0.00    -0.651 OA
BRANCH  11  13
HETATM   13  O   UNK N   1      18.464  16.114   4.912  0.00  0.00    -0.327 OA
HETATM   14  H   UNK N   1      18.188  16.384   5.802  0.00  0.00     0.220 HD
ENDBRANCH  11  13
BRANCH  11  15
HETATM   15  O   UNK N   1      18.954  14.333   2.830  0.00  0.00    -0.327 OA
HETATM   16  H   UNK N   1      18.028  14.456   2.571  0.00  0.00     0.220 HD
ENDBRANCH  11  15
ENDBRANCH   8  11
BRANCH   8  17
HETATM   17  P   UNK N   1      19.787  17.402   1.643  0.00  0.00     0.284 P 
HETATM   18  O   UNK N   1      20.687  18.185   0.652  0.00  0.00    -0.651 OA
BRANCH  17  19
HETATM   19  O   UNK N   1      18.913  16.293   0.637  0.00  0.00    -0.327 OA
HETATM   20  H   UNK N   1      18.105  16.580   0.182  0.00  0.00     0.220 HD
ENDBRANCH  17  19
BRANCH  17  21
HETATM   21  O   UNK N   1      18.606  18.579   2.127  0.00  0.00    -0.327 OA
HETATM   22  H   UNK N   1      18.648  19.010   2.995  0.00  0.00     0.220 HD
ENDBRANCH  17  21
ENDBRANCH   8  17
ENDBRANCH   7   8
ENDBRANCH   6   7
BRANCH   1  23
HETATM   23  C   UNK N   1      25.968  18.939   3.833  0.00  0.00    -0.026 A 
HETATM   24  C   UNK N   1      26.283  17.573   3.781  0.00  0.00     0.013 A 
HETATM   25  C   UNK N   1      27.552  17.128   4.174  0.00  0.00     0.013 A 
HETATM   26  C   UNK N   1      28.520  18.047   4.619  0.00  0.00    -0.026 A 
HETATM   27  C   UNK N   1      28.220  19.413   4.603  0.00  0.00     0.013 A 
HETATM   28  C   UNK N   1      26.958  19.854   4.225  0.00  0.00     0.013 A 
BRANCH  26  29
HETATM   29  C   UNK N   1      29.801  17.586   5.198  0.00  0.00    -0.026 A 
HETATM   30  C   UNK N   1      29.894  17.244   6.556  0.00  0.00     0.012 A 
HETATM   31  C   UNK N   1      31.127  16.888   7.113  0.00  0.00     0.001 A 
HETATM   32  C   UNK N   1      32.277  16.875   6.319  0.00  0.00     0.000 A 
HETATM   33  C   UNK N   1      32.196  17.213   4.967  0.00  0.00     0.001 A 
HETATM   34  C   UNK N   1      30.966  17.571   4.410  0.00  0.00     0.012 A 
ENDBRANCH  26  29
ENDBRANCH   1  23
TORSDOF 11
ENDMDL
