REMARK  11 active torsions:
REMARK  status: ('A' for Active; 'I' for Inactive)
REMARK    1  A    between atoms: C_6  and  C_7 
REMARK    2  A    between atoms: C_12  and  C_13 
REMARK    3  A    between atoms: C_18  and  C_19 
REMARK    4  A    between atoms: C_19  and  C_20 
REMARK    5  A    between atoms: C_20  and  O_29 
REMARK    6  A    between atoms: C_20  and  P_25 
REMARK    7  A    between atoms: C_20  and  P_21 
REMARK    8  A    between atoms: P_21  and  O_22 
REMARK    9  A    between atoms: P_21  and  O_24 
REMARK   10  A    between atoms: P_25  and  O_28 
REMARK   11  A    between atoms: P_25  and  O_27 
ROOT
HETATM    1  C   UNK N   1       2.219   1.574   0.564  0.00  0.00    -0.025 A 
HETATM    2  C   UNK N   1       1.056   0.845   0.838  0.00  0.00     0.019 A 
HETATM    3  C   UNK N   1       2.106   2.855   0.001  0.00  0.00     0.012 A 
HETATM    4  C   UNK N   1       0.842   3.397  -0.259  0.00  0.00     0.001 A 
HETATM    5  C   UNK N   1      -0.307   2.630  -0.034  0.00  0.00     0.007 A 
HETATM    6  C   UNK N   1      -0.200   1.350   0.518  0.00  0.00    -0.053 A 
ENDROOT
BRANCH   6   7
HETATM    7  C   UNK N   1      -1.421   0.483   0.597  0.00  0.00     0.102 C 
BRANCH   7   8
HETATM    8  C   UNK N   1      -1.253  -1.038   0.355  0.00  0.00     0.256 C 
BRANCH   8   9
HETATM    9  O   UNK N   1      -0.806  -1.649   1.527  0.00  0.00    -0.368 OA
HETATM   10  H   UNK N   1      -1.018  -2.130   2.341  0.00  0.00     0.212 HD
ENDBRANCH   8   9
BRANCH   8  11
HETATM   11  P   UNK N   1      -2.936  -1.704  -0.073  0.00  0.00     0.284 P 
HETATM   12  O   UNK N   1      -3.971  -1.404   1.042  0.00  0.00    -0.651 OA
BRANCH  11  13
HETATM   13  O   UNK N   1      -3.627  -1.000  -1.502  0.00  0.00    -0.327 OA
HETATM   14  H   UNK N   1      -3.479  -0.469  -2.300  0.00  0.00     0.220 HD
ENDBRANCH  11  13
BRANCH  11  15
HETATM   15  O   UNK N   1      -3.012  -3.426  -0.285  0.00  0.00    -0.327 OA
HETATM   16  H   UNK N   1      -3.866  -3.870  -0.403  0.00  0.00     0.220 HD
ENDBRANCH  11  15
ENDBRANCH   8  11
BRANCH   8  17
HETATM   17  P   UNK N   1      -0.115  -1.530  -1.066  0.00  0.00     0.284 P 
HETATM   18  O   UNK N   1      -0.552  -0.860  -2.394  0.00  0.00    -0.651 OA
BRANCH  17  19
HETATM   19  O   UNK N   1       1.580  -1.182  -0.953  0.00  0.00    -0.327 OA
HETATM   20  H   UNK N   1       2.223  -1.906  -0.890  0.00  0.00     0.220 HD
ENDBRANCH  17  19
BRANCH  17  21
HETATM   21  O   UNK N   1      -0.191  -3.226  -1.428  0.00  0.00    -0.327 OA
HETATM   22  H   UNK N   1      -1.033  -3.663  -1.631  0.00  0.00     0.220 HD
ENDBRANCH  17  21
ENDBRANCH   8  17
ENDBRANCH   7   8
ENDBRANCH   6   7
BRANCH   1  23
HETATM   23  C   UNK N   1       3.517   0.870   0.629  0.00  0.00    -0.026 A 
HETATM   24  C   UNK N   1       4.639   1.370  -0.049  0.00  0.00     0.013 A 
HETATM   25  C   UNK N   1       5.773   0.566  -0.219  0.00  0.00     0.013 A 
HETATM   26  C   UNK N   1       5.798  -0.745   0.291  0.00  0.00    -0.026 A 
HETATM   27  C   UNK N   1       4.701  -1.211   1.024  0.00  0.00     0.013 A 
HETATM   28  C   UNK N   1       3.571  -0.418   1.183  0.00  0.00     0.013 A 
BRANCH  26  29
HETATM   29  C   UNK N   1       6.912  -1.667  -0.024  0.00  0.00    -0.026 A 
HETATM   30  C   UNK N   1       7.961  -1.265  -0.865  0.00  0.00     0.012 A 
HETATM   31  C   UNK N   1       8.966  -2.170  -1.222  0.00  0.00     0.001 A 
HETATM   32  C   UNK N   1       8.929  -3.483  -0.746  0.00  0.00     0.000 A 
HETATM   33  C   UNK N   1       7.890  -3.893   0.092  0.00  0.00     0.001 A 
HETATM   34  C   UNK N   1       6.884  -2.992   0.447  0.00  0.00     0.012 A 
ENDBRANCH  26  29
ENDBRANCH   1  23
TORSDOF 11
