MODEL 1
REMARK VINA RESULT:      -8.3      0.000      0.000
REMARK  10 active torsions:
REMARK  status: ('A' for Active; 'I' for Inactive)
REMARK    1  A    between atoms: C_13  and  C_14 
REMARK    2  A    between atoms: C_19  and  C_20 
REMARK    3  A    between atoms: C_20  and  C_21 
REMARK    4  A    between atoms: C_21  and  P_22 
REMARK    5  A    between atoms: C_21  and  P_26 
REMARK    6  A    between atoms: C_21  and  O_30 
REMARK    7  A    between atoms: P_22  and  O_25 
REMARK    8  A    between atoms: P_22  and  O_24 
REMARK    9  A    between atoms: P_26  and  O_28 
REMARK   10  A    between atoms: P_26  and  O_29 
ROOT
HETATM    1  C   UNK N   1      35.943  11.814  11.719  0.00  0.00    -0.023 A 
HETATM    2  C   UNK N   1      35.435  12.546  10.634  0.00  0.00     0.019 A 
HETATM    3  C   UNK N   1      37.266  11.352  11.663  0.00  0.00     0.012 A 
HETATM    4  C   UNK N   1      38.049  11.618  10.533  0.00  0.00     0.001 A 
HETATM    5  C   UNK N   1      37.529  12.383   9.480  0.00  0.00     0.007 A 
HETATM    6  C   UNK N   1      36.200  12.825   9.518  0.00  0.00    -0.053 A 
ENDROOT
BRANCH   6   7
HETATM    7  C   UNK N   1      35.665  13.807   8.512  0.00  0.00     0.102 C 
BRANCH   7   8
HETATM    8  C   UNK N   1      34.894  15.063   8.944  0.00  0.00     0.256 C 
BRANCH   8   9
HETATM    9  P   UNK N   1      35.703  15.900  10.408  0.00  0.00     0.284 P 
HETATM   10  O   UNK N   1      35.532  17.442  10.399  0.00  0.00    -0.651 OA
BRANCH   9  11
HETATM   11  O   UNK N   1      35.104  15.400  11.960  0.00  0.00    -0.327 OA
HETATM   12  H   UNK N   1      34.854  15.968  12.706  0.00  0.00     0.220 HD
ENDBRANCH   9  11
BRANCH   9  13
HETATM   13  O   UNK N   1      37.421  15.661  10.469  0.00  0.00    -0.327 OA
HETATM   14  H   UNK N   1      37.981  16.005  11.184  0.00  0.00     0.220 HD
ENDBRANCH   9  13
ENDBRANCH   8   9
BRANCH   8  15
HETATM   15  P   UNK N   1      33.095  14.732   9.318  0.00  0.00     0.284 P 
HETATM   16  O   UNK N   1      32.198  15.676   8.473  0.00  0.00    -0.651 OA
BRANCH  15  17
HETATM   17  O   UNK N   1      32.613  15.059  10.952  0.00  0.00    -0.327 OA
HETATM   18  H   UNK N   1      33.169  14.852  11.719  0.00  0.00     0.220 HD
ENDBRANCH  15  17
BRANCH  15  19
HETATM   19  O   UNK N   1      32.527  13.138   8.930  0.00  0.00    -0.327 OA
HETATM   20  H   UNK N   1      32.349  12.250   9.276  0.00  0.00     0.220 HD
ENDBRANCH  15  19
ENDBRANCH   8  15
BRANCH   8  21
HETATM   21  O   UNK N   1      34.958  15.958   7.879  0.00  0.00    -0.368 OA
HETATM   22  H   UNK N   1      34.581  16.182   7.014  0.00  0.00     0.212 HD
ENDBRANCH   8  21
ENDBRANCH   7   8
ENDBRANCH   6   7
BRANCH   1  23
HETATM   23  C   UNK N   1      35.152  11.770  12.973  0.00  0.00     0.009 A 
HETATM   24  C   UNK N   1      35.447  12.646  14.020  0.00  0.00     0.098 A 
HETATM   25  O   UNK N   1      36.302  13.654  14.002  0.00  0.00    -0.308 OA
HETATM   26  C   UNK N   1      34.913  12.501  15.276  0.00  0.00     0.012 A 
HETATM   27  C   UNK N   1      36.356  14.155  15.205  0.00  0.00     0.087 A 
HETATM   28  C   UNK N   1      35.519  13.464  16.052  0.00  0.00     0.011 A 
HETATM   29  C   UNK N   1      37.157  15.203  15.643  0.00  0.00     0.038 A 
HETATM   30  C   UNK N   1      35.443  13.767  17.406  0.00  0.00     0.015 A 
HETATM   31  C   UNK N   1      36.254  14.817  17.884  0.00  0.00     0.001 A 
HETATM   32  C   UNK N   1      37.100  15.535  17.006  0.00  0.00     0.003 A 
HETATM   33  C   UNK N   1      33.996  11.492  15.565  0.00  0.00     0.015 A 
HETATM   34  C   UNK N   1      33.625  10.624  14.517  0.00  0.00     0.002 A 
HETATM   35  C   UNK N   1      34.212  10.747  13.234  0.00  0.00     0.015 A 
ENDBRANCH   1  23
TORSDOF 10
ENDMDL
MODEL 2
REMARK VINA RESULT:      -8.3      1.609      2.290
REMARK  10 active torsions:
REMARK  status: ('A' for Active; 'I' for Inactive)
REMARK    1  A    between atoms: C_13  and  C_14 
REMARK    2  A    between atoms: C_19  and  C_20 
REMARK    3  A    between atoms: C_20  and  C_21 
REMARK    4  A    between atoms: C_21  and  P_22 
REMARK    5  A    between atoms: C_21  and  P_26 
REMARK    6  A    between atoms: C_21  and  O_30 
REMARK    7  A    between atoms: P_22  and  O_25 
REMARK    8  A    between atoms: P_22  and  O_24 
REMARK    9  A    between atoms: P_26  and  O_28 
REMARK   10  A    between atoms: P_26  and  O_29 
ROOT
HETATM    1  C   UNK N   1      35.769  12.846  11.687  0.00  0.00    -0.023 A 
HETATM    2  C   UNK N   1      35.127  13.928  11.067  0.00  0.00     0.019 A 
HETATM    3  C   UNK N   1      37.134  12.638  11.441  0.00  0.00     0.012 A 
HETATM    4  C   UNK N   1      37.826  13.500  10.581  0.00  0.00     0.001 A 
HETATM    5  C   UNK N   1      37.169  14.595  10.004  0.00  0.00     0.007 A 
HETATM    6  C   UNK N   1      35.800  14.793  10.226  0.00  0.00    -0.053 A 
ENDROOT
BRANCH   6   7
HETATM    7  C   UNK N   1      35.104  16.054   9.791  0.00  0.00     0.102 C 
BRANCH   7   8
HETATM    8  C   UNK N   1      34.247  16.102   8.517  0.00  0.00     0.256 C 
BRANCH   8   9
HETATM    9  P   UNK N   1      34.067  17.847   7.869  0.00  0.00     0.284 P 
HETATM   10  O   UNK N   1      32.687  18.478   8.190  0.00  0.00    -0.651 OA
BRANCH   9  11
HETATM   11  O   UNK N   1      35.225  18.981   8.490  0.00  0.00    -0.327 OA
HETATM   12  H   UNK N   1      35.067  19.695   9.129  0.00  0.00     0.220 HD
ENDBRANCH   9  11
BRANCH   9  13
HETATM   13  O   UNK N   1      34.191  17.949   6.140  0.00  0.00    -0.327 OA
HETATM   14  H   UNK N   1      34.888  18.448   5.685  0.00  0.00     0.220 HD
ENDBRANCH   9  13
ENDBRANCH   8   9
BRANCH   8  15
HETATM   15  P   UNK N   1      32.559  15.331   8.735  0.00  0.00     0.284 P 
HETATM   16  O   UNK N   1      32.594  13.848   8.279  0.00  0.00    -0.651 OA
BRANCH  15  17
HETATM   17  O   UNK N   1      31.303  16.031   7.767  0.00  0.00    -0.327 OA
HETATM   18  H   UNK N   1      31.412  16.861   7.276  0.00  0.00     0.220 HD
ENDBRANCH  15  17
BRANCH  15  19
HETATM   19  O   UNK N   1      31.968  15.266  10.366  0.00  0.00    -0.327 OA
HETATM   20  H   UNK N   1      31.464  15.734  11.050  0.00  0.00     0.220 HD
ENDBRANCH  15  19
ENDBRANCH   8  15
BRANCH   8  21
HETATM   21  O   UNK N   1      34.932  15.376   7.546  0.00  0.00    -0.368 OA
HETATM   22  H   UNK N   1      34.992  14.517   7.100  0.00  0.00     0.212 HD
ENDBRANCH   8  21
ENDBRANCH   7   8
ENDBRANCH   6   7
BRANCH   1  23
HETATM   23  C   UNK N   1      35.049  12.118  12.761  0.00  0.00     0.009 A 
HETATM   24  C   UNK N   1      35.112  12.571  14.080  0.00  0.00     0.098 A 
HETATM   25  O   UNK N   1      35.655  13.696  14.514  0.00  0.00    -0.308 OA
HETATM   26  C   UNK N   1      34.667  11.821  15.140  0.00  0.00     0.012 A 
HETATM   27  C   UNK N   1      35.594  13.694  15.817  0.00  0.00     0.087 A 
HETATM   28  C   UNK N   1      34.999  12.537  16.268  0.00  0.00     0.011 A 
HETATM   29  C   UNK N   1      36.082  14.665  16.682  0.00  0.00     0.038 A 
HETATM   30  C   UNK N   1      34.872  12.267  17.626  0.00  0.00     0.015 A 
HETATM   31  C   UNK N   1      35.370  13.229  18.529  0.00  0.00     0.001 A 
HETATM   32  C   UNK N   1      35.965  14.424  18.060  0.00  0.00     0.003 A 
HETATM   33  C   UNK N   1      34.072  10.576  14.951  0.00  0.00     0.015 A 
HETATM   34  C   UNK N   1      33.934  10.110  13.627  0.00  0.00     0.002 A 
HETATM   35  C   UNK N   1      34.435  10.865  12.538  0.00  0.00     0.015 A 
ENDBRANCH   1  23
TORSDOF 10
ENDMDL
MODEL 3
REMARK VINA RESULT:      -8.2      1.317      2.608
REMARK  10 active torsions:
REMARK  status: ('A' for Active; 'I' for Inactive)
REMARK    1  A    between atoms: C_13  and  C_14 
REMARK    2  A    between atoms: C_19  and  C_20 
REMARK    3  A    between atoms: C_20  and  C_21 
REMARK    4  A    between atoms: C_21  and  P_22 
REMARK    5  A    between atoms: C_21  and  P_26 
REMARK    6  A    between atoms: C_21  and  O_30 
REMARK    7  A    between atoms: P_22  and  O_25 
REMARK    8  A    between atoms: P_22  and  O_24 
REMARK    9  A    between atoms: P_26  and  O_28 
REMARK   10  A    between atoms: P_26  and  O_29 
ROOT
HETATM    1  C   UNK N   1      35.993  12.738  11.399  0.00  0.00    -0.023 A 
HETATM    2  C   UNK N   1      35.358  13.467  10.382  0.00  0.00     0.019 A 
HETATM    3  C   UNK N   1      37.394  12.747  11.464  0.00  0.00     0.012 A 
HETATM    4  C   UNK N   1      38.131  13.469  10.517  0.00  0.00     0.001 A 
HETATM    5  C   UNK N   1      37.470  14.219   9.535  0.00  0.00     0.007 A 
HETATM    6  C   UNK N   1      36.072  14.193   9.448  0.00  0.00    -0.053 A 
ENDROOT
BRANCH   6   7
HETATM    7  C   UNK N   1      35.319  15.130   8.543  0.00  0.00     0.102 C 
BRANCH   7   8
HETATM    8  C   UNK N   1      34.230  16.068   9.083  0.00  0.00     0.256 C 
BRANCH   8   9
HETATM    9  P   UNK N   1      32.535  15.281   9.000  0.00  0.00     0.284 P 
HETATM   10  O   UNK N   1      31.554  16.044   8.071  0.00  0.00    -0.651 OA
BRANCH   9  11
HETATM   11  O   UNK N   1      32.515  13.647   8.414  0.00  0.00    -0.327 OA
HETATM   12  H   UNK N   1      33.136  13.236   7.792  0.00  0.00     0.220 HD
ENDBRANCH   9  11
BRANCH   9  13
HETATM   13  O   UNK N   1      31.725  15.239  10.535  0.00  0.00    -0.327 OA
HETATM   14  H   UNK N   1      31.082  14.554  10.778  0.00  0.00     0.220 HD
ENDBRANCH   9  13
ENDBRANCH   8   9
BRANCH   8  15
HETATM   15  P   UNK N   1      34.198  17.730   8.231  0.00  0.00     0.284 P 
HETATM   16  O   UNK N   1      34.576  17.563   6.735  0.00  0.00    -0.651 OA
BRANCH  15  17
HETATM   17  O   UNK N   1      35.354  18.879   8.823  0.00  0.00    -0.327 OA
HETATM   18  H   UNK N   1      36.044  18.653   9.466  0.00  0.00     0.220 HD
ENDBRANCH  15  17
BRANCH  15  19
HETATM   19  O   UNK N   1      32.657  18.528   8.199  0.00  0.00    -0.327 OA
HETATM   20  H   UNK N   1      31.814  18.613   7.728  0.00  0.00     0.220 HD
ENDBRANCH  15  19
ENDBRANCH   8  15
BRANCH   8  21
HETATM   21  O   UNK N   1      34.514  16.278  10.431  0.00  0.00    -0.368 OA
HETATM   22  H   UNK N   1      35.158  16.109  11.135  0.00  0.00     0.212 HD
ENDBRANCH   8  21
ENDBRANCH   7   8
ENDBRANCH   6   7
BRANCH   1  23
HETATM   23  C   UNK N   1      35.163  12.194  12.501  0.00  0.00     0.009 A 
HETATM   24  C   UNK N   1      35.260  12.732  13.785  0.00  0.00     0.098 A 
HETATM   25  O   UNK N   1      35.939  13.807  14.152  0.00  0.00    -0.308 OA
HETATM   26  C   UNK N   1      34.700  12.130  14.883  0.00  0.00     0.012 A 
HETATM   27  C   UNK N   1      35.853  13.911  15.450  0.00  0.00     0.087 A 
HETATM   28  C   UNK N   1      35.102  12.879  15.967  0.00  0.00     0.011 A 
HETATM   29  C   UNK N   1      36.449  14.874  16.256  0.00  0.00     0.038 A 
HETATM   30  C   UNK N   1      34.915  12.732  17.336  0.00  0.00     0.015 A 
HETATM   31  C   UNK N   1      35.519  13.686  18.181  0.00  0.00     0.001 A 
HETATM   32  C   UNK N   1      36.275  14.754  17.643  0.00  0.00     0.003 A 
HETATM   33  C   UNK N   1      33.949  10.961  14.769  0.00  0.00     0.015 A 
HETATM   34  C   UNK N   1      33.776  10.419  13.478  0.00  0.00     0.002 A 
HETATM   35  C   UNK N   1      34.393  11.017  12.353  0.00  0.00     0.015 A 
ENDBRANCH   1  23
TORSDOF 10
ENDMDL
MODEL 4
REMARK VINA RESULT:      -7.9      5.561      9.327
REMARK  10 active torsions:
REMARK  status: ('A' for Active; 'I' for Inactive)
REMARK    1  A    between atoms: C_13  and  C_14 
REMARK    2  A    between atoms: C_19  and  C_20 
REMARK    3  A    between atoms: C_20  and  C_21 
REMARK    4  A    between atoms: C_21  and  P_22 
REMARK    5  A    between atoms: C_21  and  P_26 
REMARK    6  A    between atoms: C_21  and  O_30 
REMARK    7  A    between atoms: P_22  and  O_25 
REMARK    8  A    between atoms: P_22  and  O_24 
REMARK    9  A    between atoms: P_26  and  O_28 
REMARK   10  A    between atoms: P_26  and  O_29 
ROOT
HETATM    1  C   UNK N   1      31.386  16.133   7.001  0.00  0.00    -0.023 A 
HETATM    2  C   UNK N   1      32.705  16.217   7.474  0.00  0.00     0.019 A 
HETATM    3  C   UNK N   1      31.071  15.157   6.046  0.00  0.00     0.012 A 
HETATM    4  C   UNK N   1      32.070  14.294   5.574  0.00  0.00     0.001 A 
HETATM    5  C   UNK N   1      33.370  14.376   6.091  0.00  0.00     0.007 A 
HETATM    6  C   UNK N   1      33.698  15.366   7.027  0.00  0.00    -0.053 A 
ENDROOT
BRANCH   6   7
HETATM    7  C   UNK N   1      35.018  15.365   7.748  0.00  0.00     0.102 C 
BRANCH   7   8
HETATM    8  C   UNK N   1      35.242  14.525   9.014  0.00  0.00     0.256 C 
BRANCH   8   9
HETATM    9  P   UNK N   1      34.722  15.446  10.557  0.00  0.00     0.284 P 
HETATM   10  O   UNK N   1      35.635  15.155  11.777  0.00  0.00    -0.651 OA
BRANCH   9  11
HETATM   11  O   UNK N   1      34.722  17.176  10.411  0.00  0.00    -0.327 OA
HETATM   12  H   UNK N   1      33.961  17.774  10.485  0.00  0.00     0.220 HD
ENDBRANCH   9  11
BRANCH   9  13
HETATM   13  O   UNK N   1      33.130  15.020  11.104  0.00  0.00    -0.327 OA
HETATM   14  H   UNK N   1      32.387  15.644  11.112  0.00  0.00     0.220 HD
ENDBRANCH   9  13
ENDBRANCH   8   9
BRANCH   8  15
HETATM   15  P   UNK N   1      37.000  13.923   9.198  0.00  0.00     0.284 P 
HETATM   16  O   UNK N   1      37.667  13.806   7.802  0.00  0.00    -0.651 OA
BRANCH  15  17
HETATM   17  O   UNK N   1      37.164  12.332   9.869  0.00  0.00    -0.327 OA
HETATM   18  H   UNK N   1      37.893  11.734   9.641  0.00  0.00     0.220 HD
ENDBRANCH  15  17
BRANCH  15  19
HETATM   19  O   UNK N   1      38.061  14.964  10.095  0.00  0.00    -0.327 OA
HETATM   20  H   UNK N   1      38.937  15.050  10.502  0.00  0.00     0.220 HD
ENDBRANCH  15  19
ENDBRANCH   8  15
BRANCH   8  21
HETATM   21  O   UNK N   1      34.411  13.411   8.908  0.00  0.00    -0.368 OA
HETATM   22  H   UNK N   1      34.383  12.443   8.948  0.00  0.00     0.212 HD
ENDBRANCH   8  21
ENDBRANCH   7   8
ENDBRANCH   6   7
BRANCH   1  23
HETATM   23  C   UNK N   1      30.334  16.907   7.704  0.00  0.00     0.009 A 
HETATM   24  C   UNK N   1      29.427  17.680   6.977  0.00  0.00     0.098 A 
HETATM   25  O   UNK N   1      29.289  17.724   5.662  0.00  0.00    -0.308 OA
HETATM   26  C   UNK N   1      28.589  18.590   7.571  0.00  0.00     0.012 A 
HETATM   27  C   UNK N   1      28.405  18.643   5.383  0.00  0.00     0.087 A 
HETATM   28  C   UNK N   1      27.942  19.231   6.539  0.00  0.00     0.011 A 
HETATM   29  C   UNK N   1      27.984  19.047   4.122  0.00  0.00     0.038 A 
HETATM   30  C   UNK N   1      27.036  20.284   6.505  0.00  0.00     0.015 A 
HETATM   31  C   UNK N   1      26.600  20.727   5.239  0.00  0.00     0.001 A 
HETATM   32  C   UNK N   1      27.066  20.107   4.055  0.00  0.00     0.003 A 
HETATM   33  C   UNK N   1      28.558  18.755   8.955  0.00  0.00     0.015 A 
HETATM   34  C   UNK N   1      29.417  17.947   9.730  0.00  0.00     0.002 A 
HETATM   35  C   UNK N   1      30.313  17.042   9.111  0.00  0.00     0.015 A 
ENDBRANCH   1  23
TORSDOF 10
ENDMDL
MODEL 5
REMARK VINA RESULT:      -7.8      5.189      9.159
REMARK  10 active torsions:
REMARK  status: ('A' for Active; 'I' for Inactive)
REMARK    1  A    between atoms: C_13  and  C_14 
REMARK    2  A    between atoms: C_19  and  C_20 
REMARK    3  A    between atoms: C_20  and  C_21 
REMARK    4  A    between atoms: C_21  and  P_22 
REMARK    5  A    between atoms: C_21  and  P_26 
REMARK    6  A    between atoms: C_21  and  O_30 
REMARK    7  A    between atoms: P_22  and  O_25 
REMARK    8  A    between atoms: P_22  and  O_24 
REMARK    9  A    between atoms: P_26  and  O_28 
REMARK   10  A    between atoms: P_26  and  O_29 
ROOT
HETATM    1  C   UNK N   1      32.189  17.101   7.793  0.00  0.00    -0.023 A 
HETATM    2  C   UNK N   1      32.716  16.104   8.629  0.00  0.00     0.019 A 
HETATM    3  C   UNK N   1      32.942  17.526   6.689  0.00  0.00     0.012 A 
HETATM    4  C   UNK N   1      34.201  16.961   6.445  0.00  0.00     0.001 A 
HETATM    5  C   UNK N   1      34.686  15.940   7.273  0.00  0.00     0.007 A 
HETATM    6  C   UNK N   1      33.950  15.529   8.393  0.00  0.00    -0.053 A 
ENDROOT
BRANCH   6   7
HETATM    7  C   UNK N   1      34.337  14.313   9.189  0.00  0.00     0.102 C 
BRANCH   7   8
HETATM    8  C   UNK N   1      34.596  14.390  10.701  0.00  0.00     0.256 C 
BRANCH   8   9
HETATM    9  P   UNK N   1      35.977  15.585  11.106  0.00  0.00     0.284 P 
HETATM   10  O   UNK N   1      35.654  17.048  10.704  0.00  0.00    -0.651 OA
BRANCH   9  11
HETATM   11  O   UNK N   1      36.398  15.674  12.788  0.00  0.00    -0.327 OA
HETATM   12  H   UNK N   1      35.803  15.833  13.537  0.00  0.00     0.220 HD
ENDBRANCH   9  11
BRANCH   9  13
HETATM   13  O   UNK N   1      37.456  15.228  10.269  0.00  0.00    -0.327 OA
HETATM   14  H   UNK N   1      37.986  14.434  10.442  0.00  0.00     0.220 HD
ENDBRANCH   9  13
ENDBRANCH   8   9
BRANCH   8  15
HETATM   15  P   UNK N   1      34.949  12.728  11.475  0.00  0.00     0.284 P 
HETATM   16  O   UNK N   1      34.744  12.807  13.011  0.00  0.00    -0.651 OA
BRANCH  15  17
HETATM   17  O   UNK N   1      36.583  12.173  11.305  0.00  0.00    -0.327 OA
HETATM   18  H   UNK N   1      36.814  11.241  11.164  0.00  0.00     0.220 HD
ENDBRANCH  15  17
BRANCH  15  19
HETATM   19  O   UNK N   1      33.915  11.429  10.969  0.00  0.00    -0.327 OA
HETATM   20  H   UNK N   1      33.816  10.681  10.359  0.00  0.00     0.220 HD
ENDBRANCH  15  19
ENDBRANCH   8  15
BRANCH   8  21
HETATM   21  O   UNK N   1      33.436  14.900  11.280  0.00  0.00    -0.368 OA
HETATM   22  H   UNK N   1      33.040  15.683  11.693  0.00  0.00     0.212 HD
ENDBRANCH   8  21
ENDBRANCH   7   8
ENDBRANCH   6   7
BRANCH   1  23
HETATM   23  C   UNK N   1      30.767  17.486   7.964  0.00  0.00     0.009 A 
HETATM   24  C   UNK N   1      29.844  17.233   6.948  0.00  0.00     0.098 A 
HETATM   25  O   UNK N   1      30.046  16.542   5.838  0.00  0.00    -0.308 OA
HETATM   26  C   UNK N   1      28.580  17.767   6.948  0.00  0.00     0.012 A 
HETATM   27  C   UNK N   1      28.966  16.627   5.111  0.00  0.00     0.087 A 
HETATM   28  C   UNK N   1      28.017  17.395   5.748  0.00  0.00     0.011 A 
HETATM   29  C   UNK N   1      28.758  16.082   3.850  0.00  0.00     0.038 A 
HETATM   30  C   UNK N   1      26.797  17.686   5.150  0.00  0.00     0.015 A 
HETATM   31  C   UNK N   1      26.561  17.158   3.863  0.00  0.00     0.001 A 
HETATM   32  C   UNK N   1      27.533  16.356   3.220  0.00  0.00     0.003 A 
HETATM   33  C   UNK N   1      28.124  18.558   8.001  0.00  0.00     0.015 A 
HETATM   34  C   UNK N   1      29.007  18.787   9.078  0.00  0.00     0.002 A 
HETATM   35  C   UNK N   1      30.327  18.272   9.053  0.00  0.00     0.015 A 
ENDBRANCH   1  23
TORSDOF 10
ENDMDL
MODEL 6
REMARK VINA RESULT:      -7.7      5.555      9.315
REMARK  10 active torsions:
REMARK  status: ('A' for Active; 'I' for Inactive)
REMARK    1  A    between atoms: C_13  and  C_14 
REMARK    2  A    between atoms: C_19  and  C_20 
REMARK    3  A    between atoms: C_20  and  C_21 
REMARK    4  A    between atoms: C_21  and  P_22 
REMARK    5  A    between atoms: C_21  and  P_26 
REMARK    6  A    between atoms: C_21  and  O_30 
REMARK    7  A    between atoms: P_22  and  O_25 
REMARK    8  A    between atoms: P_22  and  O_24 
REMARK    9  A    between atoms: P_26  and  O_28 
REMARK   10  A    between atoms: P_26  and  O_29 
ROOT
HETATM    1  C   UNK N   1      31.280  16.030   6.966  0.00  0.00    -0.023 A 
HETATM    2  C   UNK N   1      32.611  16.035   7.411  0.00  0.00     0.019 A 
HETATM    3  C   UNK N   1      30.891  15.088   6.004  0.00  0.00     0.012 A 
HETATM    4  C   UNK N   1      31.831  14.180   5.498  0.00  0.00     0.001 A 
HETATM    5  C   UNK N   1      33.144  14.181   5.987  0.00  0.00     0.007 A 
HETATM    6  C   UNK N   1      33.545  15.137   6.930  0.00  0.00    -0.053 A 
ENDROOT
BRANCH   6   7
HETATM    7  C   UNK N   1      34.878  15.053   7.622  0.00  0.00     0.102 C 
BRANCH   7   8
HETATM    8  C   UNK N   1      35.033  14.372   8.990  0.00  0.00     0.256 C 
BRANCH   8   9
HETATM    9  P   UNK N   1      34.160  12.719   9.042  0.00  0.00     0.284 P 
HETATM   10  O   UNK N   1      34.563  11.856  10.267  0.00  0.00    -0.651 OA
BRANCH   9  11
HETATM   11  O   UNK N   1      32.428  12.807   9.116  0.00  0.00    -0.327 OA
HETATM   12  H   UNK N   1      31.817  13.018   8.393  0.00  0.00     0.220 HD
ENDBRANCH   9  11
BRANCH   9  13
HETATM   13  O   UNK N   1      34.521  11.712   7.674  0.00  0.00    -0.327 OA
HETATM   14  H   UNK N   1      33.850  11.425   7.034  0.00  0.00     0.220 HD
ENDBRANCH   9  13
ENDBRANCH   8   9
BRANCH   8  15
HETATM   15  P   UNK N   1      34.457  15.437  10.413  0.00  0.00     0.284 P 
HETATM   16  O   UNK N   1      35.345  15.177  11.659  0.00  0.00    -0.651 OA
BRANCH  15  17
HETATM   17  O   UNK N   1      32.850  15.105  10.974  0.00  0.00    -0.327 OA
HETATM   18  H   UNK N   1      32.433  15.590  11.703  0.00  0.00     0.220 HD
ENDBRANCH  15  17
BRANCH  15  19
HETATM   19  O   UNK N   1      34.563  17.151  10.159  0.00  0.00    -0.327 OA
HETATM   20  H   UNK N   1      35.133  17.933  10.228  0.00  0.00     0.220 HD
ENDBRANCH  15  19
ENDBRANCH   8  15
BRANCH   8  21
HETATM   21  O   UNK N   1      36.392  14.119   9.160  0.00  0.00    -0.368 OA
HETATM   22  H   UNK N   1      37.060  13.787   9.780  0.00  0.00     0.212 HD
ENDBRANCH   8  21
ENDBRANCH   7   8
ENDBRANCH   6   7
BRANCH   1  23
HETATM   23  C   UNK N   1      30.287  16.849   7.703  0.00  0.00     0.009 A 
HETATM   24  C   UNK N   1      29.389  17.660   7.006  0.00  0.00     0.098 A 
HETATM   25  O   UNK N   1      29.206  17.708   5.697  0.00  0.00    -0.308 OA
HETATM   26  C   UNK N   1      28.612  18.605   7.627  0.00  0.00     0.012 A 
HETATM   27  C   UNK N   1      28.354  18.663   5.447  0.00  0.00     0.087 A 
HETATM   28  C   UNK N   1      27.957  19.272   6.616  0.00  0.00     0.011 A 
HETATM   29  C   UNK N   1      27.906  19.083   4.200  0.00  0.00     0.038 A 
HETATM   30  C   UNK N   1      27.096  20.363   6.611  0.00  0.00     0.015 A 
HETATM   31  C   UNK N   1      26.634  20.822   5.359  0.00  0.00     0.001 A 
HETATM   32  C   UNK N   1      27.032  20.180   4.162  0.00  0.00     0.003 A 
HETATM   33  C   UNK N   1      28.637  18.774   9.010  0.00  0.00     0.015 A 
HETATM   34  C   UNK N   1      29.487  17.931   9.757  0.00  0.00     0.002 A 
HETATM   35  C   UNK N   1      30.321  16.988   9.109  0.00  0.00     0.015 A 
ENDBRANCH   1  23
TORSDOF 10
ENDMDL
MODEL 7
REMARK VINA RESULT:      -7.7      7.098     11.188
REMARK  10 active torsions:
REMARK  status: ('A' for Active; 'I' for Inactive)
REMARK    1  A    between atoms: C_13  and  C_14 
REMARK    2  A    between atoms: C_19  and  C_20 
REMARK    3  A    between atoms: C_20  and  C_21 
REMARK    4  A    between atoms: C_21  and  P_22 
REMARK    5  A    between atoms: C_21  and  P_26 
REMARK    6  A    between atoms: C_21  and  O_30 
REMARK    7  A    between atoms: P_22  and  O_25 
REMARK    8  A    between atoms: P_22  and  O_24 
REMARK    9  A    between atoms: P_26  and  O_28 
REMARK   10  A    between atoms: P_26  and  O_29 
ROOT
HETATM    1  C   UNK N   1      28.545  17.724   7.462  0.00  0.00    -0.023 A 
HETATM    2  C   UNK N   1      29.944  17.639   7.409  0.00  0.00     0.019 A 
HETATM    3  C   UNK N   1      27.907  17.625   8.707  0.00  0.00     0.012 A 
HETATM    4  C   UNK N   1      28.669  17.435   9.867  0.00  0.00     0.001 A 
HETATM    5  C   UNK N   1      30.067  17.391   9.790  0.00  0.00     0.007 A 
HETATM    6  C   UNK N   1      30.709  17.464   8.546  0.00  0.00    -0.053 A 
ENDROOT
BRANCH   6   7
HETATM    7  C   UNK N   1      32.202  17.618   8.435  0.00  0.00     0.102 C 
BRANCH   7   8
HETATM    8  C   UNK N   1      33.111  16.424   8.109  0.00  0.00     0.256 C 
BRANCH   8   9
HETATM    9  P   UNK N   1      34.448  16.200   9.399  0.00  0.00     0.284 P 
HETATM   10  O   UNK N   1      35.545  15.190   8.970  0.00  0.00    -0.651 OA
BRANCH   9  11
HETATM   11  O   UNK N   1      35.317  17.645   9.810  0.00  0.00    -0.327 OA
HETATM   12  H   UNK N   1      35.088  18.559   9.575  0.00  0.00     0.220 HD
ENDBRANCH   9  11
BRANCH   9  13
HETATM   13  O   UNK N   1      33.849  15.569  10.901  0.00  0.00    -0.327 OA
HETATM   14  H   UNK N   1      34.139  15.894  11.768  0.00  0.00     0.220 HD
ENDBRANCH   9  13
ENDBRANCH   8   9
BRANCH   8  15
HETATM   15  P   UNK N   1      33.881  16.525   6.411  0.00  0.00     0.284 P 
HETATM   16  O   UNK N   1      34.195  18.004   6.061  0.00  0.00    -0.651 OA
BRANCH  15  17
HETATM   17  O   UNK N   1      32.860  16.002   5.111  0.00  0.00    -0.327 OA
HETATM   18  H   UNK N   1      32.192  16.572   4.699  0.00  0.00     0.220 HD
ENDBRANCH  15  17
BRANCH  15  19
HETATM   19  O   UNK N   1      35.401  15.707   6.225  0.00  0.00    -0.327 OA
HETATM   20  H   UNK N   1      36.048  15.364   5.590  0.00  0.00     0.220 HD
ENDBRANCH  15  19
ENDBRANCH   8  15
BRANCH   8  21
HETATM   21  O   UNK N   1      32.309  15.285   8.154  0.00  0.00    -0.368 OA
HETATM   22  H   UNK N   1      32.305  14.331   8.327  0.00  0.00     0.212 HD
ENDBRANCH   8  21
ENDBRANCH   7   8
ENDBRANCH   6   7
BRANCH   1  23
HETATM   23  C   UNK N   1      27.817  18.158   6.244  0.00  0.00     0.009 A 
HETATM   24  C   UNK N   1      27.280  17.211   5.371  0.00  0.00     0.098 A 
HETATM   25  O   UNK N   1      27.217  15.902   5.552  0.00  0.00    -0.308 OA
HETATM   26  C   UNK N   1      26.806  17.539   4.126  0.00  0.00     0.012 A 
HETATM   27  C   UNK N   1      26.738  15.369   4.462  0.00  0.00     0.087 A 
HETATM   28  C   UNK N   1      26.475  16.344   3.526  0.00  0.00     0.011 A 
HETATM   29  C   UNK N   1      26.540  14.018   4.205  0.00  0.00     0.038 A 
HETATM   30  C   UNK N   1      26.013  16.025   2.255  0.00  0.00     0.015 A 
HETATM   31  C   UNK N   1      25.815  14.660   1.959  0.00  0.00     0.001 A 
HETATM   32  C   UNK N   1      26.070  13.664   2.931  0.00  0.00     0.003 A 
HETATM   33  C   UNK N   1      26.785  18.859   3.680  0.00  0.00     0.015 A 
HETATM   34  C   UNK N   1      27.262  19.855   4.557  0.00  0.00     0.002 A 
HETATM   35  C   UNK N   1      27.793  19.508   5.824  0.00  0.00     0.015 A 
ENDBRANCH   1  23
TORSDOF 10
ENDMDL
MODEL 8
REMARK VINA RESULT:      -7.6      2.977      4.788
REMARK  10 active torsions:
REMARK  status: ('A' for Active; 'I' for Inactive)
REMARK    1  A    between atoms: C_13  and  C_14 
REMARK    2  A    between atoms: C_19  and  C_20 
REMARK    3  A    between atoms: C_20  and  C_21 
REMARK    4  A    between atoms: C_21  and  P_22 
REMARK    5  A    between atoms: C_21  and  P_26 
REMARK    6  A    between atoms: C_21  and  O_30 
REMARK    7  A    between atoms: P_22  and  O_25 
REMARK    8  A    between atoms: P_22  and  O_24 
REMARK    9  A    between atoms: P_26  and  O_28 
REMARK   10  A    between atoms: P_26  and  O_29 
ROOT
HETATM    1  C   UNK N   1      34.735  11.816  15.120  0.00  0.00    -0.023 A 
HETATM    2  C   UNK N   1      35.569  12.311  14.105  0.00  0.00     0.019 A 
HETATM    3  C   UNK N   1      33.774  10.849  14.793  0.00  0.00     0.012 A 
HETATM    4  C   UNK N   1      33.655  10.403  13.470  0.00  0.00     0.001 A 
HETATM    5  C   UNK N   1      34.525  10.887  12.484  0.00  0.00     0.007 A 
HETATM    6  C   UNK N   1      35.471  11.872  12.799  0.00  0.00    -0.053 A 
ENDROOT
BRANCH   6   7
HETATM    7  C   UNK N   1      36.547  12.274  11.827  0.00  0.00     0.102 C 
BRANCH   7   8
HETATM    8  C   UNK N   1      36.271  13.262  10.684  0.00  0.00     0.256 C 
BRANCH   8   9
HETATM    9  P   UNK N   1      37.790  13.543   9.630  0.00  0.00     0.284 P 
HETATM   10  O   UNK N   1      37.465  13.687   8.120  0.00  0.00    -0.651 OA
BRANCH   9  11
HETATM   11  O   UNK N   1      38.700  14.968  10.022  0.00  0.00    -0.327 OA
HETATM   12  H   UNK N   1      39.454  15.038  10.629  0.00  0.00     0.220 HD
ENDBRANCH   9  11
BRANCH   9  13
HETATM   13  O   UNK N   1      38.922  12.228   9.699  0.00  0.00    -0.327 OA
HETATM   14  H   UNK N   1      38.658  11.306   9.846  0.00  0.00     0.220 HD
ENDBRANCH   9  13
ENDBRANCH   8   9
BRANCH   8  15
HETATM   15  P   UNK N   1      35.597  14.901  11.274  0.00  0.00     0.284 P 
HETATM   16  O   UNK N   1      35.956  16.016  10.255  0.00  0.00    -0.651 OA
BRANCH  15  17
HETATM   17  O   UNK N   1      36.267  15.475  12.767  0.00  0.00    -0.327 OA
HETATM   18  H   UNK N   1      36.709  16.334  12.854  0.00  0.00     0.220 HD
ENDBRANCH  15  17
BRANCH  15  19
HETATM   19  O   UNK N   1      33.870  14.994  11.422  0.00  0.00    -0.327 OA
HETATM   20  H   UNK N   1      33.133  15.327  11.957  0.00  0.00     0.220 HD
ENDBRANCH  15  19
ENDBRANCH   8  15
BRANCH   8  21
HETATM   21  O   UNK N   1      35.312  12.669   9.865  0.00  0.00    -0.368 OA
HETATM   22  H   UNK N   1      34.361  12.533   9.737  0.00  0.00     0.212 HD
ENDBRANCH   8  21
ENDBRANCH   7   8
ENDBRANCH   6   7
BRANCH   1  23
HETATM   23  C   UNK N   1      35.063  12.146  16.528  0.00  0.00     0.009 A 
HETATM   24  C   UNK N   1      35.135  11.136  17.488  0.00  0.00     0.098 A 
HETATM   25  O   UNK N   1      35.069   9.831  17.282  0.00  0.00    -0.308 OA
HETATM   26  C   UNK N   1      35.203  11.399  18.833  0.00  0.00     0.012 A 
HETATM   27  C   UNK N   1      35.073   9.241  18.445  0.00  0.00     0.087 A 
HETATM   28  C   UNK N   1      35.140  10.173  19.457  0.00  0.00     0.011 A 
HETATM   29  C   UNK N   1      34.980   7.877  18.695  0.00  0.00     0.038 A 
HETATM   30  C   UNK N   1      35.096   9.797  20.794  0.00  0.00     0.015 A 
HETATM   31  C   UNK N   1      34.988   8.420  21.080  0.00  0.00     0.001 A 
HETATM   32  C   UNK N   1      34.937   7.466  20.036  0.00  0.00     0.003 A 
HETATM   33  C   UNK N   1      35.259  12.704  19.318  0.00  0.00     0.015 A 
HETATM   34  C   UNK N   1      35.251  13.753  18.375  0.00  0.00     0.002 A 
HETATM   35  C   UNK N   1      35.135  13.480  16.990  0.00  0.00     0.015 A 
ENDBRANCH   1  23
TORSDOF 10
ENDMDL
MODEL 9
REMARK VINA RESULT:      -7.6      2.654      3.841
REMARK  10 active torsions:
REMARK  status: ('A' for Active; 'I' for Inactive)
REMARK    1  A    between atoms: C_13  and  C_14 
REMARK    2  A    between atoms: C_19  and  C_20 
REMARK    3  A    between atoms: C_20  and  C_21 
REMARK    4  A    between atoms: C_21  and  P_22 
REMARK    5  A    between atoms: C_21  and  P_26 
REMARK    6  A    between atoms: C_21  and  O_30 
REMARK    7  A    between atoms: P_22  and  O_25 
REMARK    8  A    between atoms: P_22  and  O_24 
REMARK    9  A    between atoms: P_26  and  O_28 
REMARK   10  A    between atoms: P_26  and  O_29 
ROOT
HETATM    1  C   UNK N   1      36.438   9.133  14.133  0.00  0.00    -0.023 A 
HETATM    2  C   UNK N   1      35.831  10.161  13.396  0.00  0.00     0.019 A 
HETATM    3  C   UNK N   1      37.682   8.643  13.711  0.00  0.00     0.012 A 
HETATM    4  C   UNK N   1      38.290   9.175  12.566  0.00  0.00     0.001 A 
HETATM    5  C   UNK N   1      37.679  10.227  11.871  0.00  0.00     0.007 A 
HETATM    6  C   UNK N   1      36.424  10.704  12.272  0.00  0.00    -0.053 A 
ENDROOT
BRANCH   6   7
HETATM    7  C   UNK N   1      35.827  11.952  11.680  0.00  0.00     0.102 C 
BRANCH   7   8
HETATM    8  C   UNK N   1      36.409  13.341  11.978  0.00  0.00     0.256 C 
BRANCH   8   9
HETATM    9  P   UNK N   1      36.297  13.763  13.797  0.00  0.00     0.284 P 
HETATM   10  O   UNK N   1      36.569  15.261  14.093  0.00  0.00    -0.651 OA
BRANCH   9  11
HETATM   11  O   UNK N   1      34.756  13.443  14.529  0.00  0.00    -0.327 OA
HETATM   12  H   UNK N   1      34.496  13.602  15.451  0.00  0.00     0.220 HD
ENDBRANCH   9  11
BRANCH   9  13
HETATM   13  O   UNK N   1      37.463  12.917  14.768  0.00  0.00    -0.327 OA
HETATM   14  H   UNK N   1      37.559  11.951  14.761  0.00  0.00     0.220 HD
ENDBRANCH   9  13
ENDBRANCH   8   9
BRANCH   8  15
HETATM   15  P   UNK N   1      35.628  14.701  10.964  0.00  0.00     0.284 P 
HETATM   16  O   UNK N   1      35.627  14.306   9.464  0.00  0.00    -0.651 OA
BRANCH  15  17
HETATM   17  O   UNK N   1      36.475  16.215  10.992  0.00  0.00    -0.327 OA
HETATM   18  H   UNK N   1      36.028  17.070  11.093  0.00  0.00     0.220 HD
ENDBRANCH  15  17
BRANCH  15  19
HETATM   19  O   UNK N   1      33.964  15.043  11.321  0.00  0.00    -0.327 OA
HETATM   20  H   UNK N   1      33.333  15.724  11.603  0.00  0.00     0.220 HD
ENDBRANCH  15  19
ENDBRANCH   8  15
BRANCH   8  21
HETATM   21  O   UNK N   1      37.764  13.285  11.658  0.00  0.00    -0.368 OA
HETATM   22  H   UNK N   1      38.407  12.960  11.009  0.00  0.00     0.212 HD
ENDBRANCH   8  21
ENDBRANCH   7   8
ENDBRANCH   6   7
BRANCH   1  23
HETATM   23  C   UNK N   1      35.866   8.778  15.454  0.00  0.00     0.009 A 
HETATM   24  C   UNK N   1      35.587   9.776  16.390  0.00  0.00     0.098 A 
HETATM   25  O   UNK N   1      35.649  11.085  16.205  0.00  0.00    -0.308 OA
HETATM   26  C   UNK N   1      35.280   9.497  17.698  0.00  0.00     0.012 A 
HETATM   27  C   UNK N   1      35.412  11.662  17.351  0.00  0.00     0.087 A 
HETATM   28  C   UNK N   1      35.189  10.718  18.328  0.00  0.00     0.011 A 
HETATM   29  C   UNK N   1      35.416  13.025  17.620  0.00  0.00     0.038 A 
HETATM   30  C   UNK N   1      34.973  11.080  19.652  0.00  0.00     0.015 A 
HETATM   31  C   UNK N   1      34.984  12.457  19.960  0.00  0.00     0.001 A 
HETATM   32  C   UNK N   1      35.197  13.423  18.948  0.00  0.00     0.003 A 
HETATM   33  C   UNK N   1      35.175   8.186  18.157  0.00  0.00     0.015 A 
HETATM   34  C   UNK N   1      35.389   7.147  17.227  0.00  0.00     0.002 A 
HETATM   35  C   UNK N   1      35.751   7.438  15.889  0.00  0.00     0.015 A 
ENDBRANCH   1  23
TORSDOF 10
ENDMDL
