MODEL 1
REMARK VINA RESULT:      -6.0      0.000      0.000
REMARK  3 active torsions:
REMARK  status: ('A' for Active; 'I' for Inactive)
REMARK    1  A    between atoms: N_1  and  C_9 
REMARK    2  A    between atoms: C_6  and  C_11 
REMARK    3  A    between atoms: C_9  and  C_10 
ROOT
HETATM    1  C   UNK N   1      35.198  12.257  12.950  0.00  0.00     0.010 A 
HETATM    2  C   UNK N   1      34.400  11.161  12.654  0.00  0.00     0.001 A 
HETATM    3  C   UNK N   1      33.866  10.404  13.680  0.00  0.00     0.001 A 
HETATM    4  C   UNK N   1      34.134  10.748  14.999  0.00  0.00     0.013 A 
HETATM    5  C   UNK N   1      34.939  11.853  15.355  0.00  0.00    -0.018 A 
HETATM    6  C   UNK N   1      35.497  12.645  14.265  0.00  0.00    -0.030 A 
ENDROOT
BRANCH   5   7
HETATM    7  C   UNK N   1      35.103  12.049  16.845  0.00  0.00    -0.025 A 
HETATM    8  C   UNK N   1      35.379  11.013  17.735  0.00  0.00     0.012 A 
HETATM    9  C   UNK N   1      35.523  11.234  19.107  0.00  0.00     0.001 A 
HETATM   10  C   UNK N   1      35.389  12.522  19.621  0.00  0.00     0.000 A 
HETATM   11  C   UNK N   1      35.113  13.583  18.759  0.00  0.00     0.001 A 
HETATM   12  C   UNK N   1      34.971  13.348  17.388  0.00  0.00     0.012 A 
ENDBRANCH   5   7
BRANCH   6  13
HETATM   13  C   UNK N   1      36.390  13.878  14.259  0.00  0.00     0.150 C 
BRANCH  13  14
HETATM   14  N   UNK N   1      36.683  14.566  13.025  0.00  0.00    -0.426 N 
HETATM   15  H   UNK N   1      37.631  14.887  12.833  0.00  0.00     0.150 HD
HETATM   16  H   UNK N   1      35.941  14.730  12.345  0.00  0.00     0.150 HD
ENDBRANCH  13  14
ENDBRANCH   6  13
TORSDOF 3
ENDMDL
MODEL 2
REMARK VINA RESULT:      -5.8      1.598      2.588
REMARK  3 active torsions:
REMARK  status: ('A' for Active; 'I' for Inactive)
REMARK    1  A    between atoms: N_1  and  C_9 
REMARK    2  A    between atoms: C_6  and  C_11 
REMARK    3  A    between atoms: C_9  and  C_10 
ROOT
HETATM    1  C   UNK N   1      35.037  12.735  13.033  0.00  0.00     0.010 A 
HETATM    2  C   UNK N   1      35.826  13.860  12.837  0.00  0.00     0.001 A 
HETATM    3  C   UNK N   1      36.466  14.446  13.912  0.00  0.00     0.001 A 
HETATM    4  C   UNK N   1      36.313  13.904  15.182  0.00  0.00     0.013 A 
HETATM    5  C   UNK N   1      35.521  12.760  15.437  0.00  0.00    -0.018 A 
HETATM    6  C   UNK N   1      34.851  12.150  14.295  0.00  0.00    -0.030 A 
ENDROOT
BRANCH   5   7
HETATM    7  C   UNK N   1      35.491  12.337  16.888  0.00  0.00    -0.025 A 
HETATM    8  C   UNK N   1      35.788  11.046  17.324  0.00  0.00     0.012 A 
HETATM    9  C   UNK N   1      35.749  10.694  18.675  0.00  0.00     0.001 A 
HETATM   10  C   UNK N   1      35.406  11.646  19.632  0.00  0.00     0.000 A 
HETATM   11  C   UNK N   1      35.103  12.947  19.232  0.00  0.00     0.001 A 
HETATM   12  C   UNK N   1      35.145  13.287  17.876  0.00  0.00     0.012 A 
ENDBRANCH   5   7
BRANCH   6  13
HETATM   13  C   UNK N   1      33.937  10.938  14.183  0.00  0.00     0.150 C 
BRANCH  13  14
HETATM   14  N   UNK N   1      33.569  10.413  12.891  0.00  0.00    -0.426 N 
HETATM   15  H   UNK N   1      32.672  10.661  12.477  0.00  0.00     0.150 HD
HETATM   16  H   UNK N   1      34.209   9.794  12.391  0.00  0.00     0.150 HD
ENDBRANCH  13  14
ENDBRANCH   6  13
TORSDOF 3
ENDMDL
MODEL 3
REMARK VINA RESULT:      -5.8     13.393     15.369
REMARK  3 active torsions:
REMARK  status: ('A' for Active; 'I' for Inactive)
REMARK    1  A    between atoms: N_1  and  C_9 
REMARK    2  A    between atoms: C_6  and  C_11 
REMARK    3  A    between atoms: C_9  and  C_10 
ROOT
HETATM    1  C   UNK N   1      23.009  12.097  11.109  0.00  0.00     0.010 A 
HETATM    2  C   UNK N   1      21.815  11.744  11.722  0.00  0.00     0.001 A 
HETATM    3  C   UNK N   1      20.634  12.336  11.317  0.00  0.00     0.001 A 
HETATM    4  C   UNK N   1      20.652  13.280  10.299  0.00  0.00     0.013 A 
HETATM    5  C   UNK N   1      21.840  13.676   9.641  0.00  0.00    -0.018 A 
HETATM    6  C   UNK N   1      23.080  13.045  10.076  0.00  0.00    -0.030 A 
ENDROOT
BRANCH   5   7
HETATM    7  C   UNK N   1      21.636  14.716   8.562  0.00  0.00    -0.025 A 
HETATM    8  C   UNK N   1      22.318  14.714   7.347  0.00  0.00     0.012 A 
HETATM    9  C   UNK N   1      22.101  15.693   6.375  0.00  0.00     0.001 A 
HETATM   10  C   UNK N   1      21.180  16.712   6.608  0.00  0.00     0.000 A 
HETATM   11  C   UNK N   1      20.480  16.745   7.813  0.00  0.00     0.001 A 
HETATM   12  C   UNK N   1      20.705  15.759   8.778  0.00  0.00     0.012 A 
ENDBRANCH   5   7
BRANCH   6  13
HETATM   13  C   UNK N   1      24.521  13.212   9.614  0.00  0.00     0.150 C 
BRANCH  13  14
HETATM   14  N   UNK N   1      25.576  13.440  10.570  0.00  0.00    -0.426 N 
HETATM   15  H   UNK N   1      26.212  12.684  10.818  0.00  0.00     0.150 HD
HETATM   16  H   UNK N   1      25.685  14.360  10.999  0.00  0.00     0.150 HD
ENDBRANCH  13  14
ENDBRANCH   6  13
TORSDOF 3
ENDMDL
MODEL 4
REMARK VINA RESULT:      -5.7      1.731      4.820
REMARK  3 active torsions:
REMARK  status: ('A' for Active; 'I' for Inactive)
REMARK    1  A    between atoms: N_1  and  C_9 
REMARK    2  A    between atoms: C_6  and  C_11 
REMARK    3  A    between atoms: C_9  and  C_10 
ROOT
HETATM    1  C   UNK N   1      35.267  12.579  19.570  0.00  0.00     0.010 A 
HETATM    2  C   UNK N   1      35.415  11.214  19.772  0.00  0.00     0.001 A 
HETATM    3  C   UNK N   1      35.574  10.372  18.688  0.00  0.00     0.001 A 
HETATM    4  C   UNK N   1      35.584  10.901  17.403  0.00  0.00     0.013 A 
HETATM    5  C   UNK N   1      35.437  12.283  17.141  0.00  0.00    -0.018 A 
HETATM    6  C   UNK N   1      35.270  13.161  18.293  0.00  0.00    -0.030 A 
ENDROOT
BRANCH   5   7
HETATM    7  C   UNK N   1      35.477  12.645  15.674  0.00  0.00    -0.025 A 
HETATM    8  C   UNK N   1      34.669  12.048  14.708  0.00  0.00     0.012 A 
HETATM    9  C   UNK N   1      34.735  12.411  13.361  0.00  0.00     0.001 A 
HETATM   10  C   UNK N   1      35.630  13.396  12.950  0.00  0.00     0.000 A 
HETATM   11  C   UNK N   1      36.455  14.013  13.889  0.00  0.00     0.001 A 
HETATM   12  C   UNK N   1      36.378  13.642  15.235  0.00  0.00     0.012 A 
ENDBRANCH   5   7
BRANCH   6  13
HETATM   13  C   UNK N   1      35.088  14.668  18.402  0.00  0.00     0.150 C 
BRANCH  13  14
HETATM   14  N   UNK N   1      36.218  15.555  18.272  0.00  0.00    -0.426 N 
HETATM   15  H   UNK N   1      37.074  15.229  17.825  0.00  0.00     0.150 HD
HETATM   16  H   UNK N   1      36.161  16.509  18.629  0.00  0.00     0.150 HD
ENDBRANCH  13  14
ENDBRANCH   6  13
TORSDOF 3
ENDMDL
MODEL 5
REMARK VINA RESULT:      -5.6     22.963     25.256
REMARK  3 active torsions:
REMARK  status: ('A' for Active; 'I' for Inactive)
REMARK    1  A    between atoms: N_1  and  C_9 
REMARK    2  A    between atoms: C_6  and  C_11 
REMARK    3  A    between atoms: C_9  and  C_10 
ROOT
HETATM    1  C   UNK N   1      25.212  26.128  -5.904  0.00  0.00     0.010 A 
HETATM    2  C   UNK N   1      24.948  27.304  -5.217  0.00  0.00     0.001 A 
HETATM    3  C   UNK N   1      25.684  27.621  -4.091  0.00  0.00     0.001 A 
HETATM    4  C   UNK N   1      26.682  26.758  -3.657  0.00  0.00     0.013 A 
HETATM    5  C   UNK N   1      26.991  25.548  -4.320  0.00  0.00    -0.018 A 
HETATM    6  C   UNK N   1      26.209  25.223  -5.507  0.00  0.00    -0.030 A 
ENDROOT
BRANCH   5   7
HETATM    7  C   UNK N   1      28.111  24.758  -3.681  0.00  0.00    -0.025 A 
HETATM    8  C   UNK N   1      29.462  24.992  -3.932  0.00  0.00     0.012 A 
HETATM    9  C   UNK N   1      30.469  24.240  -3.321  0.00  0.00     0.001 A 
HETATM   10  C   UNK N   1      30.133  23.221  -2.432  0.00  0.00     0.000 A 
HETATM   11  C   UNK N   1      28.791  22.960  -2.159  0.00  0.00     0.001 A 
HETATM   12  C   UNK N   1      27.793  23.720  -2.776  0.00  0.00     0.012 A 
ENDBRANCH   5   7
BRANCH   6  13
HETATM   13  C   UNK N   1      26.252  24.037  -6.459  0.00  0.00     0.150 C 
BRANCH  13  14
HETATM   14  N   UNK N   1      25.272  22.983  -6.364  0.00  0.00    -0.426 N 
HETATM   15  H   UNK N   1      25.004  22.458  -7.195  0.00  0.00     0.150 HD
HETATM   16  H   UNK N   1      24.846  22.764  -5.463  0.00  0.00     0.150 HD
ENDBRANCH  13  14
ENDBRANCH   6  13
TORSDOF 3
ENDMDL
MODEL 6
REMARK VINA RESULT:      -5.5      2.713      5.553
REMARK  3 active torsions:
REMARK  status: ('A' for Active; 'I' for Inactive)
REMARK    1  A    between atoms: N_1  and  C_9 
REMARK    2  A    between atoms: C_6  and  C_11 
REMARK    3  A    between atoms: C_9  and  C_10 
ROOT
HETATM    1  C   UNK N   1      35.198  11.753  19.342  0.00  0.00     0.010 A 
HETATM    2  C   UNK N   1      35.250  13.135  19.228  0.00  0.00     0.001 A 
HETATM    3  C   UNK N   1      35.197  13.724  17.979  0.00  0.00     0.001 A 
HETATM    4  C   UNK N   1      35.093  12.926  16.847  0.00  0.00     0.013 A 
HETATM    5  C   UNK N   1      35.037  11.514  16.906  0.00  0.00    -0.018 A 
HETATM    6  C   UNK N   1      35.093  10.903  18.229  0.00  0.00    -0.030 A 
ENDROOT
BRANCH   5   7
HETATM    7  C   UNK N   1      34.924  10.839  15.558  0.00  0.00    -0.025 A 
HETATM    8  C   UNK N   1      33.853  11.027  14.686  0.00  0.00     0.012 A 
HETATM    9  C   UNK N   1      33.785  10.385  13.448  0.00  0.00     0.001 A 
HETATM   10  C   UNK N   1      34.809   9.527  13.053  0.00  0.00     0.000 A 
HETATM   11  C   UNK N   1      35.897   9.316  13.900  0.00  0.00     0.001 A 
HETATM   12  C   UNK N   1      35.953   9.965  15.137  0.00  0.00     0.012 A 
ENDBRANCH   5   7
BRANCH   6  13
HETATM   13  C   UNK N   1      35.060   9.450  18.679  0.00  0.00     0.150 C 
BRANCH  13  14
HETATM   14  N   UNK N   1      33.809   8.814  19.014  0.00  0.00    -0.426 N 
HETATM   15  H   UNK N   1      33.804   7.950  19.555  0.00  0.00     0.150 HD
HETATM   16  H   UNK N   1      32.928   9.231  18.710  0.00  0.00     0.150 HD
ENDBRANCH  13  14
ENDBRANCH   6  13
TORSDOF 3
ENDMDL
MODEL 7
REMARK VINA RESULT:      -5.5      1.905      5.092
REMARK  3 active torsions:
REMARK  status: ('A' for Active; 'I' for Inactive)
REMARK    1  A    between atoms: N_1  and  C_9 
REMARK    2  A    between atoms: C_6  and  C_11 
REMARK    3  A    between atoms: C_9  and  C_10 
ROOT
HETATM    1  C   UNK N   1      35.528  11.092  18.840  0.00  0.00     0.010 A 
HETATM    2  C   UNK N   1      35.297  12.211  19.629  0.00  0.00     0.001 A 
HETATM    3  C   UNK N   1      35.143  13.449  19.035  0.00  0.00     0.001 A 
HETATM    4  C   UNK N   1      35.222  13.564  17.653  0.00  0.00     0.013 A 
HETATM    5  C   UNK N   1      35.455  12.457  16.804  0.00  0.00    -0.018 A 
HETATM    6  C   UNK N   1      35.616  11.155  17.441  0.00  0.00    -0.030 A 
ENDROOT
BRANCH   5   7
HETATM    7  C   UNK N   1      35.504  12.803  15.333  0.00  0.00    -0.025 A 
HETATM    8  C   UNK N   1      34.772  12.129  14.356  0.00  0.00     0.012 A 
HETATM    9  C   UNK N   1      34.844  12.479  13.005  0.00  0.00     0.001 A 
HETATM   10  C   UNK N   1      35.666  13.529  12.602  0.00  0.00     0.000 A 
HETATM   11  C   UNK N   1      36.411  14.225  13.553  0.00  0.00     0.001 A 
HETATM   12  C   UNK N   1      36.331  13.866  14.902  0.00  0.00     0.012 A 
ENDBRANCH   5   7
BRANCH   6  13
HETATM   13  C   UNK N   1      35.874   9.770  16.867  0.00  0.00     0.150 C 
BRANCH  13  14
HETATM   14  N   UNK N   1      37.190   9.401  16.405  0.00  0.00    -0.426 N 
HETATM   15  H   UNK N   1      37.482   8.424  16.423  0.00  0.00     0.150 HD
HETATM   16  H   UNK N   1      37.828  10.118  16.059  0.00  0.00     0.150 HD
ENDBRANCH  13  14
ENDBRANCH   6  13
TORSDOF 3
ENDMDL
MODEL 8
REMARK VINA RESULT:      -5.4      9.695     11.035
REMARK  3 active torsions:
REMARK  status: ('A' for Active; 'I' for Inactive)
REMARK    1  A    between atoms: N_1  and  C_9 
REMARK    2  A    between atoms: C_6  and  C_11 
REMARK    3  A    between atoms: C_9  and  C_10 
ROOT
HETATM    1  C   UNK N   1      33.903  17.290   6.055  0.00  0.00     0.010 A 
HETATM    2  C   UNK N   1      33.542  17.003   4.746  0.00  0.00     0.001 A 
HETATM    3  C   UNK N   1      32.206  16.908   4.407  0.00  0.00     0.001 A 
HETATM    4  C   UNK N   1      31.235  17.101   5.381  0.00  0.00     0.013 A 
HETATM    5  C   UNK N   1      31.547  17.395   6.728  0.00  0.00    -0.018 A 
HETATM    6  C   UNK N   1      32.960  17.493   7.075  0.00  0.00    -0.030 A 
ENDROOT
BRANCH   5   7
HETATM    7  C   UNK N   1      30.340  17.567   7.622  0.00  0.00    -0.025 A 
HETATM    8  C   UNK N   1      29.070  17.085   7.309  0.00  0.00     0.012 A 
HETATM    9  C   UNK N   1      27.979  17.264   8.162  0.00  0.00     0.001 A 
HETATM   10  C   UNK N   1      28.144  17.942   9.368  0.00  0.00     0.000 A 
HETATM   11  C   UNK N   1      29.401  18.437   9.714  0.00  0.00     0.001 A 
HETATM   12  C   UNK N   1      30.485  18.252   8.851  0.00  0.00     0.012 A 
ENDBRANCH   5   7
BRANCH   6  13
HETATM   13  C   UNK N   1      33.664  17.788   8.391  0.00  0.00     0.150 C 
BRANCH  13  14
HETATM   14  N   UNK N   1      33.722  16.790   9.432  0.00  0.00    -0.426 N 
HETATM   15  H   UNK N   1      34.609  16.573   9.883  0.00  0.00     0.150 HD
HETATM   16  H   UNK N   1      32.872  16.301   9.716  0.00  0.00     0.150 HD
ENDBRANCH  13  14
ENDBRANCH   6  13
TORSDOF 3
ENDMDL
MODEL 9
REMARK VINA RESULT:      -5.4     10.169     11.787
REMARK  3 active torsions:
REMARK  status: ('A' for Active; 'I' for Inactive)
REMARK    1  A    between atoms: N_1  and  C_9 
REMARK    2  A    between atoms: C_6  and  C_11 
REMARK    3  A    between atoms: C_9  and  C_10 
ROOT
HETATM    1  C   UNK N   1      27.474  16.829   6.536  0.00  0.00     0.010 A 
HETATM    2  C   UNK N   1      27.409  15.677   5.765  0.00  0.00     0.001 A 
HETATM    3  C   UNK N   1      28.575  15.046   5.375  0.00  0.00     0.001 A 
HETATM    4  C   UNK N   1      29.802  15.571   5.759  0.00  0.00     0.013 A 
HETATM    5  C   UNK N   1      29.924  16.741   6.544  0.00  0.00    -0.018 A 
HETATM    6  C   UNK N   1      28.688  17.399   6.950  0.00  0.00    -0.030 A 
ENDROOT
BRANCH   5   7
HETATM    7  C   UNK N   1      31.351  17.139   6.848  0.00  0.00    -0.025 A 
HETATM    8  C   UNK N   1      31.794  17.520   8.113  0.00  0.00     0.012 A 
HETATM    9  C   UNK N   1      33.122  17.881   8.355  0.00  0.00     0.001 A 
HETATM   10  C   UNK N   1      34.046  17.866   7.313  0.00  0.00     0.000 A 
HETATM   11  C   UNK N   1      33.638  17.490   6.034  0.00  0.00     0.001 A 
HETATM   12  C   UNK N   1      32.306  17.131   5.805  0.00  0.00     0.012 A 
ENDBRANCH   5   7
BRANCH   6  13
HETATM   13  C   UNK N   1      28.428  18.649   7.778  0.00  0.00     0.150 C 
BRANCH  13  14
HETATM   14  N   UNK N   1      27.670  18.573   9.003  0.00  0.00    -0.426 N 
HETATM   15  H   UNK N   1      26.673  18.364   8.974  0.00  0.00     0.150 HD
HETATM   16  H   UNK N   1      28.134  18.728   9.899  0.00  0.00     0.150 HD
ENDBRANCH  13  14
ENDBRANCH   6  13
TORSDOF 3
ENDMDL
