REMARK  3 active torsions:
REMARK  status: ('A' for Active; 'I' for Inactive)
REMARK    1  A    between atoms: N_1  and  C_9 
REMARK    2  A    between atoms: C_6  and  C_11 
REMARK    3  A    between atoms: C_9  and  C_10 
ROOT
HETATM    1  C   UNK N   1       2.112   1.908   0.000  0.00  0.00     0.010 A 
HETATM    2  C   UNK N   1       3.293   1.179   0.000  0.00  0.00     0.001 A 
HETATM    3  C   UNK N   1       3.247  -0.202   0.000  0.00  0.00     0.001 A 
HETATM    4  C   UNK N   1       2.018  -0.849   0.000  0.00  0.00     0.013 A 
HETATM    5  C   UNK N   1       0.786  -0.155  -0.000  0.00  0.00    -0.018 A 
HETATM    6  C   UNK N   1       0.846   1.302   0.000  0.00  0.00    -0.030 A 
ENDROOT
BRANCH   5   7
HETATM    7  C   UNK N   1      -0.432  -1.051  -0.000  0.00  0.00    -0.025 A 
HETATM    8  C   UNK N   1      -1.742  -0.575  -0.000  0.00  0.00     0.012 A 
HETATM    9  C   UNK N   1      -2.842  -1.436  -0.000  0.00  0.00     0.001 A 
HETATM   10  C   UNK N   1      -2.645  -2.815  -0.000  0.00  0.00     0.000 A 
HETATM   11  C   UNK N   1      -1.348  -3.326  -0.000  0.00  0.00     0.001 A 
HETATM   12  C   UNK N   1      -0.255  -2.454  -0.000  0.00  0.00     0.012 A 
ENDBRANCH   5   7
BRANCH   6  13
HETATM   13  C   UNK N   1      -0.245   2.363   0.000  0.00  0.00     0.150 C 
BRANCH  13  14
HETATM   14  N   UNK N   1      -1.637   1.984   0.000  0.00  0.00    -0.426 N 
HETATM   15  H   UNK N   1      -2.361   2.701   0.000  0.00  0.00     0.150 HD
HETATM   16  H   UNK N   1      -1.896   0.997   0.000  0.00  0.00     0.150 HD
ENDBRANCH  13  14
ENDBRANCH   6  13
TORSDOF 3
