MODEL 1
REMARK VINA RESULT:      -6.6      0.000      0.000
REMARK  18 active torsions:
REMARK  status: ('A' for Active; 'I' for Inactive)
REMARK    1  A    between atoms: C_1  and  C_2 
REMARK    2  A    between atoms: C_1  and  C_35 
REMARK    3  A    between atoms: C_2  and  C_3 
REMARK    4  A    between atoms: C_3  and  C_4 
REMARK    5  A    between atoms: C_4  and  C_5 
REMARK    6  A    between atoms: C_5  and  C_6 
REMARK    7  A    between atoms: C_6  and  C_7 
REMARK    8  A    between atoms: C_7  and  C_8 
REMARK    9  A    between atoms: C_8  and  N_9 
REMARK   10  A    between atoms: N_9  and  C_10 
REMARK   11  A    between atoms: C_10  and  C_11 
REMARK   12  A    between atoms: C_11  and  S_12 
REMARK   13  A    between atoms: C_13  and  S_12 
REMARK   14  A    between atoms: C_14  and  C_13 
REMARK   15  A    between atoms: C_16  and  O_17 
REMARK   16  A    between atoms: C_18  and  O_19 
REMARK   17  A    between atoms: C_20  and  N_21 
REMARK   18  A    between atoms: N_33  and  C_32 
ROOT
HETATM    1  C   UNK N   1      33.744  15.601   9.789  0.00  0.00     0.165 C 
HETATM    2  O   UNK N   1      32.509  15.789   9.143  0.00  0.00    -0.355 OA
HETATM    3  C   UNK N   1      34.731  16.624   9.170  0.00  0.00     0.180 C 
HETATM    4  C   UNK N   1      33.781  17.564   8.455  0.00  0.00     0.198 C 
HETATM    5  C   UNK N   1      32.813  16.506   7.978  0.00  0.00     0.262 C 
ENDROOT
BRANCH   1   6
HETATM    6  C   UNK N   1      34.082  14.127   9.522  0.00  0.00     0.108 C 
BRANCH   6   7
HETATM    7  S   UNK N   1      35.578  13.782   8.575  0.00  0.00    -0.165 SA
BRANCH   7   8
HETATM    8  C   UNK N   1      36.321  12.835   9.936  0.00  0.00     0.093 C 
BRANCH   8   9
HETATM    9  C   UNK N   1      37.483  13.612  10.533  0.00  0.00     0.124 C 
BRANCH   9  10
HETATM   10  N   UNK N   1      37.238  13.875  11.943  0.00  0.00    -0.420 N 
HETATM   11  H   UNK N   1      37.402  14.760  12.425  0.00  0.00     0.153 HD
BRANCH  10  12
HETATM   12  C   UNK N   1      36.720  12.653  12.544  0.00  0.00     0.113 C 
BRANCH  12  13
HETATM   13  C   UNK N   1      36.821  12.722  14.067  0.00  0.00     0.019 C 
BRANCH  13  14
HETATM   14  C   UNK N   1      35.757  13.595  14.718  0.00  0.00     0.002 C 
BRANCH  14  15
HETATM   15  C   UNK N   1      35.289  13.058  16.058  0.00  0.00     0.000 C 
BRANCH  15  16
HETATM   16  C   UNK N   1      36.115  11.836  16.416  0.00  0.00     0.000 C 
BRANCH  16  17
HETATM   17  C   UNK N   1      35.260  10.815  17.125  0.00  0.00     0.000 C 
BRANCH  17  18
HETATM   18  C   UNK N   1      34.496  10.011  16.096  0.00  0.00     0.000 C 
BRANCH  18  19
HETATM   19  C   UNK N   1      35.468   9.425  15.104  0.00  0.00    -0.000 C 
BRANCH  19  20
HETATM   20  C   UNK N   1      34.899   9.561  13.711  0.00  0.00    -0.005 C 
HETATM   21  C   UNK N   1      33.766  10.564  13.735  0.00  0.00     0.005 C 
ENDBRANCH  19  20
ENDBRANCH  18  19
ENDBRANCH  17  18
ENDBRANCH  16  17
ENDBRANCH  15  16
ENDBRANCH  14  15
ENDBRANCH  13  14
ENDBRANCH  12  13
ENDBRANCH  10  12
ENDBRANCH   9  10
ENDBRANCH   8   9
ENDBRANCH   7   8
ENDBRANCH   6   7
ENDBRANCH   1   6
BRANCH   3  22
HETATM   22  O   UNK N   1      35.510  17.289  10.119  0.00  0.00    -0.390 OA
HETATM   23  H   UNK N   1      35.785  16.924  10.976  0.00  0.00     0.210 HD
ENDBRANCH   3  22
BRANCH   4  24
HETATM   24  O   UNK N   1      34.398  18.268   7.418  0.00  0.00    -0.388 OA
HETATM   25  H   UNK N   1      35.266  18.669   7.254  0.00  0.00     0.210 HD
ENDBRANCH   4  24
BRANCH   5  26
HETATM   26  N   UNK N   1      31.576  16.950   7.355  0.00  0.00    -0.297 N 
HETATM   27  C   UNK N   1      30.574  17.505   8.040  0.00  0.00     0.142 A 
HETATM   28  C   UNK N   1      29.568  17.804   7.205  0.00  0.00     0.122 A 
HETATM   29  N   UNK N   1      30.531  17.763   9.369  0.00  0.00    -0.336 N 
HETATM   30  N   UNK N   1      29.898  17.442   5.948  0.00  0.00    -0.346 N 
HETATM   31  C   UNK N   1      28.417  18.400   7.703  0.00  0.00     0.131 A 
HETATM   32  C   UNK N   1      31.155  16.916   6.065  0.00  0.00     0.188 A 
ATOM     33  HN  UNK N   1      29.338  17.540   5.102  1.00  0.00     0.167 HD
HETATM   34  N   UNK N   1      28.360  18.669   9.043  0.00  0.00    -0.337 N 
HETATM   35  C   UNK N   1      29.408  18.355   9.874  0.00  0.00     0.183 A 
ATOM     36  HN  UNK N   1      27.526  19.108   9.431  1.00  0.00     0.168 HD
ATOM     37  HN  UNK N   1      31.315  17.522   9.976  1.00  0.00     0.168 HD
BRANCH  31  38
HETATM   38  N   UNK N   1      27.337  18.725   6.861  0.00  0.00    -0.383 N 
HETATM   39  H   UNK N   1      26.587  19.277   7.181  0.00  0.00     0.157 HD
HETATM   40  H   UNK N   1      27.331  18.393   5.935  0.00  0.00     0.157 HD
ENDBRANCH  31  38
ENDBRANCH   5  26
TORSDOF 18
ENDMDL
MODEL 2
REMARK VINA RESULT:      -6.5      1.159      2.093
REMARK  18 active torsions:
REMARK  status: ('A' for Active; 'I' for Inactive)
REMARK    1  A    between atoms: C_1  and  C_2 
REMARK    2  A    between atoms: C_1  and  C_35 
REMARK    3  A    between atoms: C_2  and  C_3 
REMARK    4  A    between atoms: C_3  and  C_4 
REMARK    5  A    between atoms: C_4  and  C_5 
REMARK    6  A    between atoms: C_5  and  C_6 
REMARK    7  A    between atoms: C_6  and  C_7 
REMARK    8  A    between atoms: C_7  and  C_8 
REMARK    9  A    between atoms: C_8  and  N_9 
REMARK   10  A    between atoms: N_9  and  C_10 
REMARK   11  A    between atoms: C_10  and  C_11 
REMARK   12  A    between atoms: C_11  and  S_12 
REMARK   13  A    between atoms: C_13  and  S_12 
REMARK   14  A    between atoms: C_14  and  C_13 
REMARK   15  A    between atoms: C_16  and  O_17 
REMARK   16  A    between atoms: C_18  and  O_19 
REMARK   17  A    between atoms: C_20  and  N_21 
REMARK   18  A    between atoms: N_33  and  C_32 
ROOT
HETATM    1  C   UNK N   1      33.907  15.613   9.835  0.00  0.00     0.165 C 
HETATM    2  O   UNK N   1      32.672  15.750   9.175  0.00  0.00    -0.355 OA
HETATM    3  C   UNK N   1      34.850  16.690   9.243  0.00  0.00     0.180 C 
HETATM    4  C   UNK N   1      33.865  17.594   8.528  0.00  0.00     0.198 C 
HETATM    5  C   UNK N   1      32.956  16.497   8.024  0.00  0.00     0.262 C 
ENDROOT
BRANCH   1   6
HETATM    6  C   UNK N   1      34.319  14.160   9.553  0.00  0.00     0.108 C 
BRANCH   6   7
HETATM    7  S   UNK N   1      35.746  13.518  10.448  0.00  0.00    -0.165 SA
BRANCH   7   8
HETATM    8  C   UNK N   1      35.019  13.922  12.064  0.00  0.00     0.093 C 
BRANCH   8   9
HETATM    9  C   UNK N   1      36.003  14.741  12.884  0.00  0.00     0.124 C 
BRANCH   9  10
HETATM   10  N   UNK N   1      36.965  13.865  13.534  0.00  0.00    -0.420 N 
HETATM   11  H   UNK N   1      37.677  13.304  13.067  0.00  0.00     0.153 HD
BRANCH  10  12
HETATM   12  C   UNK N   1      36.730  13.931  14.972  0.00  0.00     0.113 C 
BRANCH  12  13
HETATM   13  C   UNK N   1      36.142  12.614  15.477  0.00  0.00     0.019 C 
BRANCH  13  14
HETATM   14  C   UNK N   1      34.625  12.624  15.607  0.00  0.00     0.002 C 
BRANCH  14  15
HETATM   15  C   UNK N   1      33.971  11.393  15.007  0.00  0.00     0.000 C 
BRANCH  15  16
HETATM   16  C   UNK N   1      34.780  10.167  15.393  0.00  0.00     0.000 C 
BRANCH  16  17
HETATM   17  C   UNK N   1      34.605   9.866  16.862  0.00  0.00     0.000 C 
BRANCH  17  18
HETATM   18  C   UNK N   1      35.896   9.294  17.404  0.00  0.00     0.000 C 
BRANCH  18  19
HETATM   19  C   UNK N   1      36.418  10.196  18.495  0.00  0.00    -0.000 C 
BRANCH  19  20
HETATM   20  C   UNK N   1      35.323  11.148  18.918  0.00  0.00    -0.005 C 
HETATM   21  C   UNK N   1      34.863  10.786  20.313  0.00  0.00     0.005 C 
ENDBRANCH  19  20
ENDBRANCH  18  19
ENDBRANCH  17  18
ENDBRANCH  16  17
ENDBRANCH  15  16
ENDBRANCH  14  15
ENDBRANCH  13  14
ENDBRANCH  12  13
ENDBRANCH  10  12
ENDBRANCH   9  10
ENDBRANCH   8   9
ENDBRANCH   7   8
ENDBRANCH   6   7
ENDBRANCH   1   6
BRANCH   3  22
HETATM   22  O   UNK N   1      35.585  17.379  10.210  0.00  0.00    -0.390 OA
HETATM   23  H   UNK N   1      35.586  17.181  11.160  0.00  0.00     0.210 HD
ENDBRANCH   3  22
BRANCH   4  24
HETATM   24  O   UNK N   1      34.460  18.340   7.508  0.00  0.00    -0.388 OA
HETATM   25  H   UNK N   1      34.290  19.182   7.057  0.00  0.00     0.210 HD
ENDBRANCH   4  24
BRANCH   5  26
HETATM   26  N   UNK N   1      31.706  16.890   7.391  0.00  0.00    -0.297 N 
HETATM   27  C   UNK N   1      30.698  17.458   8.058  0.00  0.00     0.142 A 
HETATM   28  C   UNK N   1      29.682  17.700   7.218  0.00  0.00     0.122 A 
HETATM   29  N   UNK N   1      30.661  17.775   9.374  0.00  0.00    -0.336 N 
HETATM   30  N   UNK N   1      30.010  17.287   5.976  0.00  0.00    -0.346 N 
HETATM   31  C   UNK N   1      28.523  18.297   7.697  0.00  0.00     0.131 A 
HETATM   32  C   UNK N   1      31.276  16.789   6.107  0.00  0.00     0.188 A 
ATOM     33  HN  UNK N   1      29.441  17.335   5.131  1.00  0.00     0.167 HD
HETATM   34  N   UNK N   1      28.471  18.626   9.023  0.00  0.00    -0.337 N 
HETATM   35  C   UNK N   1      29.531  18.370   9.860  0.00  0.00     0.183 A 
ATOM     36  HN  UNK N   1      27.632  19.068   9.398  1.00  0.00     0.168 HD
ATOM     37  HN  UNK N   1      31.453  17.577   9.985  1.00  0.00     0.168 HD
BRANCH  31  38
HETATM   38  N   UNK N   1      27.432  18.564   6.850  0.00  0.00    -0.383 N 
HETATM   39  H   UNK N   1      26.534  18.211   7.045  0.00  0.00     0.157 HD
HETATM   40  H   UNK N   1      27.569  19.114   6.045  0.00  0.00     0.157 HD
ENDBRANCH  31  38
ENDBRANCH   5  26
TORSDOF 18
ENDMDL
MODEL 3
REMARK VINA RESULT:      -6.4      1.851      2.733
REMARK  18 active torsions:
REMARK  status: ('A' for Active; 'I' for Inactive)
REMARK    1  A    between atoms: C_1  and  C_2 
REMARK    2  A    between atoms: C_1  and  C_35 
REMARK    3  A    between atoms: C_2  and  C_3 
REMARK    4  A    between atoms: C_3  and  C_4 
REMARK    5  A    between atoms: C_4  and  C_5 
REMARK    6  A    between atoms: C_5  and  C_6 
REMARK    7  A    between atoms: C_6  and  C_7 
REMARK    8  A    between atoms: C_7  and  C_8 
REMARK    9  A    between atoms: C_8  and  N_9 
REMARK   10  A    between atoms: N_9  and  C_10 
REMARK   11  A    between atoms: C_10  and  C_11 
REMARK   12  A    between atoms: C_11  and  S_12 
REMARK   13  A    between atoms: C_13  and  S_12 
REMARK   14  A    between atoms: C_14  and  C_13 
REMARK   15  A    between atoms: C_16  and  O_17 
REMARK   16  A    between atoms: C_18  and  O_19 
REMARK   17  A    between atoms: C_20  and  N_21 
REMARK   18  A    between atoms: N_33  and  C_32 
ROOT
HETATM    1  C   UNK N   1      33.994  15.741   9.846  0.00  0.00     0.165 C 
HETATM    2  O   UNK N   1      32.742  15.822   9.209  0.00  0.00    -0.355 OA
HETATM    3  C   UNK N   1      34.889  16.834   9.209  0.00  0.00     0.180 C 
HETATM    4  C   UNK N   1      33.860  17.688   8.494  0.00  0.00     0.198 C 
HETATM    5  C   UNK N   1      32.977  16.551   8.035  0.00  0.00     0.262 C 
ENDROOT
BRANCH   1   6
HETATM    6  C   UNK N   1      34.447  14.296   9.588  0.00  0.00     0.108 C 
BRANCH   6   7
HETATM    7  S   UNK N   1      35.816  13.672  10.582  0.00  0.00    -0.165 SA
BRANCH   7   8
HETATM    8  C   UNK N   1      35.362  14.702  12.008  0.00  0.00     0.093 C 
BRANCH   8   9
HETATM    9  C   UNK N   1      35.490  13.897  13.290  0.00  0.00     0.124 C 
BRANCH   9  10
HETATM   10  N   UNK N   1      36.806  14.097  13.878  0.00  0.00    -0.420 N 
HETATM   11  H   UNK N   1      37.675  14.247  13.366  0.00  0.00     0.153 HD
BRANCH  10  12
HETATM   12  C   UNK N   1      36.662  14.042  15.328  0.00  0.00     0.113 C 
BRANCH  12  13
HETATM   13  C   UNK N   1      36.314  12.623  15.777  0.00  0.00     0.019 C 
BRANCH  13  14
HETATM   14  C   UNK N   1      35.139  12.552  16.743  0.00  0.00     0.002 C 
BRANCH  14  15
HETATM   15  C   UNK N   1      35.280  13.503  17.918  0.00  0.00     0.000 C 
BRANCH  15  16
HETATM   16  C   UNK N   1      35.031  12.737  19.205  0.00  0.00     0.000 C 
BRANCH  16  17
HETATM   17  C   UNK N   1      35.698  11.384  19.147  0.00  0.00     0.000 C 
BRANCH  17  18
HETATM   18  C   UNK N   1      35.296  10.583  20.365  0.00  0.00     0.000 C 
BRANCH  18  19
HETATM   19  C   UNK N   1      34.110   9.718  20.019  0.00  0.00    -0.000 C 
BRANCH  19  20
HETATM   20  C   UNK N   1      33.292   9.475  21.266  0.00  0.00    -0.005 C 
HETATM   21  C   UNK N   1      33.037  10.797  21.956  0.00  0.00     0.005 C 
ENDBRANCH  19  20
ENDBRANCH  18  19
ENDBRANCH  17  18
ENDBRANCH  16  17
ENDBRANCH  15  16
ENDBRANCH  14  15
ENDBRANCH  13  14
ENDBRANCH  12  13
ENDBRANCH  10  12
ENDBRANCH   9  10
ENDBRANCH   8   9
ENDBRANCH   7   8
ENDBRANCH   6   7
ENDBRANCH   1   6
BRANCH   3  22
HETATM   22  O   UNK N   1      35.620  17.569  10.145  0.00  0.00    -0.390 OA
HETATM   23  H   UNK N   1      36.265  17.200  10.768  0.00  0.00     0.210 HD
ENDBRANCH   3  22
BRANCH   4  24
HETATM   24  O   UNK N   1      34.409  18.429   7.445  0.00  0.00    -0.388 OA
HETATM   25  H   UNK N   1      35.293  18.585   7.076  0.00  0.00     0.210 HD
ENDBRANCH   4  24
BRANCH   5  26
HETATM   26  N   UNK N   1      31.703  16.887   7.419  0.00  0.00    -0.297 N 
HETATM   27  C   UNK N   1      30.703  17.470   8.085  0.00  0.00     0.142 A 
HETATM   28  C   UNK N   1      29.659  17.650   7.264  0.00  0.00     0.122 A 
HETATM   29  N   UNK N   1      30.696  17.854   9.384  0.00  0.00    -0.336 N 
HETATM   30  N   UNK N   1      29.960  17.179   6.036  0.00  0.00    -0.346 N 
HETATM   31  C   UNK N   1      28.503  18.250   7.745  0.00  0.00     0.131 A 
HETATM   32  C   UNK N   1      31.240  16.713   6.155  0.00  0.00     0.188 A 
ATOM     33  HN  UNK N   1      29.368  17.174   5.206  1.00  0.00     0.167 HD
HETATM   34  N   UNK N   1      28.481  18.645   9.054  0.00  0.00    -0.337 N 
HETATM   35  C   UNK N   1      29.569  18.452   9.871  0.00  0.00     0.183 A 
ATOM     36  HN  UNK N   1      27.644  19.091   9.430  1.00  0.00     0.168 HD
ATOM     37  HN  UNK N   1      31.509  17.702   9.981  1.00  0.00     0.168 HD
BRANCH  31  38
HETATM   38  N   UNK N   1      27.383  18.452   6.917  0.00  0.00    -0.383 N 
HETATM   39  H   UNK N   1      27.323  19.232   6.319  0.00  0.00     0.157 HD
HETATM   40  H   UNK N   1      26.644  17.802   6.938  0.00  0.00     0.157 HD
ENDBRANCH  31  38
ENDBRANCH   5  26
TORSDOF 18
ENDMDL
MODEL 4
REMARK VINA RESULT:      -6.3      1.006      2.213
REMARK  18 active torsions:
REMARK  status: ('A' for Active; 'I' for Inactive)
REMARK    1  A    between atoms: C_1  and  C_2 
REMARK    2  A    between atoms: C_1  and  C_35 
REMARK    3  A    between atoms: C_2  and  C_3 
REMARK    4  A    between atoms: C_3  and  C_4 
REMARK    5  A    between atoms: C_4  and  C_5 
REMARK    6  A    between atoms: C_5  and  C_6 
REMARK    7  A    between atoms: C_6  and  C_7 
REMARK    8  A    between atoms: C_7  and  C_8 
REMARK    9  A    between atoms: C_8  and  N_9 
REMARK   10  A    between atoms: N_9  and  C_10 
REMARK   11  A    between atoms: C_10  and  C_11 
REMARK   12  A    between atoms: C_11  and  S_12 
REMARK   13  A    between atoms: C_13  and  S_12 
REMARK   14  A    between atoms: C_14  and  C_13 
REMARK   15  A    between atoms: C_16  and  O_17 
REMARK   16  A    between atoms: C_18  and  O_19 
REMARK   17  A    between atoms: C_20  and  N_21 
REMARK   18  A    between atoms: N_33  and  C_32 
ROOT
HETATM    1  C   UNK N   1      33.881  15.742   9.874  0.00  0.00     0.165 C 
HETATM    2  O   UNK N   1      32.643  15.891   9.223  0.00  0.00    -0.355 OA
HETATM    3  C   UNK N   1      34.858  16.742   9.206  0.00  0.00     0.180 C 
HETATM    4  C   UNK N   1      33.900  17.642   8.452  0.00  0.00     0.198 C 
HETATM    5  C   UNK N   1      32.939  16.556   8.026  0.00  0.00     0.262 C 
ENDROOT
BRANCH   1   6
HETATM    6  C   UNK N   1      34.229  14.259   9.673  0.00  0.00     0.108 C 
BRANCH   6   7
HETATM    7  S   UNK N   1      35.849  13.879   8.977  0.00  0.00    -0.165 SA
BRANCH   7   8
HETATM    8  C   UNK N   1      36.246  12.718  10.317  0.00  0.00     0.093 C 
BRANCH   8   9
HETATM    9  C   UNK N   1      35.864  13.324  11.658  0.00  0.00     0.124 C 
BRANCH   9  10
HETATM   10  N   UNK N   1      35.062  12.383  12.424  0.00  0.00    -0.420 N 
HETATM   11  H   UNK N   1      34.268  12.617  13.020  0.00  0.00     0.153 HD
BRANCH  10  12
HETATM   12  C   UNK N   1      35.596  11.047  12.192  0.00  0.00     0.113 C 
BRANCH  12  13
HETATM   13  C   UNK N   1      35.780  10.307  13.516  0.00  0.00     0.019 C 
BRANCH  13  14
HETATM   14  C   UNK N   1      34.474   9.889  14.177  0.00  0.00     0.002 C 
BRANCH  14  15
HETATM   15  C   UNK N   1      34.213  10.615  15.485  0.00  0.00     0.000 C 
BRANCH  15  16
HETATM   16  C   UNK N   1      35.534  10.822  16.206  0.00  0.00     0.000 C 
BRANCH  16  17
HETATM   17  C   UNK N   1      35.463  12.044  17.087  0.00  0.00     0.000 C 
BRANCH  17  18
HETATM   18  C   UNK N   1      35.398  13.278  16.215  0.00  0.00     0.000 C 
BRANCH  18  19
HETATM   19  C   UNK N   1      36.664  13.376  15.401  0.00  0.00    -0.000 C 
BRANCH  19  20
HETATM   20  C   UNK N   1      36.999  14.833  15.177  0.00  0.00    -0.005 C 
HETATM   21  C   UNK N   1      37.285  15.486  16.511  0.00  0.00     0.005 C 
ENDBRANCH  19  20
ENDBRANCH  18  19
ENDBRANCH  17  18
ENDBRANCH  16  17
ENDBRANCH  15  16
ENDBRANCH  14  15
ENDBRANCH  13  14
ENDBRANCH  12  13
ENDBRANCH  10  12
ENDBRANCH   9  10
ENDBRANCH   8   9
ENDBRANCH   7   8
ENDBRANCH   6   7
ENDBRANCH   1   6
BRANCH   3  22
HETATM   22  O   UNK N   1      35.635  17.456  10.122  0.00  0.00    -0.390 OA
HETATM   23  H   UNK N   1      35.462  18.364  10.417  0.00  0.00     0.210 HD
ENDBRANCH   3  22
BRANCH   4  24
HETATM   24  O   UNK N   1      34.509  18.302   7.381  0.00  0.00    -0.388 OA
HETATM   25  H   UNK N   1      35.402  18.370   7.009  0.00  0.00     0.210 HD
ENDBRANCH   4  24
BRANCH   5  26
HETATM   26  N   UNK N   1      31.697  16.962   7.386  0.00  0.00    -0.297 N 
HETATM   27  C   UNK N   1      30.699  17.556   8.044  0.00  0.00     0.142 A 
HETATM   28  C   UNK N   1      29.687  17.805   7.200  0.00  0.00     0.122 A 
HETATM   29  N   UNK N   1      30.666  17.892   9.356  0.00  0.00    -0.336 N 
HETATM   30  N   UNK N   1      30.009  17.370   5.965  0.00  0.00    -0.346 N 
HETATM   31  C   UNK N   1      28.539  18.428   7.670  0.00  0.00     0.131 A 
HETATM   32  C   UNK N   1      31.266  16.852   6.103  0.00  0.00     0.188 A 
ATOM     33  HN  UNK N   1      29.442  17.417   5.118  1.00  0.00     0.167 HD
HETATM   34  N   UNK N   1      28.492  18.775   8.993  0.00  0.00    -0.337 N 
HETATM   35  C   UNK N   1      29.546  18.512   9.833  0.00  0.00     0.183 A 
ATOM     36  HN  UNK N   1      27.659  19.237   9.361  1.00  0.00     0.168 HD
ATOM     37  HN  UNK N   1      31.453  17.687   9.971  1.00  0.00     0.168 HD
BRANCH  31  38
HETATM   38  N   UNK N   1      27.453  18.703   6.819  0.00  0.00    -0.383 N 
HETATM   39  H   UNK N   1      27.574  19.199   5.977  0.00  0.00     0.157 HD
HETATM   40  H   UNK N   1      26.553  18.392   7.070  0.00  0.00     0.157 HD
ENDBRANCH  31  38
ENDBRANCH   5  26
TORSDOF 18
ENDMDL
MODEL 5
REMARK VINA RESULT:      -6.2     10.423     13.096
REMARK  18 active torsions:
REMARK  status: ('A' for Active; 'I' for Inactive)
REMARK    1  A    between atoms: C_1  and  C_2 
REMARK    2  A    between atoms: C_1  and  C_35 
REMARK    3  A    between atoms: C_2  and  C_3 
REMARK    4  A    between atoms: C_3  and  C_4 
REMARK    5  A    between atoms: C_4  and  C_5 
REMARK    6  A    between atoms: C_5  and  C_6 
REMARK    7  A    between atoms: C_6  and  C_7 
REMARK    8  A    between atoms: C_7  and  C_8 
REMARK    9  A    between atoms: C_8  and  N_9 
REMARK   10  A    between atoms: N_9  and  C_10 
REMARK   11  A    between atoms: C_10  and  C_11 
REMARK   12  A    between atoms: C_11  and  S_12 
REMARK   13  A    between atoms: C_13  and  S_12 
REMARK   14  A    between atoms: C_14  and  C_13 
REMARK   15  A    between atoms: C_16  and  O_17 
REMARK   16  A    between atoms: C_18  and  O_19 
REMARK   17  A    between atoms: C_20  and  N_21 
REMARK   18  A    between atoms: N_33  and  C_32 
ROOT
HETATM    1  C   UNK N   1      20.344  17.147   2.729  0.00  0.00     0.165 C 
HETATM    2  O   UNK N   1      21.703  17.511   2.752  0.00  0.00    -0.355 OA
HETATM    3  C   UNK N   1      19.543  18.386   3.200  0.00  0.00     0.180 C 
HETATM    4  C   UNK N   1      20.585  19.481   3.084  0.00  0.00     0.198 C 
HETATM    5  C   UNK N   1      21.759  18.656   3.558  0.00  0.00     0.262 C 
ENDROOT
BRANCH   1   6
HETATM    6  C   UNK N   1      20.271  15.930   3.664  0.00  0.00     0.108 C 
BRANCH   6   7
HETATM    7  S   UNK N   1      19.219  16.073   5.122  0.00  0.00    -0.165 SA
BRANCH   7   8
HETATM    8  C   UNK N   1      20.640  16.044   6.254  0.00  0.00     0.093 C 
BRANCH   8   9
HETATM    9  C   UNK N   1      20.442  17.068   7.360  0.00  0.00     0.124 C 
BRANCH   9  10
HETATM   10  N   UNK N   1      20.473  16.415   8.659  0.00  0.00    -0.420 N 
HETATM   11  H   UNK N   1      20.430  16.881   9.566  0.00  0.00     0.153 HD
BRANCH  10  12
HETATM   12  C   UNK N   1      20.577  14.978   8.437  0.00  0.00     0.113 C 
BRANCH  12  13
HETATM   13  C   UNK N   1      20.567  14.229   9.769  0.00  0.00     0.019 C 
BRANCH  13  14
HETATM   14  C   UNK N   1      21.191  12.842   9.702  0.00  0.00     0.002 C 
BRANCH  14  15
HETATM   15  C   UNK N   1      22.122  12.555  10.867  0.00  0.00     0.000 C 
BRANCH  15  16
HETATM   16  C   UNK N   1      23.209  11.600  10.405  0.00  0.00     0.000 C 
BRANCH  16  17
HETATM   17  C   UNK N   1      24.551  12.290  10.415  0.00  0.00     0.000 C 
BRANCH  17  18
HETATM   18  C   UNK N   1      24.713  13.072   9.131  0.00  0.00     0.000 C 
BRANCH  18  19
HETATM   19  C   UNK N   1      24.360  12.185   7.963  0.00  0.00    -0.000 C 
BRANCH  19  20
HETATM   20  C   UNK N   1      23.711  13.020   6.884  0.00  0.00    -0.005 C 
HETATM   21  C   UNK N   1      23.979  14.483   7.161  0.00  0.00     0.005 C 
ENDBRANCH  19  20
ENDBRANCH  18  19
ENDBRANCH  17  18
ENDBRANCH  16  17
ENDBRANCH  15  16
ENDBRANCH  14  15
ENDBRANCH  13  14
ENDBRANCH  12  13
ENDBRANCH  10  12
ENDBRANCH   9  10
ENDBRANCH   8   9
ENDBRANCH   7   8
ENDBRANCH   6   7
ENDBRANCH   1   6
BRANCH   3  22
HETATM   22  O   UNK N   1      18.417  18.651   2.417  0.00  0.00    -0.390 OA
HETATM   23  H   UNK N   1      18.086  18.086   1.701  0.00  0.00     0.210 HD
ENDBRANCH   3  22
BRANCH   4  24
HETATM   24  O   UNK N   1      20.307  20.580   3.901  0.00  0.00    -0.388 OA
HETATM   25  H   UNK N   1      20.318  20.775   4.851  0.00  0.00     0.210 HD
ENDBRANCH   4  24
BRANCH   5  26
HETATM   26  N   UNK N   1      23.086  19.244   3.459  0.00  0.00    -0.297 N 
HETATM   27  C   UNK N   1      24.187  18.634   3.902  0.00  0.00     0.142 A 
HETATM   28  C   UNK N   1      25.255  19.416   3.684  0.00  0.00     0.122 A 
HETATM   29  N   UNK N   1      24.274  17.411   4.478  0.00  0.00    -0.336 N 
HETATM   30  N   UNK N   1      24.864  20.563   3.091  0.00  0.00    -0.346 N 
HETATM   31  C   UNK N   1      26.516  18.976   4.061  0.00  0.00     0.131 A 
HETATM   32  C   UNK N   1      23.510  20.433   2.958  0.00  0.00     0.188 A 
ATOM     33  HN  UNK N   1      25.447  21.350   2.807  1.00  0.00     0.167 HD
HETATM   34  N   UNK N   1      26.619  17.742   4.642  0.00  0.00    -0.337 N 
HETATM   35  C   UNK N   1      25.509  16.961   4.849  0.00  0.00     0.183 A 
ATOM     36  HN  UNK N   1      27.536  17.396   4.925  1.00  0.00     0.168 HD
ATOM     37  HN  UNK N   1      23.441  16.842   4.629  1.00  0.00     0.168 HD
BRANCH  31  38
HETATM   38  N   UNK N   1      27.661  19.768   3.854  0.00  0.00    -0.383 N 
HETATM   39  H   UNK N   1      27.941  20.037   2.950  0.00  0.00     0.157 HD
HETATM   40  H   UNK N   1      28.194  20.058   4.630  0.00  0.00     0.157 HD
ENDBRANCH  31  38
ENDBRANCH   5  26
TORSDOF 18
ENDMDL
MODEL 6
REMARK VINA RESULT:      -5.8      1.929      3.207
REMARK  18 active torsions:
REMARK  status: ('A' for Active; 'I' for Inactive)
REMARK    1  A    between atoms: C_1  and  C_2 
REMARK    2  A    between atoms: C_1  and  C_35 
REMARK    3  A    between atoms: C_2  and  C_3 
REMARK    4  A    between atoms: C_3  and  C_4 
REMARK    5  A    between atoms: C_4  and  C_5 
REMARK    6  A    between atoms: C_5  and  C_6 
REMARK    7  A    between atoms: C_6  and  C_7 
REMARK    8  A    between atoms: C_7  and  C_8 
REMARK    9  A    between atoms: C_8  and  N_9 
REMARK   10  A    between atoms: N_9  and  C_10 
REMARK   11  A    between atoms: C_10  and  C_11 
REMARK   12  A    between atoms: C_11  and  S_12 
REMARK   13  A    between atoms: C_13  and  S_12 
REMARK   14  A    between atoms: C_14  and  C_13 
REMARK   15  A    between atoms: C_16  and  O_17 
REMARK   16  A    between atoms: C_18  and  O_19 
REMARK   17  A    between atoms: C_20  and  N_21 
REMARK   18  A    between atoms: N_33  and  C_32 
ROOT
HETATM    1  C   UNK N   1      34.050  15.684   9.910  0.00  0.00     0.165 C 
HETATM    2  O   UNK N   1      32.878  15.680   9.134  0.00  0.00    -0.355 OA
HETATM    3  C   UNK N   1      34.971  16.782   9.320  0.00  0.00     0.180 C 
HETATM    4  C   UNK N   1      34.000  17.555   8.450  0.00  0.00     0.198 C 
HETATM    5  C   UNK N   1      33.219  16.360   7.956  0.00  0.00     0.262 C 
ENDROOT
BRANCH   1   6
HETATM    6  C   UNK N   1      34.584  14.249   9.784  0.00  0.00     0.108 C 
BRANCH   6   7
HETATM    7  S   UNK N   1      36.299  14.050   9.265  0.00  0.00    -0.165 SA
BRANCH   7   8
HETATM    8  C   UNK N   1      36.597  12.723  10.470  0.00  0.00     0.093 C 
BRANCH   8   9
HETATM    9  C   UNK N   1      36.120  13.157  11.847  0.00  0.00     0.124 C 
BRANCH   9  10
HETATM   10  N   UNK N   1      37.247  13.254  12.761  0.00  0.00    -0.420 N 
HETATM   11  H   UNK N   1      38.171  13.623  12.537  0.00  0.00     0.153 HD
BRANCH  10  12
HETATM   12  C   UNK N   1      36.822  12.729  14.053  0.00  0.00     0.113 C 
BRANCH  12  13
HETATM   13  C   UNK N   1      36.433  13.871  14.992  0.00  0.00     0.019 C 
BRANCH  13  14
HETATM   14  C   UNK N   1      35.813  13.410  16.303  0.00  0.00     0.002 C 
BRANCH  14  15
HETATM   15  C   UNK N   1      35.772  11.898  16.439  0.00  0.00     0.000 C 
BRANCH  15  16
HETATM   16  C   UNK N   1      35.339  11.542  17.850  0.00  0.00     0.000 C 
BRANCH  16  17
HETATM   17  C   UNK N   1      35.155  10.050  17.980  0.00  0.00     0.000 C 
BRANCH  17  18
HETATM   18  C   UNK N   1      34.470   9.751  19.296  0.00  0.00     0.000 C 
BRANCH  18  19
HETATM   19  C   UNK N   1      33.417   8.693  19.077  0.00  0.00    -0.000 C 
BRANCH  19  20
HETATM   20  C   UNK N   1      32.697   8.432  20.379  0.00  0.00    -0.005 C 
HETATM   21  C   UNK N   1      31.206   8.408  20.125  0.00  0.00     0.005 C 
ENDBRANCH  19  20
ENDBRANCH  18  19
ENDBRANCH  17  18
ENDBRANCH  16  17
ENDBRANCH  15  16
ENDBRANCH  14  15
ENDBRANCH  13  14
ENDBRANCH  12  13
ENDBRANCH  10  12
ENDBRANCH   9  10
ENDBRANCH   8   9
ENDBRANCH   7   8
ENDBRANCH   6   7
ENDBRANCH   1   6
BRANCH   3  22
HETATM   22  O   UNK N   1      35.563  17.593  10.291  0.00  0.00    -0.390 OA
HETATM   23  H   UNK N   1      35.271  17.667  11.214  0.00  0.00     0.210 HD
ENDBRANCH   3  22
BRANCH   4  24
HETATM   24  O   UNK N   1      34.638  18.266   7.430  0.00  0.00    -0.388 OA
HETATM   25  H   UNK N   1      34.894  19.187   7.265  0.00  0.00     0.210 HD
ENDBRANCH   4  24
BRANCH   5  26
HETATM   26  N   UNK N   1      32.012  16.610   7.184  0.00  0.00    -0.297 N 
HETATM   27  C   UNK N   1      32.021  16.810   5.863  0.00  0.00     0.142 A 
HETATM   28  C   UNK N   1      30.770  17.021   5.431  0.00  0.00     0.122 A 
HETATM   29  N   UNK N   1      33.095  16.796   5.038  0.00  0.00    -0.336 N 
HETATM   30  N   UNK N   1      29.913  16.967   6.472  0.00  0.00    -0.346 N 
HETATM   31  C   UNK N   1      30.540  17.246   4.080  0.00  0.00     0.131 A 
HETATM   32  C   UNK N   1      30.709  16.707   7.552  0.00  0.00     0.188 A 
ATOM     33  HN  UNK N   1      28.902  17.092   6.456  1.00  0.00     0.167 HD
HETATM   34  N   UNK N   1      31.614  17.233   3.234  0.00  0.00    -0.337 N 
HETATM   35  C   UNK N   1      32.885  17.009   3.705  0.00  0.00     0.183 A 
ATOM     36  HN  UNK N   1      31.470  17.394   2.237  1.00  0.00     0.168 HD
ATOM     37  HN  UNK N   1      34.034  16.632   5.401  1.00  0.00     0.168 HD
BRANCH  31  38
HETATM   38  N   UNK N   1      29.242  17.477   3.586  0.00  0.00    -0.383 N 
HETATM   39  H   UNK N   1      29.094  17.973   2.748  0.00  0.00     0.157 HD
HETATM   40  H   UNK N   1      28.467  17.137   4.088  0.00  0.00     0.157 HD
ENDBRANCH  31  38
ENDBRANCH   5  26
TORSDOF 18
ENDMDL
MODEL 7
REMARK VINA RESULT:      -5.7      2.694      4.161
REMARK  18 active torsions:
REMARK  status: ('A' for Active; 'I' for Inactive)
REMARK    1  A    between atoms: C_1  and  C_2 
REMARK    2  A    between atoms: C_1  and  C_35 
REMARK    3  A    between atoms: C_2  and  C_3 
REMARK    4  A    between atoms: C_3  and  C_4 
REMARK    5  A    between atoms: C_4  and  C_5 
REMARK    6  A    between atoms: C_5  and  C_6 
REMARK    7  A    between atoms: C_6  and  C_7 
REMARK    8  A    between atoms: C_7  and  C_8 
REMARK    9  A    between atoms: C_8  and  N_9 
REMARK   10  A    between atoms: N_9  and  C_10 
REMARK   11  A    between atoms: C_10  and  C_11 
REMARK   12  A    between atoms: C_11  and  S_12 
REMARK   13  A    between atoms: C_13  and  S_12 
REMARK   14  A    between atoms: C_14  and  C_13 
REMARK   15  A    between atoms: C_16  and  O_17 
REMARK   16  A    between atoms: C_18  and  O_19 
REMARK   17  A    between atoms: C_20  and  N_21 
REMARK   18  A    between atoms: N_33  and  C_32 
ROOT
HETATM    1  C   UNK N   1      30.754  17.111   8.548  0.00  0.00     0.165 C 
HETATM    2  O   UNK N   1      30.127  17.209   7.293  0.00  0.00    -0.355 OA
HETATM    3  C   UNK N   1      29.707  17.547   9.604  0.00  0.00     0.180 C 
HETATM    4  C   UNK N   1      28.425  17.494   8.798  0.00  0.00     0.198 C 
HETATM    5  C   UNK N   1      29.008  18.024   7.508  0.00  0.00     0.262 C 
ENDROOT
BRANCH   1   6
HETATM    6  C   UNK N   1      31.977  18.033   8.424  0.00  0.00     0.108 C 
BRANCH   6   7
HETATM    7  S   UNK N   1      33.383  17.416   7.479  0.00  0.00    -0.165 SA
BRANCH   7   8
HETATM    8  C   UNK N   1      33.572  15.961   8.550  0.00  0.00     0.093 C 
BRANCH   8   9
HETATM    9  C   UNK N   1      34.376  16.328   9.786  0.00  0.00     0.124 C 
BRANCH   9  10
HETATM   10  N   UNK N   1      34.093  15.394  10.865  0.00  0.00    -0.420 N 
HETATM   11  H   UNK N   1      33.361  15.494  11.569  0.00  0.00     0.153 HD
BRANCH  10  12
HETATM   12  C   UNK N   1      35.041  14.291  10.763  0.00  0.00     0.113 C 
BRANCH  12  13
HETATM   13  C   UNK N   1      35.041  13.467  12.050  0.00  0.00     0.019 C 
BRANCH  13  14
HETATM   14  C   UNK N   1      36.368  13.484  12.794  0.00  0.00     0.002 C 
BRANCH  14  15
HETATM   15  C   UNK N   1      36.261  14.089  14.182  0.00  0.00     0.000 C 
BRANCH  15  16
HETATM   16  C   UNK N   1      36.958  13.175  15.175  0.00  0.00     0.000 C 
BRANCH  16  17
HETATM   17  C   UNK N   1      37.368  11.888  14.502  0.00  0.00     0.000 C 
BRANCH  17  18
HETATM   18  C   UNK N   1      36.824  10.721  15.296  0.00  0.00     0.000 C 
BRANCH  18  19
HETATM   19  C   UNK N   1      35.734  11.214  16.215  0.00  0.00    -0.000 C 
BRANCH  19  20
HETATM   20  C   UNK N   1      34.468  10.435  15.945  0.00  0.00    -0.005 C 
HETATM   21  C   UNK N   1      33.885  10.881  14.622  0.00  0.00     0.005 C 
ENDBRANCH  19  20
ENDBRANCH  18  19
ENDBRANCH  17  18
ENDBRANCH  16  17
ENDBRANCH  15  16
ENDBRANCH  14  15
ENDBRANCH  13  14
ENDBRANCH  12  13
ENDBRANCH  10  12
ENDBRANCH   9  10
ENDBRANCH   8   9
ENDBRANCH   7   8
ENDBRANCH   6   7
ENDBRANCH   1   6
BRANCH   3  22
HETATM   22  O   UNK N   1      29.659  16.708  10.719  0.00  0.00    -0.390 OA
HETATM   23  H   UNK N   1      28.896  16.601  11.309  0.00  0.00     0.210 HD
ENDBRANCH   3  22
BRANCH   4  24
HETATM   24  O   UNK N   1      27.418  18.302   9.331  0.00  0.00    -0.388 OA
HETATM   25  H   UNK N   1      26.550  18.630   9.047  0.00  0.00     0.210 HD
ENDBRANCH   4  24
BRANCH   5  26
HETATM   26  N   UNK N   1      28.165  17.999   6.322  0.00  0.00    -0.297 N 
HETATM   27  C   UNK N   1      27.857  16.875   5.671  0.00  0.00     0.142 A 
HETATM   28  C   UNK N   1      27.076  17.163   4.620  0.00  0.00     0.122 A 
HETATM   29  N   UNK N   1      28.235  15.613   5.987  0.00  0.00    -0.336 N 
HETATM   30  N   UNK N   1      26.861  18.493   4.564  0.00  0.00    -0.346 N 
HETATM   31  C   UNK N   1      26.626  16.138   3.798  0.00  0.00     0.131 A 
HETATM   32  C   UNK N   1      27.546  18.993   5.636  0.00  0.00     0.188 A 
ATOM     33  HN  UNK N   1      26.311  19.009   3.877  1.00  0.00     0.167 HD
HETATM   34  N   UNK N   1      26.998  14.858   4.106  0.00  0.00    -0.337 N 
HETATM   35  C   UNK N   1      27.796  14.593   5.192  0.00  0.00     0.183 A 
ATOM     36  HN  UNK N   1      26.677  14.087   3.518  1.00  0.00     0.168 HD
ATOM     37  HN  UNK N   1      28.831  15.430   6.794  1.00  0.00     0.168 HD
BRANCH  31  38
HETATM   38  N   UNK N   1      25.809  16.397   2.683  0.00  0.00    -0.383 N 
HETATM   39  H   UNK N   1      26.151  16.888   1.900  0.00  0.00     0.157 HD
HETATM   40  H   UNK N   1      24.876  16.082   2.684  0.00  0.00     0.157 HD
ENDBRANCH  31  38
ENDBRANCH   5  26
TORSDOF 18
ENDMDL
MODEL 8
REMARK VINA RESULT:      -5.6      3.066     10.785
REMARK  18 active torsions:
REMARK  status: ('A' for Active; 'I' for Inactive)
REMARK    1  A    between atoms: C_1  and  C_2 
REMARK    2  A    between atoms: C_1  and  C_35 
REMARK    3  A    between atoms: C_2  and  C_3 
REMARK    4  A    between atoms: C_3  and  C_4 
REMARK    5  A    between atoms: C_4  and  C_5 
REMARK    6  A    between atoms: C_5  and  C_6 
REMARK    7  A    between atoms: C_6  and  C_7 
REMARK    8  A    between atoms: C_7  and  C_8 
REMARK    9  A    between atoms: C_8  and  N_9 
REMARK   10  A    between atoms: N_9  and  C_10 
REMARK   11  A    between atoms: C_10  and  C_11 
REMARK   12  A    between atoms: C_11  and  S_12 
REMARK   13  A    between atoms: C_13  and  S_12 
REMARK   14  A    between atoms: C_14  and  C_13 
REMARK   15  A    between atoms: C_16  and  O_17 
REMARK   16  A    between atoms: C_18  and  O_19 
REMARK   17  A    between atoms: C_20  and  N_21 
REMARK   18  A    between atoms: N_33  and  C_32 
ROOT
HETATM    1  C   UNK N   1      34.634  14.377  10.445  0.00  0.00     0.165 C 
HETATM    2  O   UNK N   1      34.566  14.190  11.838  0.00  0.00    -0.355 OA
HETATM    3  C   UNK N   1      36.092  14.062  10.025  0.00  0.00     0.180 C 
HETATM    4  C   UNK N   1      36.613  13.346  11.255  0.00  0.00     0.198 C 
HETATM    5  C   UNK N   1      35.898  14.204  12.272  0.00  0.00     0.262 C 
ENDROOT
BRANCH   1   6
HETATM    6  C   UNK N   1      34.201  15.838  10.246  0.00  0.00     0.108 C 
BRANCH   6   7
HETATM    7  S   UNK N   1      34.586  16.603   8.660  0.00  0.00    -0.165 SA
BRANCH   7   8
HETATM    8  C   UNK N   1      32.995  17.478   8.600  0.00  0.00     0.093 C 
BRANCH   8   9
HETATM    9  C   UNK N   1      31.853  16.475   8.569  0.00  0.00     0.124 C 
BRANCH   9  10
HETATM   10  N   UNK N   1      30.618  17.132   8.170  0.00  0.00    -0.420 N 
HETATM   11  H   UNK N   1      30.425  17.541   7.255  0.00  0.00     0.153 HD
BRANCH  10  12
HETATM   12  C   UNK N   1      29.708  17.105   9.308  0.00  0.00     0.113 C 
BRANCH  12  13
HETATM   13  C   UNK N   1      28.305  17.536   8.880  0.00  0.00     0.019 C 
BRANCH  13  14
HETATM   14  C   UNK N   1      28.200  19.005   8.496  0.00  0.00     0.002 C 
BRANCH  14  15
HETATM   15  C   UNK N   1      27.955  19.213   7.013  0.00  0.00     0.000 C 
BRANCH  15  16
HETATM   16  C   UNK N   1      27.056  20.423   6.826  0.00  0.00     0.000 C 
BRANCH  16  17
HETATM   17  C   UNK N   1      27.445  21.177   5.578  0.00  0.00     0.000 C 
BRANCH  17  18
HETATM   18  C   UNK N   1      27.247  20.278   4.378  0.00  0.00     0.000 C 
BRANCH  18  19
HETATM   19  C   UNK N   1      25.776  20.205   4.051  0.00  0.00    -0.000 C 
BRANCH  19  20
HETATM   20  C   UNK N   1      25.482  18.887   3.374  0.00  0.00    -0.005 C 
HETATM   21  C   UNK N   1      26.462  17.846   3.871  0.00  0.00     0.005 C 
ENDBRANCH  19  20
ENDBRANCH  18  19
ENDBRANCH  17  18
ENDBRANCH  16  17
ENDBRANCH  15  16
ENDBRANCH  14  15
ENDBRANCH  13  14
ENDBRANCH  12  13
ENDBRANCH  10  12
ENDBRANCH   9  10
ENDBRANCH   8   9
ENDBRANCH   7   8
ENDBRANCH   6   7
ENDBRANCH   1   6
BRANCH   3  22
HETATM   22  O   UNK N   1      36.181  13.267   8.880  0.00  0.00    -0.390 OA
HETATM   23  H   UNK N   1      36.991  13.104   8.371  0.00  0.00     0.210 HD
ENDBRANCH   3  22
BRANCH   4  24
HETATM   24  O   UNK N   1      38.005  13.396  11.360  0.00  0.00    -0.388 OA
HETATM   25  H   UNK N   1      38.745  12.777  11.253  0.00  0.00     0.210 HD
ENDBRANCH   4  24
BRANCH   5  26
HETATM   26  N   UNK N   1      35.950  13.789  13.666  0.00  0.00    -0.297 N 
HETATM   27  C   UNK N   1      35.278  12.736  14.138  0.00  0.00     0.142 A 
HETATM   28  C   UNK N   1      35.512  12.604  15.451  0.00  0.00     0.122 A 
HETATM   29  N   UNK N   1      34.482  11.891  13.440  0.00  0.00    -0.336 N 
HETATM   30  N   UNK N   1      36.346  13.580  15.865  0.00  0.00    -0.346 N 
HETATM   31  C   UNK N   1      34.917  11.563  16.152  0.00  0.00     0.131 A 
HETATM   32  C   UNK N   1      36.608  14.304  14.736  0.00  0.00     0.188 A 
ATOM     33  HN  UNK N   1      36.701  13.741  16.807  1.00  0.00     0.167 HD
HETATM   34  N   UNK N   1      34.112  10.700  15.461  0.00  0.00    -0.337 N 
HETATM   35  C   UNK N   1      33.894  10.858  14.114  0.00  0.00     0.183 A 
ATOM     36  HN  UNK N   1      33.666   9.926  15.954  1.00  0.00     0.168 HD
ATOM     37  HN  UNK N   1      34.325  12.021  12.441  1.00  0.00     0.168 HD
BRANCH  31  38
HETATM   38  N   UNK N   1      35.132  11.392  17.532  0.00  0.00    -0.383 N 
HETATM   39  H   UNK N   1      35.071  12.149  18.158  0.00  0.00     0.157 HD
HETATM   40  H   UNK N   1      35.349  10.496  17.879  0.00  0.00     0.157 HD
ENDBRANCH  31  38
ENDBRANCH   5  26
TORSDOF 18
ENDMDL
MODEL 9
REMARK VINA RESULT:      -5.5      1.662      3.182
REMARK  18 active torsions:
REMARK  status: ('A' for Active; 'I' for Inactive)
REMARK    1  A    between atoms: C_1  and  C_2 
REMARK    2  A    between atoms: C_1  and  C_35 
REMARK    3  A    between atoms: C_2  and  C_3 
REMARK    4  A    between atoms: C_3  and  C_4 
REMARK    5  A    between atoms: C_4  and  C_5 
REMARK    6  A    between atoms: C_5  and  C_6 
REMARK    7  A    between atoms: C_6  and  C_7 
REMARK    8  A    between atoms: C_7  and  C_8 
REMARK    9  A    between atoms: C_8  and  N_9 
REMARK   10  A    between atoms: N_9  and  C_10 
REMARK   11  A    between atoms: C_10  and  C_11 
REMARK   12  A    between atoms: C_11  and  S_12 
REMARK   13  A    between atoms: C_13  and  S_12 
REMARK   14  A    between atoms: C_14  and  C_13 
REMARK   15  A    between atoms: C_16  and  O_17 
REMARK   16  A    between atoms: C_18  and  O_19 
REMARK   17  A    between atoms: C_20  and  N_21 
REMARK   18  A    between atoms: N_33  and  C_32 
ROOT
HETATM    1  C   UNK N   1      33.930  15.549   9.733  0.00  0.00     0.165 C 
HETATM    2  O   UNK N   1      32.740  15.651   8.989  0.00  0.00    -0.355 OA
HETATM    3  C   UNK N   1      34.877  16.659   9.210  0.00  0.00     0.180 C 
HETATM    4  C   UNK N   1      33.915  17.535   8.432  0.00  0.00     0.198 C 
HETATM    5  C   UNK N   1      33.078  16.413   7.863  0.00  0.00     0.262 C 
ENDROOT
BRANCH   1   6
HETATM    6  C   UNK N   1      34.406  14.112   9.475  0.00  0.00     0.108 C 
BRANCH   6   7
HETATM    7  S   UNK N   1      36.150  13.756   9.767  0.00  0.00    -0.165 SA
BRANCH   7   8
HETATM    8  C   UNK N   1      35.816  13.044  11.405  0.00  0.00     0.093 C 
BRANCH   8   9
HETATM    9  C   UNK N   1      37.017  13.249  12.313  0.00  0.00     0.124 C 
BRANCH   9  10
HETATM   10  N   UNK N   1      38.068  12.300  11.979  0.00  0.00    -0.420 N 
HETATM   11  H   UNK N   1      38.858  12.474  11.357  0.00  0.00     0.153 HD
BRANCH  10  12
HETATM   12  C   UNK N   1      37.791  11.057  12.688  0.00  0.00     0.113 C 
BRANCH  12  13
HETATM   13  C   UNK N   1      37.796  11.291  14.198  0.00  0.00     0.019 C 
BRANCH  13  14
HETATM   14  C   UNK N   1      37.043  10.231  14.990  0.00  0.00     0.002 C 
BRANCH  14  15
HETATM   15  C   UNK N   1      35.657  10.682  15.415  0.00  0.00     0.000 C 
BRANCH  15  16
HETATM   16  C   UNK N   1      34.950   9.524  16.097  0.00  0.00     0.000 C 
BRANCH  16  17
HETATM   17  C   UNK N   1      35.060   9.652  17.596  0.00  0.00     0.000 C 
BRANCH  17  18
HETATM   18  C   UNK N   1      35.285  11.106  17.951  0.00  0.00     0.000 C 
BRANCH  18  19
HETATM   19  C   UNK N   1      35.300  11.253  19.452  0.00  0.00    -0.000 C 
BRANCH  19  20
HETATM   20  C   UNK N   1      35.299  12.721  19.807  0.00  0.00    -0.005 C 
HETATM   21  C   UNK N   1      35.173  13.537  18.539  0.00  0.00     0.005 C 
ENDBRANCH  19  20
ENDBRANCH  18  19
ENDBRANCH  17  18
ENDBRANCH  16  17
ENDBRANCH  15  16
ENDBRANCH  14  15
ENDBRANCH  13  14
ENDBRANCH  12  13
ENDBRANCH  10  12
ENDBRANCH   9  10
ENDBRANCH   8   9
ENDBRANCH   7   8
ENDBRANCH   6   7
ENDBRANCH   1   6
BRANCH   3  22
HETATM   22  O   UNK N   1      35.520  17.366  10.229  0.00  0.00    -0.390 OA
HETATM   23  H   UNK N   1      35.483  18.327  10.355  0.00  0.00     0.210 HD
ENDBRANCH   3  22
BRANCH   4  24
HETATM   24  O   UNK N   1      34.555  18.306   7.458  0.00  0.00    -0.388 OA
HETATM   25  H   UNK N   1      34.374  18.587   6.548  0.00  0.00     0.210 HD
ENDBRANCH   4  24
BRANCH   5  26
HETATM   26  N   UNK N   1      31.864  16.769   7.145  0.00  0.00    -0.297 N 
HETATM   27  C   UNK N   1      31.798  16.833   5.813  0.00  0.00     0.142 A 
HETATM   28  C   UNK N   1      30.561  17.191   5.439  0.00  0.00     0.122 A 
HETATM   29  N   UNK N   1      32.791  16.574   4.928  0.00  0.00    -0.336 N 
HETATM   30  N   UNK N   1      29.791  17.372   6.532  0.00  0.00    -0.346 N 
HETATM   31  C   UNK N   1      30.261  17.315   4.089  0.00  0.00     0.131 A 
HETATM   32  C   UNK N   1      30.623  17.100   7.583  0.00  0.00     0.188 A 
ATOM     33  HN  UNK N   1      28.810  17.649   6.567  1.00  0.00     0.167 HD
HETATM   34  N   UNK N   1      31.252  17.053   3.184  0.00  0.00    -0.337 N 
HETATM   35  C   UNK N   1      32.510  16.684   3.596  0.00  0.00     0.183 A 
ATOM     36  HN  UNK N   1      31.055  17.135   2.186  1.00  0.00     0.168 HD
ATOM     37  HN  UNK N   1      33.721  16.304   5.247  1.00  0.00     0.168 HD
BRANCH  31  38
HETATM   38  N   UNK N   1      28.977  17.693   3.656  0.00  0.00    -0.383 N 
HETATM   39  H   UNK N   1      28.473  18.408   4.108  0.00  0.00     0.157 HD
HETATM   40  H   UNK N   1      28.573  17.232   2.885  0.00  0.00     0.157 HD
ENDBRANCH  31  38
ENDBRANCH   5  26
TORSDOF 18
ENDMDL
