REMARK  18 active torsions:
REMARK  status: ('A' for Active; 'I' for Inactive)
REMARK    1  A    between atoms: C_1  and  C_2 
REMARK    2  A    between atoms: C_1  and  C_35 
REMARK    3  A    between atoms: C_2  and  C_3 
REMARK    4  A    between atoms: C_3  and  C_4 
REMARK    5  A    between atoms: C_4  and  C_5 
REMARK    6  A    between atoms: C_5  and  C_6 
REMARK    7  A    between atoms: C_6  and  C_7 
REMARK    8  A    between atoms: C_7  and  C_8 
REMARK    9  A    between atoms: C_8  and  N_9 
REMARK   10  A    between atoms: N_9  and  C_10 
REMARK   11  A    between atoms: C_10  and  C_11 
REMARK   12  A    between atoms: C_11  and  S_12 
REMARK   13  A    between atoms: C_13  and  S_12 
REMARK   14  A    between atoms: C_14  and  C_13 
REMARK   15  A    between atoms: C_16  and  O_17 
REMARK   16  A    between atoms: C_18  and  O_19 
REMARK   17  A    between atoms: C_20  and  N_21 
REMARK   18  A    between atoms: N_33  and  C_32 
ROOT
HETATM    1  C   UNK N   1      -1.304   0.173  -0.286  0.00  0.00     0.165 C 
HETATM    2  O   UNK N   1      -2.685   0.374  -0.462  0.00  0.00    -0.355 OA
HETATM    3  C   UNK N   1      -1.140  -1.197   0.419  0.00  0.00     0.180 C 
HETATM    4  C   UNK N   1      -2.515  -1.804   0.223  0.00  0.00     0.198 C 
HETATM    5  C   UNK N   1      -3.299  -0.527   0.418  0.00  0.00     0.262 C 
ENDROOT
BRANCH   1   6
HETATM    6  C   UNK N   1      -0.855   1.388   0.540  0.00  0.00     0.108 C 
BRANCH   6   7
HETATM    7  S   UNK N   1       0.902   1.522   0.922  0.00  0.00    -0.165 SA
BRANCH   7   8
HETATM    8  C   UNK N   1       1.279   2.285  -0.683  0.00  0.00     0.093 C 
BRANCH   8   9
HETATM    9  C   UNK N   1       1.667   1.213  -1.688  0.00  0.00     0.124 C 
BRANCH   9  10
HETATM   10  N   UNK N   1       2.905   0.567  -1.280  0.00  0.00    -0.420 N 
HETATM   11  H   UNK N   1       3.831   0.995  -1.273  0.00  0.00     0.153 HD
BRANCH  10  12
HETATM   12  C   UNK N   1       2.588  -0.800  -0.885  0.00  0.00     0.113 C 
BRANCH  12  13
HETATM   13  C   UNK N   1       2.690  -0.955   0.632  0.00  0.00     0.019 C 
BRANCH  13  14
HETATM   14  C   UNK N   1       4.096  -1.259   1.129  0.00  0.00     0.002 C 
BRANCH  14  15
HETATM   15  C   UNK N   1       5.093  -0.165   0.791  0.00  0.00     0.000 C 
BRANCH  15  16
HETATM   16  C   UNK N   1       5.661  -0.426  -0.593  0.00  0.00     0.000 C 
BRANCH  16  17
HETATM   17  C   UNK N   1       6.937   0.355  -0.791  0.00  0.00     0.000 C 
BRANCH  17  18
HETATM   18  C   UNK N   1       8.076  -0.385  -0.125  0.00  0.00     0.000 C 
BRANCH  18  19
HETATM   19  C   UNK N   1       9.330   0.448  -0.219  0.00  0.00    -0.000 C 
BRANCH  19  20
HETATM   20  C   UNK N   1      10.506  -0.369   0.263  0.00  0.00    -0.005 C 
HETATM   21  C   UNK N   1      11.768   0.456   0.135  0.00  0.00     0.005 C 
ENDBRANCH  19  20
ENDBRANCH  18  19
ENDBRANCH  17  18
ENDBRANCH  16  17
ENDBRANCH  15  16
ENDBRANCH  14  15
ENDBRANCH  13  14
ENDBRANCH  12  13
ENDBRANCH  10  12
ENDBRANCH   9  10
ENDBRANCH   8   9
ENDBRANCH   7   8
ENDBRANCH   6   7
ENDBRANCH   1   6
BRANCH   3  22
HETATM   22  O   UNK N   1      -0.134  -1.991  -0.136  0.00  0.00    -0.390 OA
HETATM   23  H   UNK N   1      -0.263  -2.872  -0.522  0.00  0.00     0.210 HD
ENDBRANCH   3  22
BRANCH   4  24
HETATM   24  O   UNK N   1      -2.809  -2.791   1.167  0.00  0.00    -0.388 OA
HETATM   25  H   UNK N   1      -3.504  -2.957   1.823  0.00  0.00     0.210 HD
ENDBRANCH   4  24
BRANCH   5  26
HETATM   26  N   UNK N   1      -4.728  -0.560   0.147  0.00  0.00    -0.297 N 
HETATM   27  C   UNK N   1      -5.499   0.530   0.171  0.00  0.00     0.142 A 
HETATM   28  C   UNK N   1      -6.766   0.192  -0.109  0.00  0.00     0.122 A 
HETATM   29  N   UNK N   1      -5.112   1.804   0.419  0.00  0.00    -0.336 N 
HETATM   30  N   UNK N   1      -6.846  -1.138  -0.319  0.00  0.00    -0.346 N 
HETATM   31  C   UNK N   1      -7.746   1.175  -0.146  0.00  0.00     0.131 A 
HETATM   32  C   UNK N   1      -5.564  -1.585  -0.158  0.00  0.00     0.188 A 
ATOM     33  HN  UNK N   1      -7.675  -1.686  -0.547  1.00  0.00     0.167 HD
HETATM   34  N   UNK N   1      -7.370   2.467   0.100  0.00  0.00    -0.337 N 
HETATM   35  C   UNK N   1      -6.063   2.784   0.380  0.00  0.00     0.183 A 
ATOM     36  HN  UNK N   1      -8.072   3.207   0.076  1.00  0.00     0.168 HD
ATOM     37  HN  UNK N   1      -4.139   2.026   0.629  1.00  0.00     0.168 HD
BRANCH  31  38
HETATM   38  N   UNK N   1      -9.088   0.862  -0.431  0.00  0.00    -0.383 N 
HETATM   39  H   UNK N   1      -9.747   1.566  -0.630  0.00  0.00     0.157 HD
HETATM   40  H   UNK N   1      -9.374  -0.080  -0.431  0.00  0.00     0.157 HD
ENDBRANCH  31  38
ENDBRANCH   5  26
TORSDOF 18
