REMARK  5 active torsions:
REMARK  status: ('A' for Active; 'I' for Inactive)
REMARK    1  A    between atoms: C_13  and  C_9 
REMARK    2  A    between atoms: C_23  and  N_16 
REMARK    3  A    between atoms: C_17  and  C_18 
REMARK    4  A    between atoms: C_21  and  O_22 
REMARK    5  A    between atoms: C_24  and  C_23 
ROOT
HETATM    1  C   UNK N   1       0.288   0.154   0.224  0.00  0.00     0.091 A 
HETATM    2  C   UNK N   1      -1.073  -0.290   0.050  0.00  0.00     0.259 A 
HETATM    3  O   UNK N   1      -2.026   0.458  -0.089  0.00  0.00    -0.267 OA
HETATM    4  N   UNK N   1      -1.148  -1.641   0.074  0.00  0.00    -0.333 N 
HETATM    5  C   UNK N   1       0.175  -2.217   0.286  0.00  0.00     0.149 A 
HETATM    6  C   UNK N   1       1.031  -0.953   0.355  0.00  0.00     0.084 A 
ENDROOT
BRANCH   1   7
HETATM    7  C   UNK N   1       0.675   1.598   0.299  0.00  0.00     0.072 A 
HETATM    8  N   UNK N   1      -0.233   2.486   0.470  0.00  0.00    -0.279 N 
HETATM    9  S   UNK N   1       0.206   4.210   0.644  0.00  0.00     0.264 S 
ATOM     10  HN  UNK N   1      -1.213   2.207   0.507  1.00  0.00     0.179 HD
HETATM   11  O   UNK N   1       0.672   4.508  -0.792  0.00  0.00    -0.200 OA
HETATM   12  O   UNK N   1      -1.085   4.345  -0.177  0.00  0.00    -0.200 OA
HETATM   13  C   UNK N   1       1.891   3.532   0.389  0.00  0.00     0.092 A 
HETATM   14  C   UNK N   1       3.060   4.316   0.406  0.00  0.00     0.026 A 
HETATM   15  C   UNK N   1       1.982   2.170   0.242  0.00  0.00     0.016 A 
HETATM   16  C   UNK N   1       4.304   3.700   0.221  0.00  0.00     0.002 A 
HETATM   17  C   UNK N   1       4.379   2.312   0.032  0.00  0.00     0.001 A 
HETATM   18  C   UNK N   1       3.212   1.539   0.047  0.00  0.00     0.015 A 
ENDBRANCH   1   7
BRANCH   6  19
HETATM   19  O   UNK N   1       2.356  -0.968   0.587  0.00  0.00    -0.362 OA
HETATM   20  H   UNK N   1       2.808  -1.773   0.749  0.00  0.00     0.217 HD
ENDBRANCH   6  19
BRANCH   4  21
HETATM   21  C   UNK N   1      -2.363  -2.455  -0.011  0.00  0.00     0.165 C 
BRANCH  21  22
HETATM   22  C   UNK N   1      -3.640  -1.677  -0.103  0.00  0.00    -0.040 A 
HETATM   23  C   UNK N   1      -4.402  -1.471   1.051  0.00  0.00     0.009 A 
HETATM   24  C   UNK N   1      -5.561  -0.691   0.996  0.00  0.00     0.001 A 
HETATM   25  C   UNK N   1      -5.957  -0.113  -0.214  0.00  0.00     0.000 A 
HETATM   26  C   UNK N   1      -5.202  -0.325  -1.372  0.00  0.00     0.001 A 
HETATM   27  C   UNK N   1      -4.044  -1.107  -1.319  0.00  0.00     0.009 A 
ENDBRANCH  21  22
ENDBRANCH   4  21
BRANCH   5  28
HETATM   28  C   UNK N   1       0.612  -3.161  -0.853  0.00  0.00     0.007 C 
HETATM   29  C   UNK N   1       2.046  -3.628  -0.657  0.00  0.00     0.012 C 
HETATM   30  C   UNK N   1      -0.259  -4.406  -0.903  0.00  0.00     0.012 C 
ENDBRANCH   5  28
TORSDOF 5
