MODEL 1
REMARK VINA RESULT:      -7.7      0.000      0.000
REMARK  5 active torsions:
REMARK  status: ('A' for Active; 'I' for Inactive)
REMARK    1  A    between atoms: C_13  and  C_9 
REMARK    2  A    between atoms: C_23  and  N_16 
REMARK    3  A    between atoms: C_17  and  C_18 
REMARK    4  A    between atoms: C_21  and  O_22 
REMARK    5  A    between atoms: C_24  and  C_23 
ROOT
HETATM    1  C   UNK N   1      28.528  24.595  -4.046  0.00  0.00     0.091 A 
HETATM    2  C   UNK N   1      29.078  25.892  -4.355  0.00  0.00     0.259 A 
HETATM    3  O   UNK N   1      30.210  26.076  -4.769  0.00  0.00    -0.267 OA
HETATM    4  N   UNK N   1      28.175  26.871  -4.113  0.00  0.00    -0.333 N 
HETATM    5  C   UNK N   1      26.935  26.299  -3.598  0.00  0.00     0.149 A 
HETATM    6  C   UNK N   1      27.279  24.810  -3.611  0.00  0.00     0.084 A 
ENDROOT
BRANCH   1   7
HETATM    7  C   UNK N   1      29.312  23.326  -4.158  0.00  0.00     0.072 A 
HETATM    8  N   UNK N   1      29.951  22.887  -3.137  0.00  0.00    -0.279 N 
HETATM    9  S   UNK N   1      30.830  21.332  -3.218  0.00  0.00     0.264 S 
ATOM     10  HN  UNK N   1      29.957  23.428  -2.274  1.00  0.00     0.179 HD
HETATM   11  O   UNK N   1      31.978  21.729  -4.162  0.00  0.00    -0.200 OA
HETATM   12  O   UNK N   1      31.802  22.144  -2.348  0.00  0.00    -0.200 OA
HETATM   13  C   UNK N   1      30.219  21.381  -4.946  0.00  0.00     0.092 A 
HETATM   14  C   UNK N   1      30.454  20.361  -5.887  0.00  0.00     0.026 A 
HETATM   15  C   UNK N   1      29.437  22.457  -5.284  0.00  0.00     0.016 A 
HETATM   16  C   UNK N   1      29.927  20.481  -7.179  0.00  0.00     0.002 A 
HETATM   17  C   UNK N   1      29.163  21.606  -7.523  0.00  0.00     0.001 A 
HETATM   18  C   UNK N   1      28.910  22.600  -6.569  0.00  0.00     0.015 A 
ENDBRANCH   1   7
BRANCH   6  19
HETATM   19  O   UNK N   1      26.441  23.853  -3.173  0.00  0.00    -0.362 OA
HETATM   20  H   UNK N   1      25.580  23.764  -3.534  0.00  0.00     0.217 HD
ENDBRANCH   6  19
BRANCH   4  21
HETATM   21  C   UNK N   1      28.386  28.314  -4.249  0.00  0.00     0.165 C 
BRANCH  21  22
HETATM   22  C   UNK N   1      28.837  29.008  -3.000  0.00  0.00    -0.040 A 
HETATM   23  C   UNK N   1      27.885  29.570  -2.145  0.00  0.00     0.009 A 
HETATM   24  C   UNK N   1      28.283  30.162  -0.943  0.00  0.00     0.001 A 
HETATM   25  C   UNK N   1      29.637  30.188  -0.593  0.00  0.00     0.000 A 
HETATM   26  C   UNK N   1      30.593  29.634  -1.450  0.00  0.00     0.001 A 
HETATM   27  C   UNK N   1      30.196  29.045  -2.654  0.00  0.00     0.009 A 
ENDBRANCH  21  22
ENDBRANCH   4  21
BRANCH   5  28
HETATM   28  C   UNK N   1      25.710  26.627  -4.475  0.00  0.00     0.007 C 
HETATM   29  C   UNK N   1      25.331  28.096  -4.359  0.00  0.00     0.012 C 
HETATM   30  C   UNK N   1      25.993  26.355  -5.944  0.00  0.00     0.012 C 
ENDBRANCH   5  28
TORSDOF 5
ENDMDL
MODEL 2
REMARK VINA RESULT:      -7.7     11.709     13.500
REMARK  5 active torsions:
REMARK  status: ('A' for Active; 'I' for Inactive)
REMARK    1  A    between atoms: C_13  and  C_9 
REMARK    2  A    between atoms: C_23  and  N_16 
REMARK    3  A    between atoms: C_17  and  C_18 
REMARK    4  A    between atoms: C_21  and  O_22 
REMARK    5  A    between atoms: C_24  and  C_23 
ROOT
HETATM    1  C   UNK N   1      27.980  17.776   5.524  0.00  0.00     0.091 A 
HETATM    2  C   UNK N   1      26.848  16.883   5.486  0.00  0.00     0.259 A 
HETATM    3  O   UNK N   1      26.713  15.915   6.214  0.00  0.00    -0.267 OA
HETATM    4  N   UNK N   1      25.969  17.258   4.528  0.00  0.00    -0.333 N 
HETATM    5  C   UNK N   1      26.458  18.440   3.827  0.00  0.00     0.149 A 
HETATM    6  C   UNK N   1      27.768  18.694   4.572  0.00  0.00     0.084 A 
ENDROOT
BRANCH   1   7
HETATM    7  C   UNK N   1      29.146  17.581   6.443  0.00  0.00     0.072 A 
HETATM    8  N   UNK N   1      28.948  17.515   7.707  0.00  0.00    -0.279 N 
HETATM    9  S   UNK N   1      30.308  17.202   8.824  0.00  0.00     0.264 S 
ATOM     10  HN  UNK N   1      28.007  17.642   8.080  1.00  0.00     0.179 HD
HETATM   11  O   UNK N   1      31.067  18.535   8.692  0.00  0.00    -0.200 OA
HETATM   12  O   UNK N   1      29.503  18.207   9.660  0.00  0.00    -0.200 OA
HETATM   13  C   UNK N   1      31.254  17.221   7.252  0.00  0.00     0.092 A 
HETATM   14  C   UNK N   1      32.640  16.990   7.171  0.00  0.00     0.026 A 
HETATM   15  C   UNK N   1      30.523  17.410   6.105  0.00  0.00     0.016 A 
HETATM   16  C   UNK N   1      33.268  17.006   5.919  0.00  0.00     0.002 A 
HETATM   17  C   UNK N   1      32.514  17.240   4.759  0.00  0.00     0.001 A 
HETATM   18  C   UNK N   1      31.132  17.439   4.849  0.00  0.00     0.015 A 
ENDBRANCH   1   7
BRANCH   6  19
HETATM   19  O   UNK N   1      28.623  19.682   4.252  0.00  0.00    -0.362 OA
HETATM   20  H   UNK N   1      28.495  20.199   3.480  0.00  0.00     0.217 HD
ENDBRANCH   6  19
BRANCH   4  21
HETATM   21  C   UNK N   1      24.733  16.568   4.150  0.00  0.00     0.165 C 
BRANCH  21  22
HETATM   22  C   UNK N   1      23.609  16.702   5.131  0.00  0.00    -0.040 A 
HETATM   23  C   UNK N   1      22.868  17.888   5.167  0.00  0.00     0.009 A 
HETATM   24  C   UNK N   1      21.774  18.005   6.029  0.00  0.00     0.001 A 
HETATM   25  C   UNK N   1      21.417  16.934   6.854  0.00  0.00     0.000 A 
HETATM   26  C   UNK N   1      22.162  15.751   6.828  0.00  0.00     0.001 A 
HETATM   27  C   UNK N   1      23.258  15.633   5.968  0.00  0.00     0.009 A 
ENDBRANCH  21  22
ENDBRANCH   4  21
BRANCH   5  28
HETATM   28  C   UNK N   1      25.491  19.638   3.916  0.00  0.00     0.007 C 
HETATM   29  C   UNK N   1      25.789  20.493   5.139  0.00  0.00     0.012 C 
HETATM   30  C   UNK N   1      25.617  20.541   2.700  0.00  0.00     0.012 C 
ENDBRANCH   5  28
TORSDOF 5
ENDMDL
MODEL 3
REMARK VINA RESULT:      -7.5     15.722     17.703
REMARK  5 active torsions:
REMARK  status: ('A' for Active; 'I' for Inactive)
REMARK    1  A    between atoms: C_13  and  C_9 
REMARK    2  A    between atoms: C_23  and  N_16 
REMARK    3  A    between atoms: C_17  and  C_18 
REMARK    4  A    between atoms: C_21  and  O_22 
REMARK    5  A    between atoms: C_24  and  C_23 
ROOT
HETATM    1  C   UNK N   1      33.873  14.376   8.942  0.00  0.00     0.091 A 
HETATM    2  C   UNK N   1      33.616  15.784   8.770  0.00  0.00     0.259 A 
HETATM    3  O   UNK N   1      34.182  16.666   9.394  0.00  0.00    -0.267 OA
HETATM    4  N   UNK N   1      32.660  15.991   7.835  0.00  0.00    -0.333 N 
HETATM    5  C   UNK N   1      32.181  14.716   7.311  0.00  0.00     0.149 A 
HETATM    6  C   UNK N   1      33.054  13.738   8.096  0.00  0.00     0.084 A 
ENDROOT
BRANCH   1   7
HETATM    7  C   UNK N   1      34.840  13.837   9.950  0.00  0.00     0.072 A 
HETATM    8  N   UNK N   1      34.412  13.468  11.100  0.00  0.00    -0.279 N 
HETATM    9  S   UNK N   1      35.529  12.746  12.294  0.00  0.00     0.264 S 
ATOM     10  HN  UNK N   1      33.427  13.587  11.335  1.00  0.00     0.179 HD
HETATM   11  O   UNK N   1      36.366  13.987  12.653  0.00  0.00    -0.200 OA
HETATM   12  O   UNK N   1      34.637  13.575  13.230  0.00  0.00    -0.200 OA
HETATM   13  C   UNK N   1      36.745  13.077  10.961  0.00  0.00     0.092 A 
HETATM   14  C   UNK N   1      38.109  12.740  11.046  0.00  0.00     0.026 A 
HETATM   15  C   UNK N   1      36.245  13.626   9.806  0.00  0.00     0.016 A 
HETATM   16  C   UNK N   1      38.954  13.016   9.964  0.00  0.00     0.002 A 
HETATM   17  C   UNK N   1      38.437  13.614   8.804  0.00  0.00     0.001 A 
HETATM   18  C   UNK N   1      37.073  13.917   8.720  0.00  0.00     0.015 A 
ENDBRANCH   1   7
BRANCH   6  19
HETATM   19  O   UNK N   1      32.949  12.401   7.986  0.00  0.00    -0.362 OA
HETATM   20  H   UNK N   1      32.117  11.975   8.055  0.00  0.00     0.217 HD
ENDBRANCH   6  19
BRANCH   4  21
HETATM   21  C   UNK N   1      32.090  17.279   7.430  0.00  0.00     0.165 C 
BRANCH  21  22
HETATM   22  C   UNK N   1      30.714  17.554   7.955  0.00  0.00    -0.040 A 
HETATM   23  C   UNK N   1      30.567  18.221   9.175  0.00  0.00     0.009 A 
HETATM   24  C   UNK N   1      29.292  18.546   9.647  0.00  0.00     0.001 A 
HETATM   25  C   UNK N   1      28.162  18.207   8.896  0.00  0.00     0.000 A 
HETATM   26  C   UNK N   1      28.306  17.532   7.680  0.00  0.00     0.001 A 
HETATM   27  C   UNK N   1      29.580  17.204   7.208  0.00  0.00     0.009 A 
ENDBRANCH  21  22
ENDBRANCH   4  21
BRANCH   5  28
HETATM   28  C   UNK N   1      32.371  14.581   5.787  0.00  0.00     0.007 C 
HETATM   29  C   UNK N   1      33.808  14.218   5.444  0.00  0.00     0.012 C 
HETATM   30  C   UNK N   1      31.487  13.484   5.215  0.00  0.00     0.012 C 
ENDBRANCH   5  28
TORSDOF 5
ENDMDL
MODEL 4
REMARK VINA RESULT:      -7.4     14.460     16.609
REMARK  5 active torsions:
REMARK  status: ('A' for Active; 'I' for Inactive)
REMARK    1  A    between atoms: C_13  and  C_9 
REMARK    2  A    between atoms: C_23  and  N_16 
REMARK    3  A    between atoms: C_17  and  C_18 
REMARK    4  A    between atoms: C_21  and  O_22 
REMARK    5  A    between atoms: C_24  and  C_23 
ROOT
HETATM    1  C   UNK N   1      21.272  16.366   5.369  0.00  0.00     0.091 A 
HETATM    2  C   UNK N   1      22.612  15.986   5.743  0.00  0.00     0.259 A 
HETATM    3  O   UNK N   1      23.617  16.340   5.149  0.00  0.00    -0.267 OA
HETATM    4  N   UNK N   1      22.601  15.177   6.828  0.00  0.00    -0.333 N 
HETATM    5  C   UNK N   1      21.230  14.936   7.264  0.00  0.00     0.149 A 
HETATM    6  C   UNK N   1      20.454  15.772   6.247  0.00  0.00     0.084 A 
ENDROOT
BRANCH   1   7
HETATM    7  C   UNK N   1      20.964  17.210   4.171  0.00  0.00     0.072 A 
HETATM    8  N   UNK N   1      21.145  18.477   4.230  0.00  0.00    -0.279 N 
HETATM    9  S   UNK N   1      20.863  19.500   2.791  0.00  0.00     0.264 S 
ATOM     10  HN  UNK N   1      21.451  18.905   5.103  1.00  0.00     0.179 HD
HETATM   11  O   UNK N   1      19.330  19.404   2.697  0.00  0.00    -0.200 OA
HETATM   12  O   UNK N   1      20.334  20.434   3.890  0.00  0.00    -0.200 OA
HETATM   13  C   UNK N   1      20.390  17.884   2.064  0.00  0.00     0.092 A 
HETATM   14  C   UNK N   1      19.991  17.717   0.724  0.00  0.00     0.026 A 
HETATM   15  C   UNK N   1      20.508  16.790   2.885  0.00  0.00     0.016 A 
HETATM   16  C   UNK N   1      19.668  16.436   0.258  0.00  0.00     0.002 A 
HETATM   17  C   UNK N   1      19.755  15.333   1.120  0.00  0.00     0.001 A 
HETATM   18  C   UNK N   1      20.182  15.508   2.441  0.00  0.00     0.015 A 
ENDBRANCH   1   7
BRANCH   6  19
HETATM   19  O   UNK N   1      19.110  15.836   6.213  0.00  0.00    -0.362 OA
HETATM   20  H   UNK N   1      18.622  16.125   6.959  0.00  0.00     0.217 HD
ENDBRANCH   6  19
BRANCH   4  21
HETATM   21  C   UNK N   1      23.758  14.542   7.463  0.00  0.00     0.165 C 
BRANCH  21  22
HETATM   22  C   UNK N   1      23.686  13.049   7.559  0.00  0.00    -0.040 A 
HETATM   23  C   UNK N   1      23.848  12.279   6.403  0.00  0.00     0.009 A 
HETATM   24  C   UNK N   1      23.851  10.883   6.485  0.00  0.00     0.001 A 
HETATM   25  C   UNK N   1      23.694  10.256   7.725  0.00  0.00     0.000 A 
HETATM   26  C   UNK N   1      23.522  11.023   8.881  0.00  0.00     0.001 A 
HETATM   27  C   UNK N   1      23.517  12.419   8.800  0.00  0.00     0.009 A 
ENDBRANCH  21  22
ENDBRANCH   4  21
BRANCH   5  28
HETATM   28  C   UNK N   1      20.970  15.386   8.716  0.00  0.00     0.007 C 
HETATM   29  C   UNK N   1      20.151  16.667   8.753  0.00  0.00     0.012 C 
HETATM   30  C   UNK N   1      20.189  14.335   9.488  0.00  0.00     0.012 C 
ENDBRANCH   5  28
TORSDOF 5
ENDMDL
MODEL 5
REMARK VINA RESULT:      -7.2     14.553     16.460
REMARK  5 active torsions:
REMARK  status: ('A' for Active; 'I' for Inactive)
REMARK    1  A    between atoms: C_13  and  C_9 
REMARK    2  A    between atoms: C_23  and  N_16 
REMARK    3  A    between atoms: C_17  and  C_18 
REMARK    4  A    between atoms: C_21  and  O_22 
REMARK    5  A    between atoms: C_24  and  C_23 
ROOT
HETATM    1  C   UNK N   1      23.026  15.958   5.688  0.00  0.00     0.091 A 
HETATM    2  C   UNK N   1      22.068  16.072   6.760  0.00  0.00     0.259 A 
HETATM    3  O   UNK N   1      21.706  17.130   7.246  0.00  0.00    -0.267 OA
HETATM    4  N   UNK N   1      21.639  14.852   7.158  0.00  0.00    -0.333 N 
HETATM    5  C   UNK N   1      22.298  13.807   6.384  0.00  0.00     0.149 A 
HETATM    6  C   UNK N   1      23.167  14.647   5.449  0.00  0.00     0.084 A 
ENDROOT
BRANCH   1   7
HETATM    7  C   UNK N   1      23.720  17.137   5.081  0.00  0.00     0.072 A 
HETATM    8  N   UNK N   1      24.994  17.238   5.178  0.00  0.00    -0.279 N 
HETATM    9  S   UNK N   1      25.859  18.591   4.394  0.00  0.00     0.264 S 
ATOM     10  HN  UNK N   1      25.518  16.541   5.707  1.00  0.00     0.179 HD
HETATM   11  O   UNK N   1      25.381  19.755   5.280  0.00  0.00    -0.200 OA
HETATM   12  O   UNK N   1      26.673  18.469   5.691  0.00  0.00    -0.200 OA
HETATM   13  C   UNK N   1      24.149  19.062   3.925  0.00  0.00     0.092 A 
HETATM   14  C   UNK N   1      23.837  20.183   3.134  0.00  0.00     0.026 A 
HETATM   15  C   UNK N   1      23.151  18.212   4.333  0.00  0.00     0.016 A 
HETATM   16  C   UNK N   1      22.499  20.447   2.813  0.00  0.00     0.002 A 
HETATM   17  C   UNK N   1      21.486  19.592   3.270  0.00  0.00     0.001 A 
HETATM   18  C   UNK N   1      21.812  18.463   4.031  0.00  0.00     0.015 A 
ENDBRANCH   1   7
BRANCH   6  19
HETATM   19  O   UNK N   1      24.014  14.116   4.549  0.00  0.00    -0.362 OA
HETATM   20  H   UNK N   1      23.694  13.668   3.791  0.00  0.00     0.217 HD
ENDBRANCH   6  19
BRANCH   4  21
HETATM   21  C   UNK N   1      20.714  14.561   8.256  0.00  0.00     0.165 C 
BRANCH  21  22
HETATM   22  C   UNK N   1      21.292  13.741   9.369  0.00  0.00    -0.040 A 
HETATM   23  C   UNK N   1      20.433  13.135  10.291  0.00  0.00     0.009 A 
HETATM   24  C   UNK N   1      20.951  12.311  11.295  0.00  0.00     0.001 A 
HETATM   25  C   UNK N   1      22.329  12.091  11.376  0.00  0.00     0.000 A 
HETATM   26  C   UNK N   1      23.192  12.703  10.461  0.00  0.00     0.001 A 
HETATM   27  C   UNK N   1      22.675  13.529   9.457  0.00  0.00     0.009 A 
ENDBRANCH  21  22
ENDBRANCH   4  21
BRANCH   5  28
HETATM   28  C   UNK N   1      21.307  12.909   5.615  0.00  0.00     0.007 C 
HETATM   29  C   UNK N   1      21.035  11.620   6.374  0.00  0.00     0.012 C 
HETATM   30  C   UNK N   1      19.968  13.604   5.422  0.00  0.00     0.012 C 
ENDBRANCH   5  28
TORSDOF 5
ENDMDL
MODEL 6
REMARK VINA RESULT:      -7.1     19.483     21.779
REMARK  5 active torsions:
REMARK  status: ('A' for Active; 'I' for Inactive)
REMARK    1  A    between atoms: C_13  and  C_9 
REMARK    2  A    between atoms: C_23  and  N_16 
REMARK    3  A    between atoms: C_17  and  C_18 
REMARK    4  A    between atoms: C_21  and  O_22 
REMARK    5  A    between atoms: C_24  and  C_23 
ROOT
HETATM    1  C   UNK N   1      35.421  12.566  11.017  0.00  0.00     0.091 A 
HETATM    2  C   UNK N   1      36.187  12.957  12.175  0.00  0.00     0.259 A 
HETATM    3  O   UNK N   1      36.445  14.111  12.469  0.00  0.00    -0.267 OA
HETATM    4  N   UNK N   1      36.586  11.872  12.879  0.00  0.00    -0.333 N 
HETATM    5  C   UNK N   1      36.127  10.650  12.229  0.00  0.00     0.149 A 
HETATM    6  C   UNK N   1      35.368  11.228  11.035  0.00  0.00     0.084 A 
ENDROOT
BRANCH   1   7
HETATM    7  C   UNK N   1      34.895  13.546  10.015  0.00  0.00     0.072 A 
HETATM    8  N   UNK N   1      33.893  14.284  10.321  0.00  0.00    -0.279 N 
HETATM    9  S   UNK N   1      33.292  15.518   9.177  0.00  0.00     0.264 S 
ATOM     10  HN  UNK N   1      33.435  14.166  11.225  1.00  0.00     0.179 HD
HETATM   11  O   UNK N   1      32.691  14.603   8.096  0.00  0.00    -0.200 OA
HETATM   12  O   UNK N   1      31.960  15.027   9.762  0.00  0.00    -0.200 OA
HETATM   13  C   UNK N   1      34.636  14.825   8.138  0.00  0.00     0.092 A 
HETATM   14  C   UNK N   1      34.958  15.305   6.855  0.00  0.00     0.026 A 
HETATM   15  C   UNK N   1      35.389  13.827   8.705  0.00  0.00     0.016 A 
HETATM   16  C   UNK N   1      36.017  14.721   6.148  0.00  0.00     0.002 A 
HETATM   17  C   UNK N   1      36.753  13.674   6.724  0.00  0.00     0.001 A 
HETATM   18  C   UNK N   1      36.442  13.226   8.013  0.00  0.00     0.015 A 
ENDBRANCH   1   7
BRANCH   6  19
HETATM   19  O   UNK N   1      34.783  10.467  10.092  0.00  0.00    -0.362 OA
HETATM   20  H   UNK N   1      33.913  10.139  10.209  0.00  0.00     0.217 HD
ENDBRANCH   6  19
BRANCH   4  21
HETATM   21  C   UNK N   1      37.428  11.864  14.078  0.00  0.00     0.165 C 
BRANCH  21  22
HETATM   22  C   UNK N   1      36.682  11.939  15.375  0.00  0.00    -0.040 A 
HETATM   23  C   UNK N   1      36.040  13.129  15.729  0.00  0.00     0.009 A 
HETATM   24  C   UNK N   1      35.284  13.195  16.903  0.00  0.00     0.001 A 
HETATM   25  C   UNK N   1      35.167  12.069  17.723  0.00  0.00     0.000 A 
HETATM   26  C   UNK N   1      35.816  10.879  17.376  0.00  0.00     0.001 A 
HETATM   27  C   UNK N   1      36.574  10.812  16.204  0.00  0.00     0.009 A 
ENDBRANCH  21  22
ENDBRANCH   4  21
BRANCH   5  28
HETATM   28  C   UNK N   1      35.225   9.786  13.135  0.00  0.00     0.007 C 
HETATM   29  C   UNK N   1      33.883  10.460  13.375  0.00  0.00     0.012 C 
HETATM   30  C   UNK N   1      34.939   8.435  12.502  0.00  0.00     0.012 C 
ENDBRANCH   5  28
TORSDOF 5
ENDMDL
MODEL 7
REMARK VINA RESULT:      -7.1     14.528     17.110
REMARK  5 active torsions:
REMARK  status: ('A' for Active; 'I' for Inactive)
REMARK    1  A    between atoms: C_13  and  C_9 
REMARK    2  A    between atoms: C_23  and  N_16 
REMARK    3  A    between atoms: C_17  and  C_18 
REMARK    4  A    between atoms: C_21  and  O_22 
REMARK    5  A    between atoms: C_24  and  C_23 
ROOT
HETATM    1  C   UNK N   1      32.538  16.215   7.691  0.00  0.00     0.091 A 
HETATM    2  C   UNK N   1      32.800  14.866   8.127  0.00  0.00     0.259 A 
HETATM    3  O   UNK N   1      31.985  14.157   8.693  0.00  0.00    -0.267 OA
HETATM    4  N   UNK N   1      34.070  14.500   7.834  0.00  0.00    -0.333 N 
HETATM    5  C   UNK N   1      34.774  15.599   7.183  0.00  0.00     0.149 A 
HETATM    6  C   UNK N   1      33.673  16.657   7.132  0.00  0.00     0.084 A 
ENDROOT
BRANCH   1   7
HETATM    7  C   UNK N   1      31.237  16.915   7.930  0.00  0.00     0.072 A 
HETATM    8  N   UNK N   1      30.865  17.162   9.132  0.00  0.00    -0.279 N 
HETATM    9  S   UNK N   1      29.356  18.067   9.446  0.00  0.00     0.264 S 
ATOM     10  HN  UNK N   1      31.435  16.840   9.914  1.00  0.00     0.179 HD
HETATM   11  O   UNK N   1      28.323  17.014   9.008  0.00  0.00    -0.200 OA
HETATM   12  O   UNK N   1      29.304  17.052  10.598  0.00  0.00    -0.200 OA
HETATM   13  C   UNK N   1      29.261  18.022   7.615  0.00  0.00     0.092 A 
HETATM   14  C   UNK N   1      28.231  18.627   6.871  0.00  0.00     0.026 A 
HETATM   15  C   UNK N   1      30.306  17.411   6.967  0.00  0.00     0.016 A 
HETATM   16  C   UNK N   1      28.259  18.554   5.472  0.00  0.00     0.002 A 
HETATM   17  C   UNK N   1      29.312  17.891   4.825  0.00  0.00     0.001 A 
HETATM   18  C   UNK N   1      30.347  17.320   5.575  0.00  0.00     0.015 A 
ENDBRANCH   1   7
BRANCH   6  19
HETATM   19  O   UNK N   1      33.858  17.896   6.643  0.00  0.00    -0.362 OA
HETATM   20  H   UNK N   1      34.566  18.083   6.058  0.00  0.00     0.217 HD
ENDBRANCH   6  19
BRANCH   4  21
HETATM   21  C   UNK N   1      34.719  13.232   8.172  0.00  0.00     0.165 C 
BRANCH  21  22
HETATM   22  C   UNK N   1      35.487  13.238   9.458  0.00  0.00    -0.040 A 
HETATM   23  C   UNK N   1      36.882  13.331   9.423  0.00  0.00     0.009 A 
HETATM   24  C   UNK N   1      37.610  13.406  10.615  0.00  0.00     0.001 A 
HETATM   25  C   UNK N   1      36.942  13.390  11.843  0.00  0.00     0.000 A 
HETATM   26  C   UNK N   1      35.548  13.287  11.881  0.00  0.00     0.001 A 
HETATM   27  C   UNK N   1      34.819  13.210  10.690  0.00  0.00     0.009 A 
ENDBRANCH  21  22
ENDBRANCH   4  21
BRANCH   5  28
HETATM   28  C   UNK N   1      35.302  15.233   5.781  0.00  0.00     0.007 C 
HETATM   29  C   UNK N   1      36.616  14.472   5.873  0.00  0.00     0.012 C 
HETATM   30  C   UNK N   1      34.322  14.339   5.038  0.00  0.00     0.012 C 
ENDBRANCH   5  28
TORSDOF 5
ENDMDL
MODEL 8
REMARK VINA RESULT:      -7.1     11.312     13.536
REMARK  5 active torsions:
REMARK  status: ('A' for Active; 'I' for Inactive)
REMARK    1  A    between atoms: C_13  and  C_9 
REMARK    2  A    between atoms: C_23  and  N_16 
REMARK    3  A    between atoms: C_17  and  C_18 
REMARK    4  A    between atoms: C_21  and  O_22 
REMARK    5  A    between atoms: C_24  and  C_23 
ROOT
HETATM    1  C   UNK N   1      28.152  17.749   5.550  0.00  0.00     0.091 A 
HETATM    2  C   UNK N   1      26.988  16.902   5.637  0.00  0.00     0.259 A 
HETATM    3  O   UNK N   1      26.887  15.951   6.394  0.00  0.00    -0.267 OA
HETATM    4  N   UNK N   1      26.035  17.297   4.761  0.00  0.00    -0.333 N 
HETATM    5  C   UNK N   1      26.499  18.447   3.994  0.00  0.00     0.149 A 
HETATM    6  C   UNK N   1      27.883  18.660   4.605  0.00  0.00     0.084 A 
ENDROOT
BRANCH   1   7
HETATM    7  C   UNK N   1      29.392  17.523   6.356  0.00  0.00     0.072 A 
HETATM    8  N   UNK N   1      29.301  17.378   7.626  0.00  0.00    -0.279 N 
HETATM    9  S   UNK N   1      30.754  17.026   8.606  0.00  0.00     0.264 S 
ATOM     10  HN  UNK N   1      28.392  17.464   8.081  1.00  0.00     0.179 HD
HETATM   11  O   UNK N   1      31.479  18.379   8.494  0.00  0.00    -0.200 OA
HETATM   12  O   UNK N   1      30.006  17.963   9.566  0.00  0.00    -0.200 OA
HETATM   13  C   UNK N   1      31.565  17.158   6.966  0.00  0.00     0.092 A 
HETATM   14  C   UNK N   1      32.943  16.959   6.757  0.00  0.00     0.026 A 
HETATM   15  C   UNK N   1      30.738  17.400   5.897  0.00  0.00     0.016 A 
HETATM   16  C   UNK N   1      33.464  17.062   5.462  0.00  0.00     0.002 A 
HETATM   17  C   UNK N   1      32.614  17.350   4.384  0.00  0.00     0.001 A 
HETATM   18  C   UNK N   1      31.241  17.516   4.600  0.00  0.00     0.015 A 
ENDBRANCH   1   7
BRANCH   6  19
HETATM   19  O   UNK N   1      28.740  19.609   4.185  0.00  0.00    -0.362 OA
HETATM   20  H   UNK N   1      28.977  19.679   3.281  0.00  0.00     0.217 HD
ENDBRANCH   6  19
BRANCH   4  21
HETATM   21  C   UNK N   1      24.744  16.649   4.517  0.00  0.00     0.165 C 
BRANCH  21  22
HETATM   22  C   UNK N   1      24.808  15.402   3.690  0.00  0.00    -0.040 A 
HETATM   23  C   UNK N   1      24.214  14.230   4.168  0.00  0.00     0.009 A 
HETATM   24  C   UNK N   1      24.206  13.076   3.380  0.00  0.00     0.001 A 
HETATM   25  C   UNK N   1      24.790  13.094   2.109  0.00  0.00     0.000 A 
HETATM   26  C   UNK N   1      25.392  14.262   1.632  0.00  0.00     0.001 A 
HETATM   27  C   UNK N   1      25.403  15.417   2.420  0.00  0.00     0.009 A 
ENDBRANCH  21  22
ENDBRANCH   4  21
BRANCH   5  28
HETATM   28  C   UNK N   1      25.590  19.684   4.153  0.00  0.00     0.007 C 
HETATM   29  C   UNK N   1      26.061  20.566   5.299  0.00  0.00     0.012 C 
HETATM   30  C   UNK N   1      25.602  20.541   2.897  0.00  0.00     0.012 C 
ENDBRANCH   5  28
TORSDOF 5
ENDMDL
MODEL 9
REMARK VINA RESULT:      -7.1     20.062     22.477
REMARK  5 active torsions:
REMARK  status: ('A' for Active; 'I' for Inactive)
REMARK    1  A    between atoms: C_13  and  C_9 
REMARK    2  A    between atoms: C_23  and  N_16 
REMARK    3  A    between atoms: C_17  and  C_18 
REMARK    4  A    between atoms: C_21  and  O_22 
REMARK    5  A    between atoms: C_24  and  C_23 
ROOT
HETATM    1  C   UNK N   1      35.513  13.067  11.852  0.00  0.00     0.091 A 
HETATM    2  C   UNK N   1      34.744  11.973  12.392  0.00  0.00     0.259 A 
HETATM    3  O   UNK N   1      34.275  11.068  11.723  0.00  0.00    -0.267 OA
HETATM    4  N   UNK N   1      34.605  12.095  13.733  0.00  0.00    -0.333 N 
HETATM    5  C   UNK N   1      35.267  13.308  14.201  0.00  0.00     0.149 A 
HETATM    6  C   UNK N   1      35.834  13.851  12.890  0.00  0.00     0.084 A 
ENDROOT
BRANCH   1   7
HETATM    7  C   UNK N   1      35.783  13.234  10.389  0.00  0.00     0.072 A 
HETATM    8  N   UNK N   1      36.477  12.352   9.771  0.00  0.00    -0.279 N 
HETATM    9  S   UNK N   1      36.748  12.483   8.009  0.00  0.00     0.264 S 
ATOM     10  HN  UNK N   1      36.878  11.570  10.288  1.00  0.00     0.179 HD
HETATM   11  O   UNK N   1      37.686  13.702   7.977  0.00  0.00    -0.200 OA
HETATM   12  O   UNK N   1      38.117  11.946   8.450  0.00  0.00    -0.200 OA
HETATM   13  C   UNK N   1      35.772  14.019   8.241  0.00  0.00     0.092 A 
HETATM   14  C   UNK N   1      35.416  14.885   7.191  0.00  0.00     0.026 A 
HETATM   15  C   UNK N   1      35.328  14.269   9.516  0.00  0.00     0.016 A 
HETATM   16  C   UNK N   1      34.650  16.024   7.469  0.00  0.00     0.002 A 
HETATM   17  C   UNK N   1      34.237  16.289   8.783  0.00  0.00     0.001 A 
HETATM   18  C   UNK N   1      34.572  15.404   9.814  0.00  0.00     0.015 A 
ENDBRANCH   1   7
BRANCH   6  19
HETATM   19  O   UNK N   1      36.511  15.009  12.800  0.00  0.00    -0.362 OA
HETATM   20  H   UNK N   1      37.385  15.084  13.129  0.00  0.00     0.217 HD
ENDBRANCH   6  19
BRANCH   4  21
HETATM   21  C   UNK N   1      33.843  11.215  14.621  0.00  0.00     0.165 C 
BRANCH  21  22
HETATM   22  C   UNK N   1      34.643  10.132  15.277  0.00  0.00    -0.040 A 
HETATM   23  C   UNK N   1      35.313   9.196  14.482  0.00  0.00     0.009 A 
HETATM   24  C   UNK N   1      36.118   8.220  15.076  0.00  0.00     0.001 A 
HETATM   25  C   UNK N   1      36.258   8.181  16.466  0.00  0.00     0.000 A 
HETATM   26  C   UNK N   1      35.582   9.109  17.265  0.00  0.00     0.001 A 
HETATM   27  C   UNK N   1      34.774  10.085  16.673  0.00  0.00     0.009 A 
ENDBRANCH  21  22
ENDBRANCH   4  21
BRANCH   5  28
HETATM   28  C   UNK N   1      36.366  13.031  15.247  0.00  0.00     0.007 C 
HETATM   29  C   UNK N   1      37.494  12.204  14.649  0.00  0.00     0.012 C 
HETATM   30  C   UNK N   1      36.984  14.323  15.755  0.00  0.00     0.012 C 
ENDBRANCH   5  28
TORSDOF 5
ENDMDL
