MODEL 1
REMARK VINA RESULT:      -8.0      0.000      0.000
REMARK  7 active torsions:
REMARK  status: ('A' for Active; 'I' for Inactive)
REMARK    1  A    between atoms: C_1  and  O_12 
REMARK    2  A    between atoms: C_4  and  C_9 
REMARK    3  A    between atoms: C_9  and  C_10 
REMARK    4  A    between atoms: C_9  and  C_14 
REMARK    5  A    between atoms: C_14  and  C_15 
REMARK    6  A    between atoms: C_17  and  N_27 
REMARK    7  A    between atoms: C_20  and  O_21 
REMARK       I    between atoms: C_23  and  N_26 
ROOT
HETATM    1  C   UNK N   1      20.197  16.041   7.662  0.00  0.00     0.075 C 
ENDROOT
BRANCH   1   2
HETATM    2  C   UNK N   1      20.873  14.907   8.442  0.00  0.00    -0.045 A 
HETATM    3  C   UNK N   1      22.139  14.409   8.100  0.00  0.00     0.011 A 
HETATM    4  C   UNK N   1      22.716  13.355   8.805  0.00  0.00     0.040 A 
HETATM    5  C   UNK N   1      22.039  12.756   9.867  0.00  0.00     0.106 A 
HETATM    6  C   UNK N   1      20.771  13.262  10.243  0.00  0.00     0.150 A 
HETATM    7  C   UNK N   1      20.211  14.336   9.541  0.00  0.00     0.053 A 
HETATM    8  F   UNK N   1      20.067  12.721  11.268  0.00  0.00    -0.203 F 
BRANCH   5   9
HETATM    9  O   UNK N   1      22.633  11.703  10.483  0.00  0.00    -0.353 OA
HETATM   10  C   UNK N   1      23.259  11.758  11.706  0.00  0.00     0.210 C 
ENDBRANCH   5   9
ENDBRANCH   1   2
BRANCH   1  11
HETATM   11  C   UNK N   1      19.357  17.007   8.511  0.00  0.00     0.051 A 
HETATM   12  N   UNK N   1      19.871  18.056   9.178  0.00  0.00    -0.194 N 
HETATM   13  C   UNK N   1      18.825  18.598   9.823  0.00  0.00     0.675 A 
ATOM     14  HN  UNK N   1      20.842  18.371   9.191  1.00  0.00     0.184 HD
HETATM   15  N   UNK N   1      17.670  17.953   9.596  0.00  0.00    -0.200 N 
HETATM   16  N   UNK N   1      18.931  19.717  10.672  0.00  0.00    -0.234 N 
HETATM   17  C   UNK N   1      17.994  16.945   8.766  0.00  0.00     0.132 A 
HETATM   18  H   UNK N   1      16.781  18.168   9.959  0.00  0.00     0.183 HD
HETATM   19  H   UNK N   1      19.800  19.955  11.069  0.00  0.00     0.174 HD
HETATM   20  H   UNK N   1      18.135  20.262  10.869  0.00  0.00     0.174 HD
ENDBRANCH   1  11
BRANCH   1  21
HETATM   21  C   UNK N   1      21.308  16.803   6.891  0.00  0.00     0.057 C 
BRANCH  21  22
HETATM   22  C   UNK N   1      21.071  17.045   5.422  0.00  0.00    -0.021 A 
HETATM   23  C   UNK N   1      21.092  18.364   4.970  0.00  0.00     0.046 A 
HETATM   24  C   UNK N   1      20.863  18.691   3.635  0.00  0.00     0.103 A 
HETATM   25  C   UNK N   1      20.619  17.666   2.717  0.00  0.00     0.039 A 
HETATM   26  C   UNK N   1      20.624  16.335   3.135  0.00  0.00     0.040 A 
HETATM   27  C   UNK N   1      20.856  15.996   4.476  0.00  0.00     0.074 A 
BRANCH  24  28
HETATM   28  N   UNK N   1      20.868  20.054   3.232  0.00  0.00    -0.116 N 
HETATM   29  O   UNK N   1      21.552  20.429   2.171  0.00  0.00    -0.532 OA
HETATM   30  O   UNK N   1      20.259  20.871   3.856  0.00  0.00    -0.532 OA
ENDBRANCH  24  28
BRANCH  27  31
HETATM   31  O   UNK N   1      20.865  14.671   4.784  0.00  0.00    -0.355 OA
HETATM   32  C   UNK N   1      21.837  13.763   4.439  0.00  0.00     0.210 C 
ENDBRANCH  27  31
ENDBRANCH  21  22
ENDBRANCH   1  21
TORSDOF 7
ENDMDL
MODEL 2
REMARK VINA RESULT:      -7.8     15.982     17.556
REMARK  7 active torsions:
REMARK  status: ('A' for Active; 'I' for Inactive)
REMARK    1  A    between atoms: C_1  and  O_12 
REMARK    2  A    between atoms: C_4  and  C_9 
REMARK    3  A    between atoms: C_9  and  C_10 
REMARK    4  A    between atoms: C_9  and  C_14 
REMARK    5  A    between atoms: C_14  and  C_15 
REMARK    6  A    between atoms: C_17  and  N_27 
REMARK    7  A    between atoms: C_20  and  O_21 
REMARK       I    between atoms: C_23  and  N_26 
ROOT
HETATM    1  C   UNK N   1      27.001  23.215  -5.821  0.00  0.00     0.075 C 
ENDROOT
BRANCH   1   2
HETATM    2  C   UNK N   1      26.544  24.631  -5.449  0.00  0.00    -0.045 A 
HETATM    3  C   UNK N   1      26.134  25.566  -6.411  0.00  0.00     0.011 A 
HETATM    4  C   UNK N   1      25.756  26.856  -6.049  0.00  0.00     0.040 A 
HETATM    5  C   UNK N   1      25.788  27.258  -4.714  0.00  0.00     0.106 A 
HETATM    6  C   UNK N   1      26.175  26.320  -3.726  0.00  0.00     0.150 A 
HETATM    7  C   UNK N   1      26.532  25.020  -4.099  0.00  0.00     0.053 A 
HETATM    8  F   UNK N   1      26.224  26.653  -2.413  0.00  0.00    -0.203 F 
BRANCH   5   9
HETATM    9  O   UNK N   1      25.454  28.542  -4.431  0.00  0.00    -0.353 OA
HETATM   10  C   UNK N   1      26.341  29.517  -4.038  0.00  0.00     0.210 C 
ENDBRANCH   5   9
ENDBRANCH   1   2
BRANCH   1  11
HETATM   11  C   UNK N   1      26.131  22.502  -6.867  0.00  0.00     0.051 A 
HETATM   12  N   UNK N   1      26.584  22.105  -8.070  0.00  0.00    -0.194 N 
HETATM   13  C   UNK N   1      25.510  21.583  -8.685  0.00  0.00     0.675 A 
ATOM     14  HN  UNK N   1      27.534  22.183  -8.435  1.00  0.00     0.184 HD
HETATM   15  N   UNK N   1      24.398  21.620  -7.934  0.00  0.00    -0.200 N 
HETATM   16  N   UNK N   1      25.540  21.068  -9.996  0.00  0.00    -0.234 N 
HETATM   17  C   UNK N   1      24.779  22.198  -6.780  0.00  0.00     0.132 A 
HETATM   18  H   UNK N   1      23.500  21.297  -8.174  0.00  0.00     0.183 HD
HETATM   19  H   UNK N   1      26.250  21.344 -10.619  0.00  0.00     0.174 HD
HETATM   20  H   UNK N   1      24.850  20.431 -10.290  0.00  0.00     0.174 HD
ENDBRANCH   1  11
BRANCH   1  21
HETATM   21  C   UNK N   1      28.474  23.310  -6.298  0.00  0.00     0.057 C 
BRANCH  21  22
HETATM   22  C   UNK N   1      29.446  22.322  -5.704  0.00  0.00    -0.021 A 
HETATM   23  C   UNK N   1      29.966  22.603  -4.441  0.00  0.00     0.046 A 
HETATM   24  C   UNK N   1      30.886  21.763  -3.818  0.00  0.00     0.103 A 
HETATM   25  C   UNK N   1      31.291  20.595  -4.470  0.00  0.00     0.039 A 
HETATM   26  C   UNK N   1      30.763  20.273  -5.721  0.00  0.00     0.040 A 
HETATM   27  C   UNK N   1      29.834  21.111  -6.355  0.00  0.00     0.074 A 
BRANCH  24  28
HETATM   28  N   UNK N   1      31.406  22.110  -2.541  0.00  0.00    -0.116 N 
HETATM   29  O   UNK N   1      32.511  21.546  -2.100  0.00  0.00    -0.532 OA
HETATM   30  O   UNK N   1      30.842  22.909  -1.855  0.00  0.00    -0.532 OA
ENDBRANCH  24  28
BRANCH  27  31
HETATM   31  O   UNK N   1      29.357  20.700  -7.561  0.00  0.00    -0.355 OA
HETATM   32  C   UNK N   1      28.962  19.426  -7.888  0.00  0.00     0.210 C 
ENDBRANCH  27  31
ENDBRANCH  21  22
ENDBRANCH   1  21
TORSDOF 7
ENDMDL
MODEL 3
REMARK VINA RESULT:      -7.7      2.481      6.917
REMARK  7 active torsions:
REMARK  status: ('A' for Active; 'I' for Inactive)
REMARK    1  A    between atoms: C_1  and  O_12 
REMARK    2  A    between atoms: C_4  and  C_9 
REMARK    3  A    between atoms: C_9  and  C_10 
REMARK    4  A    between atoms: C_9  and  C_14 
REMARK    5  A    between atoms: C_14  and  C_15 
REMARK    6  A    between atoms: C_17  and  N_27 
REMARK    7  A    between atoms: C_20  and  O_21 
REMARK       I    between atoms: C_23  and  N_26 
ROOT
HETATM    1  C   UNK N   1      20.569  16.598   7.878  0.00  0.00     0.075 C 
ENDROOT
BRANCH   1   2
HETATM    2  C   UNK N   1      20.701  17.092   6.433  0.00  0.00    -0.045 A 
HETATM    3  C   UNK N   1      21.363  18.284   6.102  0.00  0.00     0.011 A 
HETATM    4  C   UNK N   1      21.440  18.726   4.784  0.00  0.00     0.040 A 
HETATM    5  C   UNK N   1      20.846  17.996   3.754  0.00  0.00     0.106 A 
HETATM    6  C   UNK N   1      20.195  16.777   4.065  0.00  0.00     0.150 A 
HETATM    7  C   UNK N   1      20.143  16.332   5.391  0.00  0.00     0.053 A 
HETATM    8  F   UNK N   1      19.601  16.026   3.106  0.00  0.00    -0.203 F 
BRANCH   5   9
HETATM    9  O   UNK N   1      20.914  18.504   2.498  0.00  0.00    -0.353 OA
HETATM   10  C   UNK N   1      21.006  19.843   2.195  0.00  0.00     0.210 C 
ENDBRANCH   5   9
ENDBRANCH   1   2
BRANCH   1  11
HETATM   11  C   UNK N   1      19.468  17.281   8.703  0.00  0.00     0.051 A 
HETATM   12  N   UNK N   1      19.671  18.375   9.460  0.00  0.00    -0.194 N 
HETATM   13  C   UNK N   1      18.486  18.612  10.045  0.00  0.00     0.675 A 
ATOM     14  HN  UNK N   1      20.535  18.907   9.566  1.00  0.00     0.184 HD
HETATM   15  N   UNK N   1      17.536  17.730   9.696  0.00  0.00    -0.200 N 
HETATM   16  N   UNK N   1      18.265  19.665  10.954  0.00  0.00    -0.234 N 
HETATM   17  C   UNK N   1      18.145  16.884   8.845  0.00  0.00     0.132 A 
HETATM   18  H   UNK N   1      16.599  17.706   9.996  0.00  0.00     0.183 HD
HETATM   19  H   UNK N   1      19.023  20.074  11.431  0.00  0.00     0.174 HD
HETATM   20  H   UNK N   1      17.350  19.993  11.113  0.00  0.00     0.174 HD
ENDBRANCH   1  11
BRANCH   1  21
HETATM   21  C   UNK N   1      20.353  15.062   7.830  0.00  0.00     0.057 C 
BRANCH  21  22
HETATM   22  C   UNK N   1      21.422  14.205   8.458  0.00  0.00    -0.021 A 
HETATM   23  C   UNK N   1      21.130  13.596   9.678  0.00  0.00     0.046 A 
HETATM   24  C   UNK N   1      22.060  12.803  10.348  0.00  0.00     0.103 A 
HETATM   25  C   UNK N   1      23.318  12.600   9.775  0.00  0.00     0.039 A 
HETATM   26  C   UNK N   1      23.626  13.172   8.540  0.00  0.00     0.040 A 
HETATM   27  C   UNK N   1      22.696  13.969   7.857  0.00  0.00     0.074 A 
BRANCH  24  28
HETATM   28  N   UNK N   1      21.722  12.228  11.603  0.00  0.00    -0.116 N 
HETATM   29  O   UNK N   1      22.665  11.931  12.472  0.00  0.00    -0.532 OA
HETATM   30  O   UNK N   1      20.581  12.001  11.876  0.00  0.00    -0.532 OA
ENDBRANCH  24  28
BRANCH  27  31
HETATM   31  O   UNK N   1      23.078  14.462   6.648  0.00  0.00    -0.355 OA
HETATM   32  C   UNK N   1      24.037  15.422   6.429  0.00  0.00     0.210 C 
ENDBRANCH  27  31
ENDBRANCH  21  22
ENDBRANCH   1  21
TORSDOF 7
ENDMDL
MODEL 4
REMARK VINA RESULT:      -7.6     16.377     18.031
REMARK  7 active torsions:
REMARK  status: ('A' for Active; 'I' for Inactive)
REMARK    1  A    between atoms: C_1  and  O_12 
REMARK    2  A    between atoms: C_4  and  C_9 
REMARK    3  A    between atoms: C_9  and  C_10 
REMARK    4  A    between atoms: C_9  and  C_14 
REMARK    5  A    between atoms: C_14  and  C_15 
REMARK    6  A    between atoms: C_17  and  N_27 
REMARK    7  A    between atoms: C_20  and  O_21 
REMARK       I    between atoms: C_23  and  N_26 
ROOT
HETATM    1  C   UNK N   1      27.139  24.538  -5.494  0.00  0.00     0.075 C 
ENDROOT
BRANCH   1   2
HETATM    2  C   UNK N   1      26.908  26.006  -5.118  0.00  0.00    -0.045 A 
HETATM    3  C   UNK N   1      26.226  26.385  -3.952  0.00  0.00     0.011 A 
HETATM    4  C   UNK N   1      26.000  27.726  -3.652  0.00  0.00     0.040 A 
HETATM    5  C   UNK N   1      26.438  28.732  -4.514  0.00  0.00     0.106 A 
HETATM    6  C   UNK N   1      27.150  28.368  -5.683  0.00  0.00     0.150 A 
HETATM    7  C   UNK N   1      27.390  27.018  -5.964  0.00  0.00     0.053 A 
HETATM    8  F   UNK N   1      27.600  29.301  -6.557  0.00  0.00    -0.203 F 
BRANCH   5   9
HETATM    9  O   UNK N   1      26.145  30.016  -4.189  0.00  0.00    -0.353 OA
HETATM   10  C   UNK N   1      26.803  30.755  -3.234  0.00  0.00     0.210 C 
ENDBRANCH   5   9
ENDBRANCH   1   2
BRANCH   1  11
HETATM   11  C   UNK N   1      26.154  23.963  -6.522  0.00  0.00     0.051 A 
HETATM   12  N   UNK N   1      25.417  22.857  -6.314  0.00  0.00    -0.194 N 
HETATM   13  C   UNK N   1      24.741  22.674  -7.460  0.00  0.00     0.675 A 
ATOM     14  HN  UNK N   1      25.379  22.283  -5.471  1.00  0.00     0.184 HD
HETATM   15  N   UNK N   1      25.004  23.610  -8.386  0.00  0.00    -0.200 N 
HETATM   16  N   UNK N   1      23.862  21.595  -7.680  0.00  0.00    -0.234 N 
HETATM   17  C   UNK N   1      25.895  24.432  -7.803  0.00  0.00     0.132 A 
HETATM   18  H   UNK N   1      24.629  23.679  -9.293  0.00  0.00     0.183 HD
HETATM   19  H   UNK N   1      23.939  20.777  -7.138  0.00  0.00     0.174 HD
HETATM   20  H   UNK N   1      23.170  21.659  -8.377  0.00  0.00     0.174 HD
ENDBRANCH   1  11
BRANCH   1  21
HETATM   21  C   UNK N   1      28.602  24.409  -5.997  0.00  0.00     0.057 C 
BRANCH  21  22
HETATM   22  C   UNK N   1      29.370  23.191  -5.550  0.00  0.00    -0.021 A 
HETATM   23  C   UNK N   1      29.915  23.204  -4.267  0.00  0.00     0.046 A 
HETATM   24  C   UNK N   1      30.660  22.135  -3.771  0.00  0.00     0.103 A 
HETATM   25  C   UNK N   1      30.854  21.010  -4.577  0.00  0.00     0.039 A 
HETATM   26  C   UNK N   1      30.293  20.958  -5.853  0.00  0.00     0.040 A 
HETATM   27  C   UNK N   1      29.541  22.027  -6.360  0.00  0.00     0.074 A 
BRANCH  24  28
HETATM   28  N   UNK N   1      31.216  22.210  -2.465  0.00  0.00    -0.116 N 
HETATM   29  O   UNK N   1      30.637  22.945  -1.539  0.00  0.00    -0.532 OA
HETATM   30  O   UNK N   1      32.218  21.614  -2.199  0.00  0.00    -0.532 OA
ENDBRANCH  24  28
BRANCH  27  31
HETATM   31  O   UNK N   1      29.014  21.874  -7.605  0.00  0.00    -0.355 OA
HETATM   32  C   UNK N   1      28.021  20.995  -7.965  0.00  0.00     0.210 C 
ENDBRANCH  27  31
ENDBRANCH  21  22
ENDBRANCH   1  21
TORSDOF 7
ENDMDL
MODEL 5
REMARK VINA RESULT:      -7.4      8.663     10.464
REMARK  7 active torsions:
REMARK  status: ('A' for Active; 'I' for Inactive)
REMARK    1  A    between atoms: C_1  and  O_12 
REMARK    2  A    between atoms: C_4  and  C_9 
REMARK    3  A    between atoms: C_9  and  C_10 
REMARK    4  A    between atoms: C_9  and  C_14 
REMARK    5  A    between atoms: C_14  and  C_15 
REMARK    6  A    between atoms: C_17  and  N_27 
REMARK    7  A    between atoms: C_20  and  O_21 
REMARK       I    between atoms: C_23  and  N_26 
ROOT
HETATM    1  C   UNK N   1      28.507  17.936   4.966  0.00  0.00     0.075 C 
ENDROOT
BRANCH   1   2
HETATM    2  C   UNK N   1      27.635  17.146   3.983  0.00  0.00    -0.045 A 
HETATM    3  C   UNK N   1      26.246  17.325   3.898  0.00  0.00     0.011 A 
HETATM    4  C   UNK N   1      25.473  16.570   3.020  0.00  0.00     0.040 A 
HETATM    5  C   UNK N   1      26.061  15.602   2.206  0.00  0.00     0.106 A 
HETATM    6  C   UNK N   1      27.465  15.425   2.260  0.00  0.00     0.150 A 
HETATM    7  C   UNK N   1      28.235  16.204   3.132  0.00  0.00     0.053 A 
HETATM    8  F   UNK N   1      28.093  14.500   1.494  0.00  0.00    -0.203 F 
BRANCH   5   9
HETATM    9  O   UNK N   1      25.248  14.867   1.408  0.00  0.00    -0.353 OA
HETATM   10  C   UNK N   1      24.845  13.578   1.669  0.00  0.00     0.210 C 
ENDBRANCH   5   9
ENDBRANCH   1   2
BRANCH   1  11
HETATM   11  C   UNK N   1      27.856  19.201   5.546  0.00  0.00     0.051 A 
HETATM   12  N   UNK N   1      27.258  19.248   6.750  0.00  0.00    -0.194 N 
HETATM   13  C   UNK N   1      26.783  20.501   6.847  0.00  0.00     0.675 A 
ATOM     14  HN  UNK N   1      27.182  18.499   7.438  1.00  0.00     0.184 HD
HETATM   15  N   UNK N   1      27.053  21.256   5.771  0.00  0.00    -0.200 N 
HETATM   16  N   UNK N   1      26.054  20.971   7.957  0.00  0.00    -0.234 N 
HETATM   17  C   UNK N   1      27.734  20.444   4.941  0.00  0.00     0.132 A 
HETATM   18  H   UNK N   1      26.808  22.197   5.620  0.00  0.00     0.183 HD
HETATM   19  H   UNK N   1      25.600  20.335   8.556  0.00  0.00     0.174 HD
HETATM   20  H   UNK N   1      25.998  21.938   8.134  0.00  0.00     0.174 HD
ENDBRANCH   1  11
BRANCH   1  21
HETATM   21  C   UNK N   1      28.932  16.963   6.099  0.00  0.00     0.057 C 
BRANCH  21  22
HETATM   22  C   UNK N   1      30.269  17.219   6.747  0.00  0.00    -0.021 A 
HETATM   23  C   UNK N   1      31.414  16.880   6.026  0.00  0.00     0.046 A 
HETATM   24  C   UNK N   1      32.694  17.057   6.548  0.00  0.00     0.103 A 
HETATM   25  C   UNK N   1      32.838  17.605   7.826  0.00  0.00     0.039 A 
HETATM   26  C   UNK N   1      31.710  17.982   8.556  0.00  0.00     0.040 A 
HETATM   27  C   UNK N   1      30.418  17.810   8.038  0.00  0.00     0.074 A 
BRANCH  24  28
HETATM   28  N   UNK N   1      33.827  16.669   5.783  0.00  0.00    -0.116 N 
HETATM   29  O   UNK N   1      33.685  16.304   4.526  0.00  0.00    -0.532 OA
HETATM   30  O   UNK N   1      34.917  16.664   6.275  0.00  0.00    -0.532 OA
ENDBRANCH  24  28
BRANCH  27  31
HETATM   31  O   UNK N   1      29.383  18.231   8.815  0.00  0.00    -0.355 OA
HETATM   32  C   UNK N   1      28.692  17.473   9.728  0.00  0.00     0.210 C 
ENDBRANCH  27  31
ENDBRANCH  21  22
ENDBRANCH   1  21
TORSDOF 7
ENDMDL
MODEL 6
REMARK VINA RESULT:      -7.3     10.588     12.072
REMARK  7 active torsions:
REMARK  status: ('A' for Active; 'I' for Inactive)
REMARK    1  A    between atoms: C_1  and  O_12 
REMARK    2  A    between atoms: C_4  and  C_9 
REMARK    3  A    between atoms: C_9  and  C_10 
REMARK    4  A    between atoms: C_9  and  C_14 
REMARK    5  A    between atoms: C_14  and  C_15 
REMARK    6  A    between atoms: C_17  and  N_27 
REMARK    7  A    between atoms: C_20  and  O_21 
REMARK       I    between atoms: C_23  and  N_26 
ROOT
HETATM    1  C   UNK N   1      31.902  16.865   5.613  0.00  0.00     0.075 C 
ENDROOT
BRANCH   1   2
HETATM    2  C   UNK N   1      32.766  16.902   6.879  0.00  0.00    -0.045 A 
HETATM    3  C   UNK N   1      32.684  15.917   7.874  0.00  0.00     0.011 A 
HETATM    4  C   UNK N   1      33.457  15.992   9.030  0.00  0.00     0.040 A 
HETATM    5  C   UNK N   1      34.327  17.063   9.235  0.00  0.00     0.106 A 
HETATM    6  C   UNK N   1      34.442  18.054   8.229  0.00  0.00     0.150 A 
HETATM    7  C   UNK N   1      33.676  17.956   7.062  0.00  0.00     0.053 A 
HETATM    8  F   UNK N   1      35.271  19.116   8.372  0.00  0.00    -0.203 F 
BRANCH   5   9
HETATM    9  O   UNK N   1      35.016  17.104  10.403  0.00  0.00    -0.353 OA
HETATM   10  C   UNK N   1      35.338  16.006  11.165  0.00  0.00     0.210 C 
ENDBRANCH   5   9
ENDBRANCH   1   2
BRANCH   1  11
HETATM   11  C   UNK N   1      32.467  16.021   4.461  0.00  0.00     0.051 A 
HETATM   12  N   UNK N   1      32.531  14.677   4.481  0.00  0.00    -0.194 N 
HETATM   13  C   UNK N   1      33.129  14.345   3.325  0.00  0.00     0.675 A 
ATOM     14  HN  UNK N   1      32.200  14.048   5.214  1.00  0.00     0.184 HD
HETATM   15  N   UNK N   1      33.443  15.407   2.566  0.00  0.00    -0.200 N 
HETATM   16  N   UNK N   1      33.421  13.017   2.955  0.00  0.00    -0.234 N 
HETATM   17  C   UNK N   1      33.026  16.473   3.274  0.00  0.00     0.132 A 
HETATM   18  H   UNK N   1      33.881  15.407   1.685  0.00  0.00     0.183 HD
HETATM   19  H   UNK N   1      33.484  12.315   3.642  0.00  0.00     0.174 HD
HETATM   20  H   UNK N   1      33.561  12.792   2.007  0.00  0.00     0.174 HD
ENDBRANCH   1  11
BRANCH   1  21
HETATM   21  C   UNK N   1      30.491  16.366   6.025  0.00  0.00     0.057 C 
BRANCH  21  22
HETATM   22  C   UNK N   1      29.421  17.415   6.190  0.00  0.00    -0.021 A 
HETATM   23  C   UNK N   1      28.659  17.746   5.070  0.00  0.00     0.046 A 
HETATM   24  C   UNK N   1      27.662  18.718   5.116  0.00  0.00     0.103 A 
HETATM   25  C   UNK N   1      27.405  19.372   6.324  0.00  0.00     0.039 A 
HETATM   26  C   UNK N   1      28.131  19.038   7.468  0.00  0.00     0.040 A 
HETATM   27  C   UNK N   1      29.135  18.060   7.432  0.00  0.00     0.074 A 
BRANCH  24  28
HETATM   28  N   UNK N   1      26.933  19.037   3.938  0.00  0.00    -0.116 N 
HETATM   29  O   UNK N   1      27.048  20.228   3.390  0.00  0.00    -0.532 OA
HETATM   30  O   UNK N   1      26.205  18.230   3.441  0.00  0.00    -0.532 OA
ENDBRANCH  24  28
BRANCH  27  31
HETATM   31  O   UNK N   1      29.771  17.786   8.604  0.00  0.00    -0.355 OA
HETATM   32  C   UNK N   1      29.878  18.626   9.685  0.00  0.00     0.210 C 
ENDBRANCH  27  31
ENDBRANCH  21  22
ENDBRANCH   1  21
TORSDOF 7
ENDMDL
MODEL 7
REMARK VINA RESULT:      -7.3      3.466      5.376
REMARK  7 active torsions:
REMARK  status: ('A' for Active; 'I' for Inactive)
REMARK    1  A    between atoms: C_1  and  O_12 
REMARK    2  A    between atoms: C_4  and  C_9 
REMARK    3  A    between atoms: C_9  and  C_10 
REMARK    4  A    between atoms: C_9  and  C_14 
REMARK    5  A    between atoms: C_14  and  C_15 
REMARK    6  A    between atoms: C_17  and  N_27 
REMARK    7  A    between atoms: C_20  and  O_21 
REMARK       I    between atoms: C_23  and  N_26 
ROOT
HETATM    1  C   UNK N   1      22.255  16.687   4.652  0.00  0.00     0.075 C 
ENDROOT
BRANCH   1   2
HETATM    2  C   UNK N   1      21.809  15.799   5.820  0.00  0.00    -0.045 A 
HETATM    3  C   UNK N   1      21.810  14.399   5.742  0.00  0.00     0.011 A 
HETATM    4  C   UNK N   1      21.369  13.616   6.806  0.00  0.00     0.040 A 
HETATM    5  C   UNK N   1      20.900  14.209   7.978  0.00  0.00     0.106 A 
HETATM    6  C   UNK N   1      20.915  15.621   8.084  0.00  0.00     0.150 A 
HETATM    7  C   UNK N   1      21.382  16.397   7.016  0.00  0.00     0.053 A 
HETATM    8  F   UNK N   1      20.473  16.253   9.198  0.00  0.00    -0.203 F 
BRANCH   5   9
HETATM    9  O   UNK N   1      20.438  13.394   8.959  0.00  0.00    -0.353 OA
HETATM   10  C   UNK N   1      21.123  13.084  10.111  0.00  0.00     0.210 C 
ENDBRANCH   5   9
ENDBRANCH   1   2
BRANCH   1  11
HETATM   11  C   UNK N   1      21.182  16.952   3.586  0.00  0.00     0.051 A 
HETATM   12  N   UNK N   1      20.319  17.983   3.634  0.00  0.00    -0.194 N 
HETATM   13  C   UNK N   1      19.530  17.820   2.559  0.00  0.00     0.675 A 
ATOM     14  HN  UNK N   1      20.273  18.725   4.333  1.00  0.00     0.184 HD
HETATM   15  N   UNK N   1      19.849  16.743   1.825  0.00  0.00    -0.200 N 
HETATM   16  N   UNK N   1      18.458  18.679   2.245  0.00  0.00    -0.234 N 
HETATM   17  C   UNK N   1      20.895  16.187   2.464  0.00  0.00     0.132 A 
HETATM   18  H   UNK N   1      19.414  16.428   1.000  0.00  0.00     0.183 HD
HETATM   19  H   UNK N   1      18.052  19.239   2.946  0.00  0.00     0.174 HD
HETATM   20  H   UNK N   1      18.115  18.719   1.324  0.00  0.00     0.174 HD
ENDBRANCH   1  11
BRANCH   1  21
HETATM   21  C   UNK N   1      22.780  18.019   5.252  0.00  0.00     0.057 C 
BRANCH  21  22
HETATM   22  C   UNK N   1      23.811  18.767   4.447  0.00  0.00    -0.021 A 
HETATM   23  C   UNK N   1      25.143  18.372   4.572  0.00  0.00     0.046 A 
HETATM   24  C   UNK N   1      26.172  19.015   3.887  0.00  0.00     0.103 A 
HETATM   25  C   UNK N   1      25.860  20.079   3.036  0.00  0.00     0.039 A 
HETATM   26  C   UNK N   1      24.533  20.475   2.867  0.00  0.00     0.040 A 
HETATM   27  C   UNK N   1      23.491  19.832   3.551  0.00  0.00     0.074 A 
BRANCH  24  28
HETATM   28  N   UNK N   1      27.515  18.590   4.071  0.00  0.00    -0.116 N 
HETATM   29  O   UNK N   1      28.376  19.366   4.698  0.00  0.00    -0.532 OA
HETATM   30  O   UNK N   1      27.878  17.531   3.654  0.00  0.00    -0.532 OA
ENDBRANCH  24  28
BRANCH  27  31
HETATM   31  O   UNK N   1      22.228  20.273   3.303  0.00  0.00    -0.355 OA
HETATM   32  C   UNK N   1      21.739  20.699   2.092  0.00  0.00     0.210 C 
ENDBRANCH  27  31
ENDBRANCH  21  22
ENDBRANCH   1  21
TORSDOF 7
ENDMDL
MODEL 8
REMARK VINA RESULT:      -7.3      4.058      7.247
REMARK  7 active torsions:
REMARK  status: ('A' for Active; 'I' for Inactive)
REMARK    1  A    between atoms: C_1  and  O_12 
REMARK    2  A    between atoms: C_4  and  C_9 
REMARK    3  A    between atoms: C_9  and  C_10 
REMARK    4  A    between atoms: C_9  and  C_14 
REMARK    5  A    between atoms: C_14  and  C_15 
REMARK    6  A    between atoms: C_17  and  N_27 
REMARK    7  A    between atoms: C_20  and  O_21 
REMARK       I    between atoms: C_23  and  N_26 
ROOT
HETATM    1  C   UNK N   1      21.713  17.711   4.536  0.00  0.00     0.075 C 
ENDROOT
BRANCH   1   2
HETATM    2  C   UNK N   1      23.134  18.221   4.267  0.00  0.00    -0.045 A 
HETATM    3  C   UNK N   1      24.274  17.549   4.732  0.00  0.00     0.011 A 
HETATM    4  C   UNK N   1      25.553  18.052   4.502  0.00  0.00     0.040 A 
HETATM    5  C   UNK N   1      25.731  19.250   3.810  0.00  0.00     0.106 A 
HETATM    6  C   UNK N   1      24.593  19.928   3.311  0.00  0.00     0.150 A 
HETATM    7  C   UNK N   1      23.314  19.402   3.530  0.00  0.00     0.053 A 
HETATM    8  F   UNK N   1      24.705  21.095   2.632  0.00  0.00    -0.203 F 
BRANCH   5   9
HETATM    9  O   UNK N   1      26.998  19.711   3.661  0.00  0.00    -0.353 OA
HETATM   10  C   UNK N   1      27.874  19.955   4.693  0.00  0.00     0.210 C 
ENDBRANCH   5   9
ENDBRANCH   1   2
BRANCH   1  11
HETATM   11  C   UNK N   1      20.753  17.790   3.340  0.00  0.00     0.051 A 
HETATM   12  N   UNK N   1      20.896  17.061   2.218  0.00  0.00    -0.194 N 
HETATM   13  C   UNK N   1      19.895  17.463   1.418  0.00  0.00     0.675 A 
ATOM     14  HN  UNK N   1      21.608  16.358   2.019  1.00  0.00     0.184 HD
HETATM   15  N   UNK N   1      19.118  18.406   1.974  0.00  0.00    -0.200 N 
HETATM   16  N   UNK N   1      19.694  16.966   0.116  0.00  0.00    -0.234 N 
HETATM   17  C   UNK N   1      19.650  18.619   3.192  0.00  0.00     0.132 A 
HETATM   18  H   UNK N   1      18.331  18.846   1.579  0.00  0.00     0.183 HD
HETATM   19  H   UNK N   1      20.437  16.544  -0.373  0.00  0.00     0.174 HD
HETATM   20  H   UNK N   1      18.808  17.040  -0.307  0.00  0.00     0.174 HD
ENDBRANCH   1  11
BRANCH   1  21
HETATM   21  C   UNK N   1      21.831  16.253   5.057  0.00  0.00     0.057 C 
BRANCH  21  22
HETATM   22  C   UNK N   1      21.235  15.965   6.411  0.00  0.00    -0.021 A 
HETATM   23  C   UNK N   1      20.637  17.024   7.095  0.00  0.00     0.046 A 
HETATM   24  C   UNK N   1      20.079  16.863   8.362  0.00  0.00     0.103 A 
HETATM   25  C   UNK N   1      20.103  15.600   8.960  0.00  0.00     0.039 A 
HETATM   26  C   UNK N   1      20.667  14.516   8.285  0.00  0.00     0.040 A 
HETATM   27  C   UNK N   1      21.229  14.668   7.009  0.00  0.00     0.074 A 
BRANCH  24  28
HETATM   28  N   UNK N   1      19.506  17.981   9.027  0.00  0.00    -0.116 N 
HETATM   29  O   UNK N   1      18.280  17.913   9.501  0.00  0.00    -0.532 OA
HETATM   30  O   UNK N   1      20.129  18.993   9.154  0.00  0.00    -0.532 OA
ENDBRANCH  24  28
BRANCH  27  31
HETATM   31  O   UNK N   1      21.732  13.549   6.422  0.00  0.00    -0.355 OA
HETATM   32  C   UNK N   1      21.112  12.326   6.340  0.00  0.00     0.210 C 
ENDBRANCH  27  31
ENDBRANCH  21  22
ENDBRANCH   1  21
TORSDOF 7
ENDMDL
MODEL 9
REMARK VINA RESULT:      -7.2     16.290     18.707
REMARK  7 active torsions:
REMARK  status: ('A' for Active; 'I' for Inactive)
REMARK    1  A    between atoms: C_1  and  O_12 
REMARK    2  A    between atoms: C_4  and  C_9 
REMARK    3  A    between atoms: C_9  and  C_10 
REMARK    4  A    between atoms: C_9  and  C_14 
REMARK    5  A    between atoms: C_14  and  C_15 
REMARK    6  A    between atoms: C_17  and  N_27 
REMARK    7  A    between atoms: C_20  and  O_21 
REMARK       I    between atoms: C_23  and  N_26 
ROOT
HETATM    1  C   UNK N   1      27.576  26.089  -5.460  0.00  0.00     0.075 C 
ENDROOT
BRANCH   1   2
HETATM    2  C   UNK N   1      27.254  26.201  -6.954  0.00  0.00    -0.045 A 
HETATM    3  C   UNK N   1      25.987  25.899  -7.475  0.00  0.00     0.011 A 
HETATM    4  C   UNK N   1      25.730  25.977  -8.842  0.00  0.00     0.040 A 
HETATM    5  C   UNK N   1      26.736  26.347  -9.734  0.00  0.00     0.106 A 
HETATM    6  C   UNK N   1      28.015  26.680  -9.224  0.00  0.00     0.150 A 
HETATM    7  C   UNK N   1      28.255  26.619  -7.846  0.00  0.00     0.053 A 
HETATM    8  F   UNK N   1      29.031  27.047 -10.042  0.00  0.00    -0.203 F 
BRANCH   5   9
HETATM    9  O   UNK N   1      26.437  26.357 -11.057  0.00  0.00    -0.353 OA
HETATM   10  C   UNK N   1      25.184  26.141 -11.581  0.00  0.00     0.210 C 
ENDBRANCH   5   9
ENDBRANCH   1   2
BRANCH   1  11
HETATM   11  C   UNK N   1      26.904  27.143  -4.566  0.00  0.00     0.051 A 
HETATM   12  N   UNK N   1      26.923  28.463  -4.825  0.00  0.00    -0.194 N 
HETATM   13  C   UNK N   1      26.279  29.024  -3.788  0.00  0.00     0.675 A 
ATOM     14  HN  UNK N   1      27.335  28.934  -5.630  1.00  0.00     0.184 HD
HETATM   15  N   UNK N   1      25.845  28.130  -2.886  0.00  0.00    -0.200 N 
HETATM   16  N   UNK N   1      26.096  30.414  -3.648  0.00  0.00    -0.234 N 
HETATM   17  C   UNK N   1      26.234  26.936  -3.368  0.00  0.00     0.132 A 
HETATM   18  H   UNK N   1      25.352  28.308  -2.053  0.00  0.00     0.183 HD
HETATM   19  H   UNK N   1      26.686  31.041  -4.125  0.00  0.00     0.174 HD
HETATM   20  H   UNK N   1      25.377  30.759  -3.071  0.00  0.00     0.174 HD
ENDBRANCH   1  11
BRANCH   1  21
HETATM   21  C   UNK N   1      27.196  24.655  -5.006  0.00  0.00     0.057 C 
BRANCH  21  22
HETATM   22  C   UNK N   1      28.309  23.639  -4.961  0.00  0.00    -0.021 A 
HETATM   23  C   UNK N   1      29.015  23.502  -3.766  0.00  0.00     0.046 A 
HETATM   24  C   UNK N   1      30.074  22.607  -3.633  0.00  0.00     0.103 A 
HETATM   25  C   UNK N   1      30.431  21.809  -4.724  0.00  0.00     0.039 A 
HETATM   26  C   UNK N   1      29.722  21.903  -5.922  0.00  0.00     0.040 A 
HETATM   27  C   UNK N   1      28.653  22.799  -6.065  0.00  0.00     0.074 A 
BRANCH  24  28
HETATM   28  N   UNK N   1      30.778  22.527  -2.401  0.00  0.00    -0.116 N 
HETATM   29  O   UNK N   1      31.895  21.833  -2.320  0.00  0.00    -0.532 OA
HETATM   30  O   UNK N   1      30.360  23.080  -1.428  0.00  0.00    -0.532 OA
ENDBRANCH  24  28
BRANCH  27  31
HETATM   31  O   UNK N   1      28.007  22.801  -7.262  0.00  0.00    -0.355 OA
HETATM   32  C   UNK N   1      26.975  21.972  -7.629  0.00  0.00     0.210 C 
ENDBRANCH  27  31
ENDBRANCH  21  22
ENDBRANCH   1  21
TORSDOF 7
ENDMDL
