MODEL 1
REMARK VINA RESULT:      -5.4      0.000      0.000
REMARK  16 active torsions:
REMARK  status: ('A' for Active; 'I' for Inactive)
REMARK    1  A    between atoms: C_2  and  C_3 
REMARK    2  A    between atoms: C_2  and  O_17 
REMARK    3  A    between atoms: C_3  and  C_4 
REMARK    4  A    between atoms: C_4  and  C_5 
REMARK    5  A    between atoms: C_5  and  C_6 
REMARK    6  A    between atoms: C_6  and  C_7 
REMARK    7  A    between atoms: C_7  and  C_8 
REMARK    8  A    between atoms: C_8  and  C_9 
REMARK    9  A    between atoms: C_12  and  C_13 
REMARK   10  A    between atoms: C_12  and  O_19 
REMARK   11  A    between atoms: C_13  and  C_14 
REMARK   12  A    between atoms: C_16  and  O_17 
REMARK   13  A    between atoms: C_16  and  C_18 
REMARK   14  A    between atoms: C_18  and  O_19 
REMARK   15  A    between atoms: C_18  and  C_20 
REMARK   16  A    between atoms: C_20  and  O_21 
ROOT
HETATM    1  C   UNK N   1      35.383  16.807  10.329  0.00  0.00     0.213 C 
ENDROOT
BRANCH   1   2
HETATM    2  O   UNK N   1      34.347  17.405   9.643  0.00  0.00    -0.319 OA
BRANCH   2   3
HETATM    3  C   UNK N   1      34.521  18.093   8.488  0.00  0.00     0.258 C 
HETATM    4  O   UNK N   1      35.254  19.068   8.481  0.00  0.00    -0.265 OA
BRANCH   3   5
HETATM    5  C   UNK N   1      33.879  17.635   7.207  0.00  0.00     0.111 C 
BRANCH   5   6
HETATM    6  C   UNK N   1      32.365  17.622   7.294  0.00  0.00     0.010 C 
BRANCH   6   7
HETATM    7  C   UNK N   1      31.808  16.266   6.896  0.00  0.00     0.000 C 
BRANCH   7   8
HETATM    8  C   UNK N   1      30.313  16.364   6.669  0.00  0.00     0.000 C 
BRANCH   8   9
HETATM    9  C   UNK N   1      29.774  17.610   7.335  0.00  0.00     0.000 C 
BRANCH   9  10
HETATM   10  C   UNK N   1      28.393  17.323   7.883  0.00  0.00    -0.000 C 
BRANCH  10  11
HETATM   11  C   UNK N   1      28.307  17.817   9.310  0.00  0.00    -0.005 C 
HETATM   12  C   UNK N   1      29.560  18.597   9.647  0.00  0.00     0.005 C 
ENDBRANCH  10  11
ENDBRANCH   9  10
ENDBRANCH   8   9
ENDBRANCH   7   8
ENDBRANCH   6   7
ENDBRANCH   5   6
ENDBRANCH   3   5
ENDBRANCH   2   3
ENDBRANCH   1   2
BRANCH   1  13
HETATM   13  C   UNK N   1      35.150  15.315  10.545  0.00  0.00     0.179 C 
BRANCH  13  14
HETATM   14  O   UNK N   1      35.217  15.071  11.906  0.00  0.00    -0.312 OA
BRANCH  14  15
HETATM   15  C   UNK N   1      35.915  14.049  12.470  0.00  0.00     0.259 C 
HETATM   16  O   UNK N   1      36.964  13.655  11.975  0.00  0.00    -0.265 OA
BRANCH  15  17
HETATM   17  C   UNK N   1      35.410  13.415  13.721  0.00  0.00     0.111 C 
BRANCH  17  18
HETATM   18  C   UNK N   1      36.348  13.762  14.865  0.00  0.00     0.005 C 
HETATM   19  C   UNK N   1      35.861  13.129  16.149  0.00  0.00     0.005 C 
ENDBRANCH  17  18
ENDBRANCH  15  17
ENDBRANCH  14  15
ENDBRANCH  13  14
BRANCH  13  20
HETATM   20  C   UNK N   1      33.780  14.922   9.989  0.00  0.00     0.198 C 
BRANCH  20  21
HETATM   21  O   UNK N   1      32.784  15.103  10.947  0.00  0.00    -0.398 OA
HETATM   22  H   UNK N   1      32.414  15.880  11.396  0.00  0.00     0.209 HD
ENDBRANCH  20  21
ENDBRANCH  13  20
ENDBRANCH   1  13
TORSDOF 16
ENDMDL
MODEL 2
REMARK VINA RESULT:      -5.2     10.094     14.569
REMARK  16 active torsions:
REMARK  status: ('A' for Active; 'I' for Inactive)
REMARK    1  A    between atoms: C_2  and  C_3 
REMARK    2  A    between atoms: C_2  and  O_17 
REMARK    3  A    between atoms: C_3  and  C_4 
REMARK    4  A    between atoms: C_4  and  C_5 
REMARK    5  A    between atoms: C_5  and  C_6 
REMARK    6  A    between atoms: C_6  and  C_7 
REMARK    7  A    between atoms: C_7  and  C_8 
REMARK    8  A    between atoms: C_8  and  C_9 
REMARK    9  A    between atoms: C_12  and  C_13 
REMARK   10  A    between atoms: C_12  and  O_19 
REMARK   11  A    between atoms: C_13  and  C_14 
REMARK   12  A    between atoms: C_16  and  O_17 
REMARK   13  A    between atoms: C_16  and  C_18 
REMARK   14  A    between atoms: C_18  and  O_19 
REMARK   15  A    between atoms: C_18  and  C_20 
REMARK   16  A    between atoms: C_20  and  O_21 
ROOT
HETATM    1  C   UNK N   1      20.656  19.394   3.566  0.00  0.00     0.213 C 
ENDROOT
BRANCH   1   2
HETATM    2  O   UNK N   1      21.858  19.578   4.216  0.00  0.00    -0.319 OA
BRANCH   2   3
HETATM    3  C   UNK N   1      22.577  18.561   4.750  0.00  0.00     0.258 C 
HETATM    4  O   UNK N   1      22.300  18.159   5.868  0.00  0.00    -0.265 OA
BRANCH   3   5
HETATM    5  C   UNK N   1      23.663  17.881   3.962  0.00  0.00     0.111 C 
BRANCH   5   6
HETATM    6  C   UNK N   1      25.017  18.535   4.164  0.00  0.00     0.010 C 
BRANCH   6   7
HETATM    7  C   UNK N   1      25.002  19.977   3.688  0.00  0.00     0.000 C 
BRANCH   7   8
HETATM    8  C   UNK N   1      26.400  20.408   3.290  0.00  0.00     0.000 C 
BRANCH   8   9
HETATM    9  C   UNK N   1      27.374  20.070   4.396  0.00  0.00     0.000 C 
BRANCH   9  10
HETATM   10  C   UNK N   1      27.220  21.076   5.517  0.00  0.00    -0.000 C 
BRANCH  10  11
HETATM   11  C   UNK N   1      27.398  20.376   6.846  0.00  0.00    -0.005 C 
HETATM   12  C   UNK N   1      27.858  18.953   6.607  0.00  0.00     0.005 C 
ENDBRANCH  10  11
ENDBRANCH   9  10
ENDBRANCH   8   9
ENDBRANCH   7   8
ENDBRANCH   6   7
ENDBRANCH   5   6
ENDBRANCH   3   5
ENDBRANCH   2   3
ENDBRANCH   1   2
BRANCH   1  13
HETATM   13  C   UNK N   1      20.832  19.206   2.062  0.00  0.00     0.179 C 
BRANCH  13  14
HETATM   14  O   UNK N   1      19.862  18.317   1.633  0.00  0.00    -0.312 OA
BRANCH  14  15
HETATM   15  C   UNK N   1      20.113  17.211   0.883  0.00  0.00     0.259 C 
HETATM   16  O   UNK N   1      20.366  17.304  -0.312  0.00  0.00    -0.265 OA
BRANCH  15  17
HETATM   17  C   UNK N   1      20.102  15.867   1.528  0.00  0.00     0.111 C 
BRANCH  17  18
HETATM   18  C   UNK N   1      21.394  15.143   1.186  0.00  0.00     0.005 C 
HETATM   19  C   UNK N   1      21.111  13.693   0.868  0.00  0.00     0.005 C 
ENDBRANCH  17  18
ENDBRANCH  15  17
ENDBRANCH  14  15
ENDBRANCH  13  14
BRANCH  13  20
HETATM   20  C   UNK N   1      20.687  20.555   1.355  0.00  0.00     0.198 C 
BRANCH  20  21
HETATM   21  O   UNK N   1      20.587  20.384  -0.025  0.00  0.00    -0.398 OA
HETATM   22  H   UNK N   1      20.124  20.862  -0.731  0.00  0.00     0.209 HD
ENDBRANCH  20  21
ENDBRANCH  13  20
ENDBRANCH   1  13
TORSDOF 16
ENDMDL
MODEL 3
REMARK VINA RESULT:      -5.2      2.637      8.145
REMARK  16 active torsions:
REMARK  status: ('A' for Active; 'I' for Inactive)
REMARK    1  A    between atoms: C_2  and  C_3 
REMARK    2  A    between atoms: C_2  and  O_17 
REMARK    3  A    between atoms: C_3  and  C_4 
REMARK    4  A    between atoms: C_4  and  C_5 
REMARK    5  A    between atoms: C_5  and  C_6 
REMARK    6  A    between atoms: C_6  and  C_7 
REMARK    7  A    between atoms: C_7  and  C_8 
REMARK    8  A    between atoms: C_8  and  C_9 
REMARK    9  A    between atoms: C_12  and  C_13 
REMARK   10  A    between atoms: C_12  and  O_19 
REMARK   11  A    between atoms: C_13  and  C_14 
REMARK   12  A    between atoms: C_16  and  O_17 
REMARK   13  A    between atoms: C_16  and  C_18 
REMARK   14  A    between atoms: C_18  and  O_19 
REMARK   15  A    between atoms: C_18  and  C_20 
REMARK   16  A    between atoms: C_20  and  O_21 
ROOT
HETATM    1  C   UNK N   1      35.874  13.142  10.822  0.00  0.00     0.213 C 
ENDROOT
BRANCH   1   2
HETATM    2  O   UNK N   1      36.607  13.243  11.985  0.00  0.00    -0.319 OA
BRANCH   2   3
HETATM    3  C   UNK N   1      36.043  13.383  13.209  0.00  0.00     0.258 C 
HETATM    4  O   UNK N   1      34.907  13.818  13.294  0.00  0.00    -0.265 OA
BRANCH   3   5
HETATM    5  C   UNK N   1      36.769  12.951  14.453  0.00  0.00     0.111 C 
BRANCH   5   6
HETATM    6  C   UNK N   1      36.331  13.732  15.678  0.00  0.00     0.010 C 
BRANCH   6   7
HETATM    7  C   UNK N   1      35.504  12.864  16.610  0.00  0.00     0.000 C 
BRANCH   7   8
HETATM    8  C   UNK N   1      36.016  11.438  16.584  0.00  0.00     0.000 C 
BRANCH   8   9
HETATM    9  C   UNK N   1      34.852  10.476  16.515  0.00  0.00     0.000 C 
BRANCH   9  10
HETATM   10  C   UNK N   1      34.771   9.894  15.120  0.00  0.00    -0.000 C 
BRANCH  10  11
HETATM   11  C   UNK N   1      33.718  10.637  14.327  0.00  0.00    -0.005 C 
HETATM   12  C   UNK N   1      33.908  10.354  12.852  0.00  0.00     0.005 C 
ENDBRANCH  10  11
ENDBRANCH   9  10
ENDBRANCH   8   9
ENDBRANCH   7   8
ENDBRANCH   6   7
ENDBRANCH   5   6
ENDBRANCH   3   5
ENDBRANCH   2   3
ENDBRANCH   1   2
BRANCH   1  13
HETATM   13  C   UNK N   1      36.293  14.176   9.781  0.00  0.00     0.179 C 
BRANCH  13  14
HETATM   14  O   UNK N   1      36.245  15.422  10.382  0.00  0.00    -0.312 OA
BRANCH  14  15
HETATM   15  C   UNK N   1      35.366  16.404  10.045  0.00  0.00     0.259 C 
HETATM   16  O   UNK N   1      35.516  17.550  10.451  0.00  0.00    -0.265 OA
BRANCH  15  17
HETATM   17  C   UNK N   1      34.218  16.087   9.149  0.00  0.00     0.111 C 
BRANCH  17  18
HETATM   18  C   UNK N   1      33.571  17.385   8.696  0.00  0.00     0.005 C 
HETATM   19  C   UNK N   1      33.898  17.652   7.244  0.00  0.00     0.005 C 
ENDBRANCH  17  18
ENDBRANCH  15  17
ENDBRANCH  14  15
ENDBRANCH  13  14
BRANCH  13  20
HETATM   20  C   UNK N   1      37.707  13.864   9.286  0.00  0.00     0.198 C 
BRANCH  20  21
HETATM   21  O   UNK N   1      38.663  14.459  10.108  0.00  0.00    -0.398 OA
HETATM   22  H   UNK N   1      39.630  14.396  10.171  0.00  0.00     0.209 HD
ENDBRANCH  20  21
ENDBRANCH  13  20
ENDBRANCH   1  13
TORSDOF 16
ENDMDL
MODEL 4
REMARK VINA RESULT:      -5.1      1.981      7.966
REMARK  16 active torsions:
REMARK  status: ('A' for Active; 'I' for Inactive)
REMARK    1  A    between atoms: C_2  and  C_3 
REMARK    2  A    between atoms: C_2  and  O_17 
REMARK    3  A    between atoms: C_3  and  C_4 
REMARK    4  A    between atoms: C_4  and  C_5 
REMARK    5  A    between atoms: C_5  and  C_6 
REMARK    6  A    between atoms: C_6  and  C_7 
REMARK    7  A    between atoms: C_7  and  C_8 
REMARK    8  A    between atoms: C_8  and  C_9 
REMARK    9  A    between atoms: C_12  and  C_13 
REMARK   10  A    between atoms: C_12  and  O_19 
REMARK   11  A    between atoms: C_13  and  C_14 
REMARK   12  A    between atoms: C_16  and  O_17 
REMARK   13  A    between atoms: C_16  and  C_18 
REMARK   14  A    between atoms: C_18  and  O_19 
REMARK   15  A    between atoms: C_18  and  C_20 
REMARK   16  A    between atoms: C_20  and  O_21 
ROOT
HETATM    1  C   UNK N   1      34.404  14.953   9.493  0.00  0.00     0.213 C 
ENDROOT
BRANCH   1   2
HETATM    2  O   UNK N   1      35.265  13.886   9.647  0.00  0.00    -0.319 OA
BRANCH   2   3
HETATM    3  C   UNK N   1      34.862  12.662  10.065  0.00  0.00     0.258 C 
HETATM    4  O   UNK N   1      34.489  11.845   9.240  0.00  0.00    -0.265 OA
BRANCH   3   5
HETATM    5  C   UNK N   1      34.930  12.277  11.517  0.00  0.00     0.111 C 
BRANCH   5   6
HETATM    6  C   UNK N   1      36.121  12.896  12.224  0.00  0.00     0.010 C 
BRANCH   6   7
HETATM    7  C   UNK N   1      35.685  13.646  13.470  0.00  0.00     0.000 C 
BRANCH   7   8
HETATM    8  C   UNK N   1      36.617  13.327  14.622  0.00  0.00     0.000 C 
BRANCH   8   9
HETATM    9  C   UNK N   1      35.853  12.618  15.717  0.00  0.00     0.000 C 
BRANCH   9  10
HETATM   10  C   UNK N   1      35.954  11.122  15.504  0.00  0.00    -0.000 C 
BRANCH  10  11
HETATM   11  C   UNK N   1      34.618  10.481  15.807  0.00  0.00    -0.005 C 
HETATM   12  C   UNK N   1      33.653  10.776  14.678  0.00  0.00     0.005 C 
ENDBRANCH  10  11
ENDBRANCH   9  10
ENDBRANCH   8   9
ENDBRANCH   7   8
ENDBRANCH   6   7
ENDBRANCH   5   6
ENDBRANCH   3   5
ENDBRANCH   2   3
ENDBRANCH   1   2
BRANCH   1  13
HETATM   13  C   UNK N   1      35.127  16.295   9.560  0.00  0.00     0.179 C 
BRANCH  13  14
HETATM   14  O   UNK N   1      34.199  17.286   9.287  0.00  0.00    -0.312 OA
BRANCH  14  15
HETATM   15  C   UNK N   1      34.312  18.184   8.271  0.00  0.00     0.259 C 
HETATM   16  O   UNK N   1      35.028  19.171   8.380  0.00  0.00    -0.265 OA
BRANCH  15  17
HETATM   17  C   UNK N   1      33.572  17.950   6.998  0.00  0.00     0.111 C 
BRANCH  17  18
HETATM   18  C   UNK N   1      32.244  17.282   7.313  0.00  0.00     0.005 C 
HETATM   19  C   UNK N   1      31.474  17.024   6.037  0.00  0.00     0.005 C 
ENDBRANCH  17  18
ENDBRANCH  15  17
ENDBRANCH  14  15
ENDBRANCH  13  14
BRANCH  13  20
HETATM   20  C   UNK N   1      35.731  16.485  10.953  0.00  0.00     0.198 C 
BRANCH  20  21
HETATM   21  O   UNK N   1      37.041  16.010  10.995  0.00  0.00    -0.398 OA
HETATM   22  H   UNK N   1      37.477  15.276  11.455  0.00  0.00     0.209 HD
ENDBRANCH  20  21
ENDBRANCH  13  20
ENDBRANCH   1  13
TORSDOF 16
ENDMDL
MODEL 5
REMARK VINA RESULT:      -5.1      1.584      2.795
REMARK  16 active torsions:
REMARK  status: ('A' for Active; 'I' for Inactive)
REMARK    1  A    between atoms: C_2  and  C_3 
REMARK    2  A    between atoms: C_2  and  O_17 
REMARK    3  A    between atoms: C_3  and  C_4 
REMARK    4  A    between atoms: C_4  and  C_5 
REMARK    5  A    between atoms: C_5  and  C_6 
REMARK    6  A    between atoms: C_6  and  C_7 
REMARK    7  A    between atoms: C_7  and  C_8 
REMARK    8  A    between atoms: C_8  and  C_9 
REMARK    9  A    between atoms: C_12  and  C_13 
REMARK   10  A    between atoms: C_12  and  O_19 
REMARK   11  A    between atoms: C_13  and  C_14 
REMARK   12  A    between atoms: C_16  and  O_17 
REMARK   13  A    between atoms: C_16  and  C_18 
REMARK   14  A    between atoms: C_18  and  O_19 
REMARK   15  A    between atoms: C_18  and  C_20 
REMARK   16  A    between atoms: C_20  and  O_21 
ROOT
HETATM    1  C   UNK N   1      35.078  14.502  11.536  0.00  0.00     0.213 C 
ENDROOT
BRANCH   1   2
HETATM    2  O   UNK N   1      35.187  15.875  11.595  0.00  0.00    -0.319 OA
BRANCH   2   3
HETATM    3  C   UNK N   1      35.158  16.670  10.498  0.00  0.00     0.258 C 
HETATM    4  O   UNK N   1      35.952  17.592  10.411  0.00  0.00    -0.265 OA
BRANCH   3   5
HETATM    5  C   UNK N   1      34.209  16.395   9.364  0.00  0.00     0.111 C 
BRANCH   5   6
HETATM    6  C   UNK N   1      34.358  17.395   8.233  0.00  0.00     0.010 C 
BRANCH   6   7
HETATM    7  C   UNK N   1      33.029  18.055   7.911  0.00  0.00     0.000 C 
BRANCH   7   8
HETATM    8  C   UNK N   1      32.128  17.081   7.178  0.00  0.00     0.000 C 
BRANCH   8   9
HETATM    9  C   UNK N   1      30.684  17.357   7.528  0.00  0.00     0.000 C 
BRANCH   9  10
HETATM   10  C   UNK N   1      30.520  17.310   9.032  0.00  0.00    -0.000 C 
BRANCH  10  11
HETATM   11  C   UNK N   1      29.714  18.508   9.486  0.00  0.00    -0.005 C 
HETATM   12  C   UNK N   1      28.304  18.399   8.946  0.00  0.00     0.005 C 
ENDBRANCH  10  11
ENDBRANCH   9  10
ENDBRANCH   8   9
ENDBRANCH   7   8
ENDBRANCH   6   7
ENDBRANCH   5   6
ENDBRANCH   3   5
ENDBRANCH   2   3
ENDBRANCH   1   2
BRANCH   1  13
HETATM   13  C   UNK N   1      35.687  13.818  12.757  0.00  0.00     0.179 C 
BRANCH  13  14
HETATM   14  O   UNK N   1      34.658  13.212  13.456  0.00  0.00    -0.312 OA
BRANCH  14  15
HETATM   15  C   UNK N   1      34.804  12.604  14.664  0.00  0.00     0.259 C 
HETATM   16  O   UNK N   1      34.343  11.488  14.867  0.00  0.00    -0.265 OA
BRANCH  15  17
HETATM   17  C   UNK N   1      35.556  13.297  15.749  0.00  0.00     0.111 C 
BRANCH  17  18
HETATM   18  C   UNK N   1      35.069  12.784  17.094  0.00  0.00     0.005 C 
HETATM   19  C   UNK N   1      35.243  13.850  18.152  0.00  0.00     0.005 C 
ENDBRANCH  17  18
ENDBRANCH  15  17
ENDBRANCH  14  15
ENDBRANCH  13  14
BRANCH  13  20
HETATM   20  C   UNK N   1      36.721  12.785  12.305  0.00  0.00     0.198 C 
BRANCH  20  21
HETATM   21  O   UNK N   1      37.772  13.398  11.625  0.00  0.00    -0.398 OA
HETATM   22  H   UNK N   1      37.836  14.168  11.037  0.00  0.00     0.209 HD
ENDBRANCH  20  21
ENDBRANCH  13  20
ENDBRANCH   1  13
TORSDOF 16
ENDMDL
MODEL 6
REMARK VINA RESULT:      -5.1     14.988     18.323
REMARK  16 active torsions:
REMARK  status: ('A' for Active; 'I' for Inactive)
REMARK    1  A    between atoms: C_2  and  C_3 
REMARK    2  A    between atoms: C_2  and  O_17 
REMARK    3  A    between atoms: C_3  and  C_4 
REMARK    4  A    between atoms: C_4  and  C_5 
REMARK    5  A    between atoms: C_5  and  C_6 
REMARK    6  A    between atoms: C_6  and  C_7 
REMARK    7  A    between atoms: C_7  and  C_8 
REMARK    8  A    between atoms: C_8  and  C_9 
REMARK    9  A    between atoms: C_12  and  C_13 
REMARK   10  A    between atoms: C_12  and  O_19 
REMARK   11  A    between atoms: C_13  and  C_14 
REMARK   12  A    between atoms: C_16  and  O_17 
REMARK   13  A    between atoms: C_16  and  C_18 
REMARK   14  A    between atoms: C_18  and  O_19 
REMARK   15  A    between atoms: C_18  and  C_20 
REMARK   16  A    between atoms: C_20  and  O_21 
ROOT
HETATM    1  C   UNK N   1      29.637  23.772  -4.529  0.00  0.00     0.213 C 
ENDROOT
BRANCH   1   2
HETATM    2  O   UNK N   1      28.534  23.461  -3.763  0.00  0.00    -0.319 OA
BRANCH   2   3
HETATM    3  C   UNK N   1      27.539  24.343  -3.502  0.00  0.00     0.258 C 
HETATM    4  O   UNK N   1      26.631  24.012  -2.758  0.00  0.00    -0.265 OA
BRANCH   3   5
HETATM    5  C   UNK N   1      27.571  25.739  -4.062  0.00  0.00     0.111 C 
BRANCH   5   6
HETATM    6  C   UNK N   1      26.181  26.315  -4.255  0.00  0.00     0.010 C 
BRANCH   6   7
HETATM    7  C   UNK N   1      25.909  27.427  -3.257  0.00  0.00     0.000 C 
BRANCH   7   8
HETATM    8  C   UNK N   1      26.865  28.579  -3.489  0.00  0.00     0.000 C 
BRANCH   8   9
HETATM    9  C   UNK N   1      26.767  29.046  -4.923  0.00  0.00     0.000 C 
BRANCH   9  10
HETATM   10  C   UNK N   1      28.070  29.708  -5.320  0.00  0.00    -0.000 C 
BRANCH  10  11
HETATM   11  C   UNK N   1      28.384  29.373  -6.761  0.00  0.00    -0.005 C 
HETATM   12  C   UNK N   1      27.750  28.046  -7.118  0.00  0.00     0.005 C 
ENDBRANCH  10  11
ENDBRANCH   9  10
ENDBRANCH   8   9
ENDBRANCH   7   8
ENDBRANCH   6   7
ENDBRANCH   5   6
ENDBRANCH   3   5
ENDBRANCH   2   3
ENDBRANCH   1   2
BRANCH   1  13
HETATM   13  C   UNK N   1      30.907  23.902  -3.693  0.00  0.00     0.179 C 
BRANCH  13  14
HETATM   14  O   UNK N   1      30.862  25.126  -3.046  0.00  0.00    -0.312 OA
BRANCH  14  15
HETATM   15  C   UNK N   1      31.219  26.308  -3.615  0.00  0.00     0.259 C 
HETATM   16  O   UNK N   1      32.148  26.369  -4.412  0.00  0.00    -0.265 OA
BRANCH  15  17
HETATM   17  C   UNK N   1      30.455  27.544  -3.284  0.00  0.00     0.111 C 
BRANCH  17  18
HETATM   18  C   UNK N   1      31.426  28.704  -3.140  0.00  0.00     0.005 C 
HETATM   19  C   UNK N   1      31.604  29.058  -1.682  0.00  0.00     0.005 C 
ENDBRANCH  17  18
ENDBRANCH  15  17
ENDBRANCH  14  15
ENDBRANCH  13  14
BRANCH  13  20
HETATM   20  C   UNK N   1      30.977  22.755  -2.683  0.00  0.00     0.198 C 
BRANCH  20  21
HETATM   21  O   UNK N   1      30.397  23.125  -1.470  0.00  0.00    -0.398 OA
HETATM   22  H   UNK N   1      30.122  23.972  -1.085  0.00  0.00     0.209 HD
ENDBRANCH  20  21
ENDBRANCH  13  20
ENDBRANCH   1  13
TORSDOF 16
ENDMDL
MODEL 7
REMARK VINA RESULT:      -5.0     10.521     13.135
REMARK  16 active torsions:
REMARK  status: ('A' for Active; 'I' for Inactive)
REMARK    1  A    between atoms: C_2  and  C_3 
REMARK    2  A    between atoms: C_2  and  O_17 
REMARK    3  A    between atoms: C_3  and  C_4 
REMARK    4  A    between atoms: C_4  and  C_5 
REMARK    5  A    between atoms: C_5  and  C_6 
REMARK    6  A    between atoms: C_6  and  C_7 
REMARK    7  A    between atoms: C_7  and  C_8 
REMARK    8  A    between atoms: C_8  and  C_9 
REMARK    9  A    between atoms: C_12  and  C_13 
REMARK   10  A    between atoms: C_12  and  O_19 
REMARK   11  A    between atoms: C_13  and  C_14 
REMARK   12  A    between atoms: C_16  and  O_17 
REMARK   13  A    between atoms: C_16  and  C_18 
REMARK   14  A    between atoms: C_18  and  O_19 
REMARK   15  A    between atoms: C_18  and  C_20 
REMARK   16  A    between atoms: C_20  and  O_21 
ROOT
HETATM    1  C   UNK N   1      22.826  18.198   4.449  0.00  0.00     0.213 C 
ENDROOT
BRANCH   1   2
HETATM    2  O   UNK N   1      21.622  18.401   5.089  0.00  0.00    -0.319 OA
BRANCH   2   3
HETATM    3  C   UNK N   1      21.385  18.011   6.365  0.00  0.00     0.258 C 
HETATM    4  O   UNK N   1      20.889  18.805   7.147  0.00  0.00    -0.265 OA
BRANCH   3   5
HETATM    5  C   UNK N   1      21.664  16.602   6.811  0.00  0.00     0.111 C 
BRANCH   5   6
HETATM    6  C   UNK N   1      20.433  15.921   7.377  0.00  0.00     0.010 C 
BRANCH   6   7
HETATM    7  C   UNK N   1      20.513  15.819   8.890  0.00  0.00     0.000 C 
BRANCH   7   8
HETATM    8  C   UNK N   1      20.409  14.369   9.319  0.00  0.00     0.000 C 
BRANCH   8   9
HETATM    9  C   UNK N   1      21.765  13.867   9.761  0.00  0.00     0.000 C 
BRANCH   9  10
HETATM   10  C   UNK N   1      21.582  12.625  10.607  0.00  0.00    -0.000 C 
BRANCH  10  11
HETATM   11  C   UNK N   1      22.668  11.626  10.272  0.00  0.00    -0.005 C 
HETATM   12  C   UNK N   1      23.181  11.892   8.873  0.00  0.00     0.005 C 
ENDBRANCH  10  11
ENDBRANCH   9  10
ENDBRANCH   8   9
ENDBRANCH   7   8
ENDBRANCH   6   7
ENDBRANCH   5   6
ENDBRANCH   3   5
ENDBRANCH   2   3
ENDBRANCH   1   2
BRANCH   1  13
HETATM   13  C   UNK N   1      23.401  19.490   3.873  0.00  0.00     0.179 C 
BRANCH  13  14
HETATM   14  O   UNK N   1      24.577  19.171   3.216  0.00  0.00    -0.312 OA
BRANCH  14  15
HETATM   15  C   UNK N   1      25.661  19.988   3.143  0.00  0.00     0.259 C 
HETATM   16  O   UNK N   1      25.663  20.969   2.409  0.00  0.00    -0.265 OA
BRANCH  15  17
HETATM   17  C   UNK N   1      26.857  19.701   3.986  0.00  0.00     0.111 C 
BRANCH  17  18
HETATM   18  C   UNK N   1      26.528  20.017   5.435  0.00  0.00     0.005 C 
HETATM   19  C   UNK N   1      27.110  21.358   5.822  0.00  0.00     0.005 C 
ENDBRANCH  17  18
ENDBRANCH  15  17
ENDBRANCH  14  15
ENDBRANCH  13  14
BRANCH  13  20
HETATM   20  C   UNK N   1      22.392  20.117   2.909  0.00  0.00     0.198 C 
BRANCH  20  21
HETATM   21  O   UNK N   1      22.616  21.487   2.777  0.00  0.00    -0.398 OA
HETATM   22  H   UNK N   1      22.194  22.191   2.259  0.00  0.00     0.209 HD
ENDBRANCH  20  21
ENDBRANCH  13  20
ENDBRANCH   1  13
TORSDOF 16
ENDMDL
MODEL 8
REMARK VINA RESULT:      -5.0     14.805     18.082
REMARK  16 active torsions:
REMARK  status: ('A' for Active; 'I' for Inactive)
REMARK    1  A    between atoms: C_2  and  C_3 
REMARK    2  A    between atoms: C_2  and  O_17 
REMARK    3  A    between atoms: C_3  and  C_4 
REMARK    4  A    between atoms: C_4  and  C_5 
REMARK    5  A    between atoms: C_5  and  C_6 
REMARK    6  A    between atoms: C_6  and  C_7 
REMARK    7  A    between atoms: C_7  and  C_8 
REMARK    8  A    between atoms: C_8  and  C_9 
REMARK    9  A    between atoms: C_12  and  C_13 
REMARK   10  A    between atoms: C_12  and  O_19 
REMARK   11  A    between atoms: C_13  and  C_14 
REMARK   12  A    between atoms: C_16  and  O_17 
REMARK   13  A    between atoms: C_16  and  C_18 
REMARK   14  A    between atoms: C_18  and  O_19 
REMARK   15  A    between atoms: C_18  and  C_20 
REMARK   16  A    between atoms: C_20  and  O_21 
ROOT
HETATM    1  C   UNK N   1      29.609  23.756  -4.078  0.00  0.00     0.213 C 
ENDROOT
BRANCH   1   2
HETATM    2  O   UNK N   1      28.448  23.957  -3.362  0.00  0.00    -0.319 OA
BRANCH   2   3
HETATM    3  C   UNK N   1      27.250  24.206  -3.945  0.00  0.00     0.258 C 
HETATM    4  O   UNK N   1      26.348  24.677  -3.273  0.00  0.00    -0.265 OA
BRANCH   3   5
HETATM    5  C   UNK N   1      27.038  23.970  -5.416  0.00  0.00     0.111 C 
BRANCH   5   6
HETATM    6  C   UNK N   1      25.652  24.385  -5.872  0.00  0.00     0.010 C 
BRANCH   6   7
HETATM    7  C   UNK N   1      25.727  25.281  -7.096  0.00  0.00     0.000 C 
BRANCH   7   8
HETATM    8  C   UNK N   1      25.845  26.731  -6.673  0.00  0.00     0.000 C 
BRANCH   8   9
HETATM    9  C   UNK N   1      24.799  27.046  -5.627  0.00  0.00     0.000 C 
BRANCH   9  10
HETATM   10  C   UNK N   1      25.436  27.851  -4.515  0.00  0.00    -0.000 C 
BRANCH  10  11
HETATM   11  C   UNK N   1      26.859  28.196  -4.897  0.00  0.00    -0.005 C 
HETATM   12  C   UNK N   1      27.776  27.915  -3.725  0.00  0.00     0.005 C 
ENDBRANCH  10  11
ENDBRANCH   9  10
ENDBRANCH   8   9
ENDBRANCH   7   8
ENDBRANCH   6   7
ENDBRANCH   5   6
ENDBRANCH   3   5
ENDBRANCH   2   3
ENDBRANCH   1   2
BRANCH   1  13
HETATM   13  C   UNK N   1      30.238  22.395  -3.791  0.00  0.00     0.179 C 
BRANCH  13  14
HETATM   14  O   UNK N   1      30.933  22.006  -4.923  0.00  0.00    -0.312 OA
BRANCH  14  15
HETATM   15  C   UNK N   1      31.019  20.724  -5.369  0.00  0.00     0.259 C 
HETATM   16  O   UNK N   1      31.460  19.836  -4.650  0.00  0.00    -0.265 OA
BRANCH  15  17
HETATM   17  C   UNK N   1      30.548  20.390  -6.743  0.00  0.00     0.111 C 
BRANCH  17  18
HETATM   18  C   UNK N   1      29.207  21.063  -6.984  0.00  0.00     0.005 C 
HETATM   19  C   UNK N   1      28.441  20.330  -8.062  0.00  0.00     0.005 C 
ENDBRANCH  17  18
ENDBRANCH  15  17
ENDBRANCH  14  15
ENDBRANCH  13  14
BRANCH  13  20
HETATM   20  C   UNK N   1      31.176  22.506  -2.588  0.00  0.00     0.198 C 
BRANCH  20  21
HETATM   21  O   UNK N   1      30.500  23.002  -1.474  0.00  0.00    -0.398 OA
HETATM   22  H   UNK N   1      29.663  23.476  -1.350  0.00  0.00     0.209 HD
ENDBRANCH  20  21
ENDBRANCH  13  20
ENDBRANCH   1  13
TORSDOF 16
ENDMDL
MODEL 9
REMARK VINA RESULT:      -4.9      2.127      3.508
REMARK  16 active torsions:
REMARK  status: ('A' for Active; 'I' for Inactive)
REMARK    1  A    between atoms: C_2  and  C_3 
REMARK    2  A    between atoms: C_2  and  O_17 
REMARK    3  A    between atoms: C_3  and  C_4 
REMARK    4  A    between atoms: C_4  and  C_5 
REMARK    5  A    between atoms: C_5  and  C_6 
REMARK    6  A    between atoms: C_6  and  C_7 
REMARK    7  A    between atoms: C_7  and  C_8 
REMARK    8  A    between atoms: C_8  and  C_9 
REMARK    9  A    between atoms: C_12  and  C_13 
REMARK   10  A    between atoms: C_12  and  O_19 
REMARK   11  A    between atoms: C_13  and  C_14 
REMARK   12  A    between atoms: C_16  and  O_17 
REMARK   13  A    between atoms: C_16  and  C_18 
REMARK   14  A    between atoms: C_18  and  O_19 
REMARK   15  A    between atoms: C_18  and  C_20 
REMARK   16  A    between atoms: C_20  and  O_21 
ROOT
HETATM    1  C   UNK N   1      35.852  15.491  12.482  0.00  0.00     0.213 C 
ENDROOT
BRANCH   1   2
HETATM    2  O   UNK N   1      35.127  15.478  11.310  0.00  0.00    -0.319 OA
BRANCH   2   3
HETATM    3  C   UNK N   1      35.273  16.409  10.336  0.00  0.00     0.258 C 
HETATM    4  O   UNK N   1      35.923  17.415  10.568  0.00  0.00    -0.265 OA
BRANCH   3   5
HETATM    5  C   UNK N   1      34.703  16.192   8.961  0.00  0.00     0.111 C 
BRANCH   5   6
HETATM    6  C   UNK N   1      33.748  17.296   8.551  0.00  0.00     0.010 C 
BRANCH   6   7
HETATM    7  C   UNK N   1      32.426  16.722   8.072  0.00  0.00     0.000 C 
BRANCH   7   8
HETATM    8  C   UNK N   1      32.089  17.269   6.700  0.00  0.00     0.000 C 
BRANCH   8   9
HETATM    9  C   UNK N   1      33.354  17.436   5.890  0.00  0.00     0.000 C 
BRANCH   9  10
HETATM   10  C   UNK N   1      32.988  17.668   4.439  0.00  0.00    -0.000 C 
BRANCH  10  11
HETATM   11  C   UNK N   1      31.502  17.451   4.256  0.00  0.00    -0.005 C 
HETATM   12  C   UNK N   1      31.274  16.476   3.121  0.00  0.00     0.005 C 
ENDBRANCH  10  11
ENDBRANCH   9  10
ENDBRANCH   8   9
ENDBRANCH   7   8
ENDBRANCH   6   7
ENDBRANCH   5   6
ENDBRANCH   3   5
ENDBRANCH   2   3
ENDBRANCH   1   2
BRANCH   1  13
HETATM   13  C   UNK N   1      36.195  14.086  12.968  0.00  0.00     0.179 C 
BRANCH  13  14
HETATM   14  O   UNK N   1      35.634  13.925  14.223  0.00  0.00    -0.312 OA
BRANCH  14  15
HETATM   15  C   UNK N   1      36.349  13.741  15.365  0.00  0.00     0.259 C 
HETATM   16  O   UNK N   1      37.429  14.295  15.528  0.00  0.00    -0.265 OA
BRANCH  15  17
HETATM   17  C   UNK N   1      35.799  12.873  16.445  0.00  0.00     0.111 C 
BRANCH  17  18
HETATM   18  C   UNK N   1      35.263  13.752  17.562  0.00  0.00     0.005 C 
HETATM   19  C   UNK N   1      35.132  12.953  18.839  0.00  0.00     0.005 C 
ENDBRANCH  17  18
ENDBRANCH  15  17
ENDBRANCH  14  15
ENDBRANCH  13  14
BRANCH  13  20
HETATM   20  C   UNK N   1      35.638  13.053  11.986  0.00  0.00     0.198 C 
BRANCH  20  21
HETATM   21  O   UNK N   1      34.271  12.864  12.185  0.00  0.00    -0.398 OA
HETATM   22  H   UNK N   1      33.683  12.957  12.951  0.00  0.00     0.209 HD
ENDBRANCH  20  21
ENDBRANCH  13  20
ENDBRANCH   1  13
TORSDOF 16
ENDMDL
