MODEL 1
REMARK VINA RESULT:      -7.0      0.000      0.000
REMARK  7 active torsions:
REMARK  status: ('A' for Active; 'I' for Inactive)
REMARK    1  A    between atoms: C_3  and  N_4 
REMARK    2  A    between atoms: C_9  and  O_10 
REMARK    3  A    between atoms: O_10  and  P_11 
REMARK    4  A    between atoms: P_11  and  O_12 
REMARK    5  A    between atoms: P_11  and  O_14 
REMARK    6  A    between atoms: O_14  and  C_15 
REMARK    7  A    between atoms: C_18  and  N_19 
ROOT
HETATM    1  P   UNK N   1      26.372  24.115  -7.387  0.00  0.00     0.403 P 
HETATM    2  O   UNK N   1      26.116  23.431  -8.759  0.00  0.00    -0.631 OA
ENDROOT
BRANCH   1   3
HETATM    3  O   UNK N   1      28.067  24.005  -7.079  0.00  0.00    -0.254 OA
BRANCH   3   4
HETATM    4  C   UNK N   1      28.421  23.547  -5.867  0.00  0.00     0.081 A 
HETATM    5  C   UNK N   1      29.196  22.387  -5.781  0.00  0.00     0.040 A 
HETATM    6  C   UNK N   1      29.851  22.075  -4.589  0.00  0.00     0.039 A 
HETATM    7  C   UNK N   1      29.739  22.925  -3.478  0.00  0.00     0.103 A 
HETATM    8  C   UNK N   1      28.889  24.040  -3.547  0.00  0.00     0.039 A 
HETATM    9  C   UNK N   1      28.235  24.350  -4.737  0.00  0.00     0.040 A 
BRANCH   7  10
HETATM   10  N   UNK N   1      30.542  22.707  -2.326  0.00  0.00    -0.116 N 
HETATM   11  O   UNK N   1      30.166  23.076  -1.255  0.00  0.00    -0.532 OA
HETATM   12  O   UNK N   1      31.770  22.251  -2.457  0.00  0.00    -0.532 OA
ENDBRANCH   7  10
ENDBRANCH   3   4
ENDBRANCH   1   3
BRANCH   1  13
HETATM   13  O   UNK N   1      25.461  23.175  -6.248  0.00  0.00    -0.307 OA
HETATM   14  H   UNK N   1      25.235  22.696  -5.437  0.00  0.00     0.222 HD
ENDBRANCH   1  13
BRANCH   1  15
HETATM   15  O   UNK N   1      25.720  25.694  -7.548  0.00  0.00    -0.254 OA
BRANCH  15  16
HETATM   16  C   UNK N   1      25.907  26.672  -6.639  0.00  0.00     0.081 A 
HETATM   17  C   UNK N   1      24.984  26.802  -5.600  0.00  0.00     0.040 A 
HETATM   18  C   UNK N   1      25.181  27.748  -4.595  0.00  0.00     0.039 A 
HETATM   19  C   UNK N   1      26.302  28.591  -4.627  0.00  0.00     0.103 A 
HETATM   20  C   UNK N   1      27.219  28.476  -5.682  0.00  0.00     0.039 A 
HETATM   21  C   UNK N   1      27.028  27.516  -6.679  0.00  0.00     0.040 A 
BRANCH  19  22
HETATM   22  N   UNK N   1      26.510  29.547  -3.596  0.00  0.00    -0.116 N 
HETATM   23  O   UNK N   1      26.936  29.208  -2.535  0.00  0.00    -0.532 OA
HETATM   24  O   UNK N   1      26.246  30.819  -3.811  0.00  0.00    -0.532 OA
ENDBRANCH  19  22
ENDBRANCH  15  16
ENDBRANCH   1  15
TORSDOF 7
ENDMDL
MODEL 2
REMARK VINA RESULT:      -7.0     18.991     22.440
REMARK  7 active torsions:
REMARK  status: ('A' for Active; 'I' for Inactive)
REMARK    1  A    between atoms: C_3  and  N_4 
REMARK    2  A    between atoms: C_9  and  O_10 
REMARK    3  A    between atoms: O_10  and  P_11 
REMARK    4  A    between atoms: P_11  and  O_12 
REMARK    5  A    between atoms: P_11  and  O_14 
REMARK    6  A    between atoms: O_14  and  C_15 
REMARK    7  A    between atoms: C_18  and  N_19 
ROOT
HETATM    1  P   UNK N   1      35.635  12.744  11.841  0.00  0.00     0.403 P 
HETATM    2  O   UNK N   1      36.908  13.347  11.184  0.00  0.00    -0.631 OA
ENDROOT
BRANCH   1   3
HETATM    3  O   UNK N   1      36.119  12.083  13.361  0.00  0.00    -0.254 OA
BRANCH   3   4
HETATM    4  C   UNK N   1      35.780  12.793  14.451  0.00  0.00     0.081 A 
HETATM    5  C   UNK N   1      34.659  12.405  15.190  0.00  0.00     0.040 A 
HETATM    6  C   UNK N   1      34.475  12.897  16.482  0.00  0.00     0.039 A 
HETATM    7  C   UNK N   1      35.415  13.775  17.044  0.00  0.00     0.103 A 
HETATM    8  C   UNK N   1      36.489  14.226  16.263  0.00  0.00     0.039 A 
HETATM    9  C   UNK N   1      36.673  13.735  14.972  0.00  0.00     0.040 A 
BRANCH   7  10
HETATM   10  N   UNK N   1      35.325  14.136  18.416  0.00  0.00    -0.116 N 
HETATM   11  O   UNK N   1      35.246  15.285  18.730  0.00  0.00    -0.532 OA
HETATM   12  O   UNK N   1      35.497  13.223  19.349  0.00  0.00    -0.532 OA
ENDBRANCH   7  10
ENDBRANCH   3   4
ENDBRANCH   1   3
BRANCH   1  13
HETATM   13  O   UNK N   1      35.120  11.500  10.747  0.00  0.00    -0.307 OA
HETATM   14  H   UNK N   1      34.590  10.783  10.368  0.00  0.00     0.222 HD
ENDBRANCH   1  13
BRANCH   1  15
HETATM   15  O   UNK N   1      34.505  14.035  11.888  0.00  0.00    -0.254 OA
BRANCH  15  16
HETATM   16  C   UNK N   1      34.498  15.048  10.999  0.00  0.00     0.081 A 
HETATM   17  C   UNK N   1      35.328  16.147  11.234  0.00  0.00     0.040 A 
HETATM   18  C   UNK N   1      35.410  17.181  10.302  0.00  0.00     0.039 A 
HETATM   19  C   UNK N   1      34.647  17.135   9.124  0.00  0.00     0.103 A 
HETATM   20  C   UNK N   1      33.798  16.042   8.898  0.00  0.00     0.039 A 
HETATM   21  C   UNK N   1      33.730  15.000   9.825  0.00  0.00     0.040 A 
BRANCH  19  22
HETATM   22  N   UNK N   1      34.741  18.182   8.168  0.00  0.00    -0.116 N 
HETATM   23  O   UNK N   1      35.145  19.258   8.488  0.00  0.00    -0.532 OA
HETATM   24  O   UNK N   1      34.394  17.967   6.916  0.00  0.00    -0.532 OA
ENDBRANCH  19  22
ENDBRANCH  15  16
ENDBRANCH   1  15
TORSDOF 7
ENDMDL
MODEL 3
REMARK VINA RESULT:      -7.0     19.722     23.755
REMARK  7 active torsions:
REMARK  status: ('A' for Active; 'I' for Inactive)
REMARK    1  A    between atoms: C_3  and  N_4 
REMARK    2  A    between atoms: C_9  and  O_10 
REMARK    3  A    between atoms: O_10  and  P_11 
REMARK    4  A    between atoms: P_11  and  O_12 
REMARK    5  A    between atoms: P_11  and  O_14 
REMARK    6  A    between atoms: O_14  and  C_15 
REMARK    7  A    between atoms: C_18  and  N_19 
ROOT
HETATM    1  P   UNK N   1      35.552  13.157  12.700  0.00  0.00     0.403 P 
HETATM    2  O   UNK N   1      36.040  12.435  11.414  0.00  0.00    -0.631 OA
ENDROOT
BRANCH   1   3
HETATM    3  O   UNK N   1      34.300  14.246  12.221  0.00  0.00    -0.254 OA
BRANCH   3   4
HETATM    4  C   UNK N   1      34.571  15.032  11.165  0.00  0.00     0.081 A 
HETATM    5  C   UNK N   1      33.758  14.946  10.031  0.00  0.00     0.040 A 
HETATM    6  C   UNK N   1      33.798  15.957   9.070  0.00  0.00     0.039 A 
HETATM    7  C   UNK N   1      34.646  17.061   9.241  0.00  0.00     0.103 A 
HETATM    8  C   UNK N   1      35.520  17.095  10.338  0.00  0.00     0.039 A 
HETATM    9  C   UNK N   1      35.481  16.086  11.297  0.00  0.00     0.040 A 
BRANCH   7  10
HETATM   10  N   UNK N   1      34.560  18.173   8.360  0.00  0.00    -0.116 N 
HETATM   11  O   UNK N   1      33.929  18.089   7.349  0.00  0.00    -0.532 OA
HETATM   12  O   UNK N   1      35.306  19.237   8.568  0.00  0.00    -0.532 OA
ENDBRANCH   7  10
ENDBRANCH   3   4
ENDBRANCH   1   3
BRANCH   1  13
HETATM   13  O   UNK N   1      36.944  14.012  13.283  0.00  0.00    -0.307 OA
HETATM   14  H   UNK N   1      37.763  14.197  13.767  0.00  0.00     0.222 HD
ENDBRANCH   1  13
BRANCH   1  15
HETATM   15  O   UNK N   1      35.105  11.897  13.776  0.00  0.00    -0.254 OA
BRANCH  15  16
HETATM   16  C   UNK N   1      35.223  11.987  15.116  0.00  0.00     0.081 A 
HETATM   17  C   UNK N   1      34.962  13.215  15.727  0.00  0.00     0.040 A 
HETATM   18  C   UNK N   1      34.997  13.334  17.116  0.00  0.00     0.039 A 
HETATM   19  C   UNK N   1      35.309  12.222  17.913  0.00  0.00     0.103 A 
HETATM   20  C   UNK N   1      35.593  10.993  17.299  0.00  0.00     0.039 A 
HETATM   21  C   UNK N   1      35.541  10.873  15.909  0.00  0.00     0.040 A 
BRANCH  19  22
HETATM   22  N   UNK N   1      35.332  12.339  19.330  0.00  0.00    -0.116 N 
HETATM   23  O   UNK N   1      35.813  11.478  20.000  0.00  0.00    -0.532 OA
HETATM   24  O   UNK N   1      34.831  13.409  19.912  0.00  0.00    -0.532 OA
ENDBRANCH  19  22
ENDBRANCH  15  16
ENDBRANCH   1  15
TORSDOF 7
ENDMDL
MODEL 4
REMARK VINA RESULT:      -6.9      1.225      5.352
REMARK  7 active torsions:
REMARK  status: ('A' for Active; 'I' for Inactive)
REMARK    1  A    between atoms: C_3  and  N_4 
REMARK    2  A    between atoms: C_9  and  O_10 
REMARK    3  A    between atoms: O_10  and  P_11 
REMARK    4  A    between atoms: P_11  and  O_12 
REMARK    5  A    between atoms: P_11  and  O_14 
REMARK    6  A    between atoms: O_14  and  C_15 
REMARK    7  A    between atoms: C_18  and  N_19 
ROOT
HETATM    1  P   UNK N   1      25.900  24.102  -7.891  0.00  0.00     0.403 P 
HETATM    2  O   UNK N   1      24.610  23.609  -8.603  0.00  0.00    -0.631 OA
ENDROOT
BRANCH   1   3
HETATM    3  O   UNK N   1      26.035  25.794  -8.207  0.00  0.00    -0.254 OA
BRANCH   3   4
HETATM    4  C   UNK N   1      26.080  26.597  -7.131  0.00  0.00     0.081 A 
HETATM    5  C   UNK N   1      24.896  26.874  -6.442  0.00  0.00     0.040 A 
HETATM    6  C   UNK N   1      24.950  27.414  -5.157  0.00  0.00     0.039 A 
HETATM    7  C   UNK N   1      26.189  27.674  -4.552  0.00  0.00     0.103 A 
HETATM    8  C   UNK N   1      27.369  27.475  -5.284  0.00  0.00     0.039 A 
HETATM    9  C   UNK N   1      27.315  26.936  -6.567  0.00  0.00     0.040 A 
BRANCH   7  10
HETATM   10  N   UNK N   1      26.251  28.055  -3.184  0.00  0.00    -0.116 N 
HETATM   11  O   UNK N   1      26.709  29.114  -2.876  0.00  0.00    -0.532 OA
HETATM   12  O   UNK N   1      25.960  27.180  -2.244  0.00  0.00    -0.532 OA
ENDBRANCH   7  10
ENDBRANCH   3   4
ENDBRANCH   1   3
BRANCH   1  13
HETATM   13  O   UNK N   1      27.187  23.214  -8.642  0.00  0.00    -0.307 OA
HETATM   14  H   UNK N   1      27.753  22.841  -9.335  0.00  0.00     0.222 HD
ENDBRANCH   1  13
BRANCH   1  15
HETATM   15  O   UNK N   1      25.705  23.640  -6.249  0.00  0.00    -0.254 OA
BRANCH  15  16
HETATM   16  C   UNK N   1      26.710  23.652  -5.350  0.00  0.00     0.081 A 
HETATM   17  C   UNK N   1      27.994  23.314  -5.781  0.00  0.00     0.040 A 
HETATM   18  C   UNK N   1      29.075  23.388  -4.903  0.00  0.00     0.039 A 
HETATM   19  C   UNK N   1      28.880  23.789  -3.572  0.00  0.00     0.103 A 
HETATM   20  C   UNK N   1      27.586  24.107  -3.133  0.00  0.00     0.039 A 
HETATM   21  C   UNK N   1      26.508  24.048  -4.018  0.00  0.00     0.040 A 
BRANCH  19  22
HETATM   22  N   UNK N   1      29.983  23.877  -2.680  0.00  0.00    -0.116 N 
HETATM   23  O   UNK N   1      30.810  24.725  -2.824  0.00  0.00    -0.532 OA
HETATM   24  O   UNK N   1      30.093  23.029  -1.679  0.00  0.00    -0.532 OA
ENDBRANCH  19  22
ENDBRANCH  15  16
ENDBRANCH   1  15
TORSDOF 7
ENDMDL
MODEL 5
REMARK VINA RESULT:      -6.6     10.734     14.432
REMARK  7 active torsions:
REMARK  status: ('A' for Active; 'I' for Inactive)
REMARK    1  A    between atoms: C_3  and  N_4 
REMARK    2  A    between atoms: C_9  and  O_10 
REMARK    3  A    between atoms: O_10  and  P_11 
REMARK    4  A    between atoms: P_11  and  O_12 
REMARK    5  A    between atoms: P_11  and  O_14 
REMARK    6  A    between atoms: O_14  and  C_15 
REMARK    7  A    between atoms: C_18  and  N_19 
ROOT
HETATM    1  P   UNK N   1      27.499  18.463   5.505  0.00  0.00     0.403 P 
HETATM    2  O   UNK N   1      28.560  19.384   4.841  0.00  0.00    -0.631 OA
ENDROOT
BRANCH   1   3
HETATM    3  O   UNK N   1      26.409  17.971   4.259  0.00  0.00    -0.254 OA
BRANCH   3   4
HETATM    4  C   UNK N   1      25.328  18.748   4.078  0.00  0.00     0.081 A 
HETATM    5  C   UNK N   1      25.452  19.916   3.320  0.00  0.00     0.040 A 
HETATM    6  C   UNK N   1      24.310  20.555   2.837  0.00  0.00     0.039 A 
HETATM    7  C   UNK N   1      23.038  20.027   3.105  0.00  0.00     0.103 A 
HETATM    8  C   UNK N   1      22.920  18.905   3.939  0.00  0.00     0.039 A 
HETATM    9  C   UNK N   1      24.060  18.266   4.421  0.00  0.00     0.040 A 
BRANCH   7  10
HETATM   10  N   UNK N   1      21.889  20.571   2.470  0.00  0.00    -0.116 N 
HETATM   11  O   UNK N   1      20.946  20.906   3.122  0.00  0.00    -0.532 OA
HETATM   12  O   UNK N   1      21.792  20.554   1.158  0.00  0.00    -0.532 OA
ENDBRANCH   7  10
ENDBRANCH   3   4
ENDBRANCH   1   3
BRANCH   1  13
HETATM   13  O   UNK N   1      26.708  19.471   6.675  0.00  0.00    -0.307 OA
HETATM   14  H   UNK N   1      26.356  19.777   7.524  0.00  0.00     0.222 HD
ENDBRANCH   1  13
BRANCH   1  15
HETATM   15  O   UNK N   1      28.404  17.221   6.270  0.00  0.00    -0.254 OA
BRANCH  15  16
HETATM   16  C   UNK N   1      29.689  17.367   6.651  0.00  0.00     0.081 A 
HETATM   17  C   UNK N   1      29.955  17.748   7.968  0.00  0.00     0.040 A 
HETATM   18  C   UNK N   1      31.269  17.835   8.426  0.00  0.00     0.039 A 
HETATM   19  C   UNK N   1      32.339  17.554   7.562  0.00  0.00     0.103 A 
HETATM   20  C   UNK N   1      32.074  17.193   6.234  0.00  0.00     0.039 A 
HETATM   21  C   UNK N   1      30.756  17.090   5.782  0.00  0.00     0.040 A 
BRANCH  19  22
HETATM   22  N   UNK N   1      33.678  17.630   8.033  0.00  0.00    -0.116 N 
HETATM   23  O   UNK N   1      33.960  17.231   9.121  0.00  0.00    -0.532 OA
HETATM   24  O   UNK N   1      34.622  18.131   7.262  0.00  0.00    -0.532 OA
ENDBRANCH  19  22
ENDBRANCH  15  16
ENDBRANCH   1  15
TORSDOF 7
ENDMDL
MODEL 6
REMARK VINA RESULT:      -6.5     15.643     18.272
REMARK  7 active torsions:
REMARK  status: ('A' for Active; 'I' for Inactive)
REMARK    1  A    between atoms: C_3  and  N_4 
REMARK    2  A    between atoms: C_9  and  O_10 
REMARK    3  A    between atoms: O_10  and  P_11 
REMARK    4  A    between atoms: P_11  and  O_12 
REMARK    5  A    between atoms: P_11  and  O_14 
REMARK    6  A    between atoms: O_14  and  C_15 
REMARK    7  A    between atoms: C_18  and  N_19 
ROOT
HETATM    1  P   UNK N   1      20.434  15.493   7.282  0.00  0.00     0.403 P 
HETATM    2  O   UNK N   1      20.949  16.271   8.525  0.00  0.00    -0.631 OA
ENDROOT
BRANCH   1   3
HETATM    3  O   UNK N   1      21.511  15.853   5.982  0.00  0.00    -0.254 OA
BRANCH   3   4
HETATM    4  C   UNK N   1      21.156  16.874   5.184  0.00  0.00     0.081 A 
HETATM    5  C   UNK N   1      21.376  18.184   5.620  0.00  0.00     0.040 A 
HETATM    6  C   UNK N   1      21.334  19.237   4.706  0.00  0.00     0.039 A 
HETATM    7  C   UNK N   1      21.079  18.985   3.349  0.00  0.00     0.103 A 
HETATM    8  C   UNK N   1      20.773  17.679   2.937  0.00  0.00     0.039 A 
HETATM    9  C   UNK N   1      20.814  16.628   3.850  0.00  0.00     0.040 A 
BRANCH   7  10
HETATM   10  N   UNK N   1      21.211  20.026   2.391  0.00  0.00    -0.116 N 
HETATM   11  O   UNK N   1      20.850  19.855   1.266  0.00  0.00    -0.532 OA
HETATM   12  O   UNK N   1      21.881  21.118   2.694  0.00  0.00    -0.532 OA
ENDBRANCH   7  10
ENDBRANCH   3   4
ENDBRANCH   1   3
BRANCH   1  13
HETATM   13  O   UNK N   1      18.849  16.133   6.986  0.00  0.00    -0.307 OA
HETATM   14  H   UNK N   1      18.137  16.652   6.581  0.00  0.00     0.222 HD
ENDBRANCH   1  13
BRANCH   1  15
HETATM   15  O   UNK N   1      20.355  13.854   7.786  0.00  0.00    -0.254 OA
BRANCH  15  16
HETATM   16  C   UNK N   1      21.079  13.356   8.808  0.00  0.00     0.081 A 
HETATM   17  C   UNK N   1      22.439  13.112   8.607  0.00  0.00     0.040 A 
HETATM   18  C   UNK N   1      23.240  12.670   9.659  0.00  0.00     0.039 A 
HETATM   19  C   UNK N   1      22.684  12.453  10.929  0.00  0.00     0.103 A 
HETATM   20  C   UNK N   1      21.313  12.677  11.127  0.00  0.00     0.039 A 
HETATM   21  C   UNK N   1      20.516  13.135  10.076  0.00  0.00     0.040 A 
BRANCH  19  22
HETATM   22  N   UNK N   1      23.503  12.015  12.005  0.00  0.00    -0.116 N 
HETATM   23  O   UNK N   1      23.015  11.703  13.048  0.00  0.00    -0.532 OA
HETATM   24  O   UNK N   1      24.809  11.940  11.853  0.00  0.00    -0.532 OA
ENDBRANCH  19  22
ENDBRANCH  15  16
ENDBRANCH   1  15
TORSDOF 7
ENDMDL
MODEL 7
REMARK VINA RESULT:      -6.5      1.206      5.801
REMARK  7 active torsions:
REMARK  status: ('A' for Active; 'I' for Inactive)
REMARK    1  A    between atoms: C_3  and  N_4 
REMARK    2  A    between atoms: C_9  and  O_10 
REMARK    3  A    between atoms: O_10  and  P_11 
REMARK    4  A    between atoms: P_11  and  O_12 
REMARK    5  A    between atoms: P_11  and  O_14 
REMARK    6  A    between atoms: O_14  and  C_15 
REMARK    7  A    between atoms: C_18  and  N_19 
ROOT
HETATM    1  P   UNK N   1      27.173  24.347  -7.660  0.00  0.00     0.403 P 
HETATM    2  O   UNK N   1      27.319  22.985  -8.393  0.00  0.00    -0.631 OA
ENDROOT
BRANCH   1   3
HETATM    3  O   UNK N   1      25.969  24.136  -6.440  0.00  0.00    -0.254 OA
BRANCH   3   4
HETATM    4  C   UNK N   1      25.795  25.165  -5.595  0.00  0.00     0.081 A 
HETATM    5  C   UNK N   1      26.318  25.077  -4.302  0.00  0.00     0.040 A 
HETATM    6  C   UNK N   1      26.449  26.228  -3.525  0.00  0.00     0.039 A 
HETATM    7  C   UNK N   1      26.062  27.475  -4.039  0.00  0.00     0.103 A 
HETATM    8  C   UNK N   1      25.457  27.541  -5.304  0.00  0.00     0.039 A 
HETATM    9  C   UNK N   1      25.327  26.391  -6.079  0.00  0.00     0.040 A 
BRANCH   7  10
HETATM   10  N   UNK N   1      26.357  28.667  -3.324  0.00  0.00    -0.116 N 
HETATM   11  O   UNK N   1      26.137  29.732  -3.817  0.00  0.00    -0.532 OA
HETATM   12  O   UNK N   1      27.024  28.606  -2.191  0.00  0.00    -0.532 OA
ENDBRANCH   7  10
ENDBRANCH   3   4
ENDBRANCH   1   3
BRANCH   1  13
HETATM   13  O   UNK N   1      26.642  25.454  -8.886  0.00  0.00    -0.307 OA
HETATM   14  H   UNK N   1      26.052  26.005  -9.422  0.00  0.00     0.222 HD
ENDBRANCH   1  13
BRANCH   1  15
HETATM   15  O   UNK N   1      28.756  24.734  -7.121  0.00  0.00    -0.254 OA
BRANCH  15  16
HETATM   16  C   UNK N   1      29.304  24.223  -6.000  0.00  0.00     0.081 A 
HETATM   17  C   UNK N   1      29.887  25.099  -5.083  0.00  0.00     0.040 A 
HETATM   18  C   UNK N   1      30.396  24.622  -3.876  0.00  0.00     0.039 A 
HETATM   19  C   UNK N   1      30.341  23.252  -3.577  0.00  0.00     0.103 A 
HETATM   20  C   UNK N   1      29.776  22.368  -4.508  0.00  0.00     0.039 A 
HETATM   21  C   UNK N   1      29.252  22.850  -5.709  0.00  0.00     0.040 A 
BRANCH  19  22
HETATM   22  N   UNK N   1      30.848  22.766  -2.341  0.00  0.00    -0.116 N 
HETATM   23  O   UNK N   1      31.829  22.089  -2.315  0.00  0.00    -0.532 OA
HETATM   24  O   UNK N   1      30.243  23.074  -1.212  0.00  0.00    -0.532 OA
ENDBRANCH  19  22
ENDBRANCH  15  16
ENDBRANCH   1  15
TORSDOF 7
ENDMDL
MODEL 8
REMARK VINA RESULT:      -6.5     19.138     22.614
REMARK  7 active torsions:
REMARK  status: ('A' for Active; 'I' for Inactive)
REMARK    1  A    between atoms: C_3  and  N_4 
REMARK    2  A    between atoms: C_9  and  O_10 
REMARK    3  A    between atoms: O_10  and  P_11 
REMARK    4  A    between atoms: P_11  and  O_12 
REMARK    5  A    between atoms: P_11  and  O_14 
REMARK    6  A    between atoms: O_14  and  C_15 
REMARK    7  A    between atoms: C_18  and  N_19 
ROOT
HETATM    1  P   UNK N   1      35.914  12.552  11.983  0.00  0.00     0.403 P 
HETATM    2  O   UNK N   1      35.803  11.111  11.414  0.00  0.00    -0.631 OA
ENDROOT
BRANCH   1   3
HETATM    3  O   UNK N   1      36.824  12.447  13.446  0.00  0.00    -0.254 OA
BRANCH   3   4
HETATM    4  C   UNK N   1      36.258  12.991  14.537  0.00  0.00     0.081 A 
HETATM    5  C   UNK N   1      35.320  12.247  15.257  0.00  0.00     0.040 A 
HETATM    6  C   UNK N   1      34.970  12.635  16.551  0.00  0.00     0.039 A 
HETATM    7  C   UNK N   1      35.562  13.766  17.133  0.00  0.00     0.103 A 
HETATM    8  C   UNK N   1      36.436  14.556  16.370  0.00  0.00     0.039 A 
HETATM    9  C   UNK N   1      36.784  14.169  15.079  0.00  0.00     0.040 A 
BRANCH   7  10
HETATM   10  N   UNK N   1      35.344  14.061  18.506  0.00  0.00    -0.116 N 
HETATM   11  O   UNK N   1      35.228  13.175  19.298  0.00  0.00    -0.532 OA
HETATM   12  O   UNK N   1      35.104  15.299  18.883  0.00  0.00    -0.532 OA
ENDBRANCH   7  10
ENDBRANCH   3   4
ENDBRANCH   1   3
BRANCH   1  13
HETATM   13  O   UNK N   1      34.275  13.033  12.291  0.00  0.00    -0.307 OA
HETATM   14  H   UNK N   1      33.514  13.600  12.487  0.00  0.00     0.222 HD
ENDBRANCH   1  13
BRANCH   1  15
HETATM   15  O   UNK N   1      36.603  13.480  10.713  0.00  0.00    -0.254 OA
BRANCH  15  16
HETATM   16  C   UNK N   1      36.003  14.558  10.171  0.00  0.00     0.081 A 
HETATM   17  C   UNK N   1      35.912  15.724  10.935  0.00  0.00     0.040 A 
HETATM   18  C   UNK N   1      35.368  16.886  10.386  0.00  0.00     0.039 A 
HETATM   19  C   UNK N   1      34.894  16.890   9.065  0.00  0.00     0.103 A 
HETATM   20  C   UNK N   1      34.965  15.713   8.306  0.00  0.00     0.039 A 
HETATM   21  C   UNK N   1      35.524  14.556   8.851  0.00  0.00     0.040 A 
BRANCH  19  22
HETATM   22  N   UNK N   1      34.353  18.077   8.502  0.00  0.00    -0.116 N 
HETATM   23  O   UNK N   1      33.214  18.114   8.148  0.00  0.00    -0.532 OA
HETATM   24  O   UNK N   1      35.104  19.152   8.379  0.00  0.00    -0.532 OA
ENDBRANCH  19  22
ENDBRANCH  15  16
ENDBRANCH   1  15
TORSDOF 7
ENDMDL
MODEL 9
REMARK VINA RESULT:      -6.4     17.763     20.575
REMARK  7 active torsions:
REMARK  status: ('A' for Active; 'I' for Inactive)
REMARK    1  A    between atoms: C_3  and  N_4 
REMARK    2  A    between atoms: C_9  and  O_10 
REMARK    3  A    between atoms: O_10  and  P_11 
REMARK    4  A    between atoms: P_11  and  O_12 
REMARK    5  A    between atoms: P_11  and  O_14 
REMARK    6  A    between atoms: O_14  and  C_15 
REMARK    7  A    between atoms: C_18  and  N_19 
ROOT
HETATM    1  P   UNK N   1      35.679  13.605  13.125  0.00  0.00     0.403 P 
HETATM    2  O   UNK N   1      34.987  12.942  14.349  0.00  0.00    -0.631 OA
ENDROOT
BRANCH   1   3
HETATM    3  O   UNK N   1      36.747  12.426  12.453  0.00  0.00    -0.254 OA
BRANCH   3   4
HETATM    4  C   UNK N   1      36.936  12.488  11.124  0.00  0.00     0.081 A 
HETATM    5  C   UNK N   1      36.069  11.786  10.282  0.00  0.00     0.040 A 
HETATM    6  C   UNK N   1      36.026  12.088   8.921  0.00  0.00     0.039 A 
HETATM    7  C   UNK N   1      36.847  13.098   8.395  0.00  0.00     0.103 A 
HETATM    8  C   UNK N   1      37.776  13.735   9.231  0.00  0.00     0.039 A 
HETATM    9  C   UNK N   1      37.819  13.434  10.590  0.00  0.00     0.040 A 
BRANCH   7  10
HETATM   10  N   UNK N   1      36.679  13.528   7.051  0.00  0.00    -0.116 N 
HETATM   11  O   UNK N   1      37.229  12.949   6.163  0.00  0.00    -0.532 OA
HETATM   12  O   UNK N   1      36.058  14.660   6.795  0.00  0.00    -0.532 OA
ENDBRANCH   7  10
ENDBRANCH   3   4
ENDBRANCH   1   3
BRANCH   1  13
HETATM   13  O   UNK N   1      36.556  14.948  13.786  0.00  0.00    -0.307 OA
HETATM   14  H   UNK N   1      36.759  15.724  14.330  0.00  0.00     0.222 HD
ENDBRANCH   1  13
BRANCH   1  15
HETATM   15  O   UNK N   1      34.392  14.139  12.123  0.00  0.00    -0.254 OA
BRANCH  15  16
HETATM   16  C   UNK N   1      34.540  15.066  11.156  0.00  0.00     0.081 A 
HETATM   17  C   UNK N   1      33.732  14.981  10.020  0.00  0.00     0.040 A 
HETATM   18  C   UNK N   1      33.797  15.963   9.032  0.00  0.00     0.039 A 
HETATM   19  C   UNK N   1      34.688  17.039   9.162  0.00  0.00     0.103 A 
HETATM   20  C   UNK N   1      35.516  17.114  10.291  0.00  0.00     0.039 A 
HETATM   21  C   UNK N   1      35.437  16.138  11.288  0.00  0.00     0.040 A 
BRANCH  19  22
HETATM   22  N   UNK N   1      34.746  18.047   8.161  0.00  0.00    -0.116 N 
HETATM   23  O   UNK N   1      34.456  17.795   7.032  0.00  0.00    -0.532 OA
HETATM   24  O   UNK N   1      35.108  19.273   8.478  0.00  0.00    -0.532 OA
ENDBRANCH  19  22
ENDBRANCH  15  16
ENDBRANCH   1  15
TORSDOF 7
ENDMDL
