REMARK  7 active torsions:
REMARK  status: ('A' for Active; 'I' for Inactive)
REMARK    1  A    between atoms: C_8  and  O_9 
REMARK    2  A    between atoms: O_9  and  C_10 
REMARK    3  A    between atoms: C_10  and  C_11 
REMARK    4  A    between atoms: C_11  and  O_12 
REMARK    5  A    between atoms: C_11  and  C_14 
REMARK       I    between atoms: C_14  and  N_16 
REMARK    6  A    between atoms: N_16  and  C_17 
REMARK    7  A    between atoms: C_24  and  C_25 
ROOT
HETATM    1  C   UNK N   1       2.741  -0.227  -0.158  0.00  0.00     0.035 A 
HETATM    2  C   UNK N   1       2.863   1.122  -0.160  0.00  0.00     0.047 A 
HETATM    3  C   UNK N   1       3.896  -1.011  -0.081  0.00  0.00     0.031 A 
HETATM    4  C   UNK N   1       5.144  -0.345  -0.004  0.00  0.00     0.026 A 
HETATM    5  C   UNK N   1       5.194   1.076   0.018  0.00  0.00     0.059 A 
HETATM    6  C   UNK N   1       6.450   1.760   0.035  0.00  0.00     0.100 C 
HETATM    7  N   UNK N   1       7.440   2.355   0.046  0.00  0.00    -0.191 NA
HETATM    8  C   UNK N   1       3.992   1.805  -0.038  0.00  0.00     0.070 A 
ENDROOT
BRANCH   8   9
HETATM    9  C   UNK N   1       3.742   3.282   0.046  0.00  0.00     0.419 C 
HETATM   10  F   UNK N   1       3.455   3.777  -1.209  0.00  0.00    -0.166 F 
HETATM   11  F   UNK N   1       4.799   3.961   0.598  0.00  0.00    -0.166 F 
HETATM   12  F   UNK N   1       2.600   3.494   0.823  0.00  0.00    -0.166 F 
ENDBRANCH   8   9
BRANCH   1  13
HETATM   13  N   UNK N   1       1.426  -0.716  -0.297  0.00  0.00    -0.325 N 
HETATM   14  C   UNK N   1       0.368   0.122  -0.032  0.00  0.00     0.258 C 
HETATM   15  O   UNK N   1       0.514   1.172   0.595  0.00  0.00    -0.270 OA
HETATM   16  H   UNK N   1       1.267  -1.646  -0.579  0.00  0.00     0.169 HD
BRANCH  14  17
HETATM   17  C   UNK N   1      -0.981  -0.241  -0.373  0.00  0.00     0.156 C 
HETATM   18  C   UNK N   1      -1.677   0.977  -1.008  0.00  0.00     0.059 C 
BRANCH  17  19
HETATM   19  C   UNK N   1      -1.491  -0.608   0.999  0.00  0.00     0.223 C 
BRANCH  19  20
HETATM   20  O   UNK N   1      -2.785  -0.243   1.086  0.00  0.00    -0.348 OA
BRANCH  20  21
HETATM   21  C   UNK N   1      -3.739  -1.018   0.588  0.00  0.00     0.071 A 
HETATM   22  C   UNK N   1      -3.526  -2.391   0.386  0.00  0.00     0.080 A 
HETATM   23  C   UNK N   1      -4.582  -3.194  -0.006  0.00  0.00     0.140 A 
HETATM   24  F   UNK N   1      -4.392  -4.529  -0.130  0.00  0.00    -0.204 F 
HETATM   25  C   UNK N   1      -5.845  -2.619  -0.199  0.00  0.00     0.072 A 
HETATM   26 Cl   UNK N   1      -7.233  -3.617  -0.518  0.00  0.00    -0.081 Cl
HETATM   27  C   UNK N   1      -6.024  -1.240  -0.072  0.00  0.00     0.030 A 
HETATM   28  C   UNK N   1      -4.967  -0.441   0.322  0.00  0.00     0.038 A 
ENDBRANCH  20  21
ENDBRANCH  19  20
ENDBRANCH  17  19
BRANCH  17  29
HETATM   29  O   UNK N   1      -1.023  -1.319  -1.257  0.00  0.00    -0.378 OA
HETATM   30  H   UNK N   1      -1.686  -1.668  -1.872  0.00  0.00     0.211 HD
ENDBRANCH  17  29
ENDBRANCH  14  17
ENDBRANCH   1  13
TORSDOF 7
