MODEL 1
REMARK VINA RESULT:      -7.4      0.000      0.000
REMARK  7 active torsions:
REMARK  status: ('A' for Active; 'I' for Inactive)
REMARK    1  A    between atoms: C_8  and  O_9 
REMARK    2  A    between atoms: O_9  and  C_10 
REMARK    3  A    between atoms: C_10  and  C_11 
REMARK    4  A    between atoms: C_11  and  O_12 
REMARK    5  A    between atoms: C_11  and  C_14 
REMARK       I    between atoms: C_14  and  N_16 
REMARK    6  A    between atoms: N_16  and  C_17 
REMARK    7  A    between atoms: C_24  and  C_25 
ROOT
HETATM    1  C   UNK N   1      28.627  22.549  -6.724  0.00  0.00     0.035 A 
HETATM    2  C   UNK N   1      28.593  23.385  -5.659  0.00  0.00     0.047 A 
HETATM    3  C   UNK N   1      29.475  21.438  -6.685  0.00  0.00     0.031 A 
HETATM    4  C   UNK N   1      30.258  21.243  -5.520  0.00  0.00     0.026 A 
HETATM    5  C   UNK N   1      30.148  22.147  -4.428  0.00  0.00     0.059 A 
HETATM    6  C   UNK N   1      30.976  21.996  -3.271  0.00  0.00     0.100 C 
HETATM    7  N   UNK N   1      31.625  21.914  -2.319  0.00  0.00    -0.191 NA
HETATM    8  C   UNK N   1      29.257  23.232  -4.523  0.00  0.00     0.070 A 
ENDROOT
BRANCH   8   9
HETATM    9  C   UNK N   1      28.884  24.280  -3.516  0.00  0.00     0.419 C 
HETATM   10  F   UNK N   1      30.007  24.994  -3.151  0.00  0.00    -0.166 F 
HETATM   11  F   UNK N   1      28.275  23.747  -2.408  0.00  0.00    -0.166 F 
HETATM   12  F   UNK N   1      28.019  25.192  -4.125  0.00  0.00    -0.166 F 
ENDBRANCH   8   9
BRANCH   1  13
HETATM   13  N   UNK N   1      27.824  22.928  -7.819  0.00  0.00    -0.325 N 
HETATM   14  C   UNK N   1      26.494  22.576  -7.827  0.00  0.00     0.258 C 
HETATM   15  O   UNK N   1      26.049  21.706  -7.078  0.00  0.00    -0.270 OA
HETATM   16  H   UNK N   1      28.210  23.438  -8.568  0.00  0.00     0.169 HD
BRANCH  14  17
HETATM   17  C   UNK N   1      25.579  23.125  -8.792  0.00  0.00     0.156 C 
HETATM   18  C   UNK N   1      25.979  22.629 -10.193  0.00  0.00     0.059 C 
BRANCH  17  19
HETATM   19  C   UNK N   1      25.824  24.595  -8.555  0.00  0.00     0.223 C 
BRANCH  19  20
HETATM   20  O   UNK N   1      25.446  24.894  -7.296  0.00  0.00    -0.348 OA
BRANCH  20  21
HETATM   21  C   UNK N   1      25.791  26.050  -6.745  0.00  0.00     0.071 A 
HETATM   22  C   UNK N   1      25.184  26.499  -5.562  0.00  0.00     0.080 A 
HETATM   23  C   UNK N   1      25.661  27.639  -4.941  0.00  0.00     0.140 A 
HETATM   24  F   UNK N   1      25.122  28.030  -3.762  0.00  0.00    -0.204 F 
HETATM   25  C   UNK N   1      26.740  28.328  -5.511  0.00  0.00     0.072 A 
HETATM   26 Cl   UNK N   1      27.482  29.660  -4.673  0.00  0.00    -0.081 Cl
HETATM   27  C   UNK N   1      27.282  27.916  -6.730  0.00  0.00     0.030 A 
HETATM   28  C   UNK N   1      26.804  26.774  -7.346  0.00  0.00     0.038 A 
ENDBRANCH  20  21
ENDBRANCH  19  20
ENDBRANCH  17  19
BRANCH  17  29
HETATM   29  O   UNK N   1      24.260  22.760  -8.524  0.00  0.00    -0.378 OA
HETATM   30  H   UNK N   1      23.398  23.187  -8.646  0.00  0.00     0.211 HD
ENDBRANCH  17  29
ENDBRANCH  14  17
ENDBRANCH   1  13
TORSDOF 7
ENDMDL
MODEL 2
REMARK VINA RESULT:      -7.3     16.765     20.507
REMARK  7 active torsions:
REMARK  status: ('A' for Active; 'I' for Inactive)
REMARK    1  A    between atoms: C_8  and  O_9 
REMARK    2  A    between atoms: O_9  and  C_10 
REMARK    3  A    between atoms: C_10  and  C_11 
REMARK    4  A    between atoms: C_11  and  O_12 
REMARK    5  A    between atoms: C_11  and  C_14 
REMARK       I    between atoms: C_14  and  N_16 
REMARK    6  A    between atoms: N_16  and  C_17 
REMARK    7  A    between atoms: C_24  and  C_25 
ROOT
HETATM    1  C   UNK N   1      32.162  17.254   8.169  0.00  0.00     0.035 A 
HETATM    2  C   UNK N   1      30.999  17.623   8.756  0.00  0.00     0.047 A 
HETATM    3  C   UNK N   1      32.155  16.901   6.816  0.00  0.00     0.031 A 
HETATM    4  C   UNK N   1      30.920  16.954   6.124  0.00  0.00     0.026 A 
HETATM    5  C   UNK N   1      29.742  17.379   6.799  0.00  0.00     0.059 A 
HETATM    6  C   UNK N   1      28.479  17.379   6.129  0.00  0.00     0.100 C 
HETATM    7  N   UNK N   1      27.437  17.393   5.629  0.00  0.00    -0.191 NA
HETATM    8  C   UNK N   1      29.823  17.743   8.156  0.00  0.00     0.070 A 
ENDROOT
BRANCH   8   9
HETATM    9  C   UNK N   1      28.780  18.294   9.082  0.00  0.00     0.419 C 
HETATM   10  F   UNK N   1      27.941  17.279   9.493  0.00  0.00    -0.166 F 
HETATM   11  F   UNK N   1      28.056  19.310   8.510  0.00  0.00    -0.166 F 
HETATM   12  F   UNK N   1      29.415  18.769  10.232  0.00  0.00    -0.166 F 
ENDBRANCH   8   9
BRANCH   1  13
HETATM   13  N   UNK N   1      33.283  17.206   9.023  0.00  0.00    -0.325 N 
HETATM   14  C   UNK N   1      33.765  15.982   9.427  0.00  0.00     0.258 C 
HETATM   15  O   UNK N   1      33.096  14.954   9.319  0.00  0.00    -0.270 OA
HETATM   16  H   UNK N   1      33.714  18.037   9.327  0.00  0.00     0.169 HD
BRANCH  14  17
HETATM   17  C   UNK N   1      35.028  15.859  10.103  0.00  0.00     0.156 C 
HETATM   18  C   UNK N   1      35.995  15.066   9.205  0.00  0.00     0.059 C 
BRANCH  17  19
HETATM   19  C   UNK N   1      34.575  15.122  11.339  0.00  0.00     0.223 C 
BRANCH  19  20
HETATM   20  O   UNK N   1      35.511  14.208  11.659  0.00  0.00    -0.348 OA
BRANCH  20  21
HETATM   21  C   UNK N   1      35.626  13.769  12.905  0.00  0.00     0.071 A 
HETATM   22  C   UNK N   1      36.466  14.414  13.827  0.00  0.00     0.080 A 
HETATM   23  C   UNK N   1      36.460  14.014  15.151  0.00  0.00     0.140 A 
HETATM   24  F   UNK N   1      37.216  14.685  16.052  0.00  0.00    -0.204 F 
HETATM   25  C   UNK N   1      35.617  12.967  15.546  0.00  0.00     0.072 A 
HETATM   26 Cl   UNK N   1      35.447  12.553  17.227  0.00  0.00    -0.081 Cl
HETATM   27  C   UNK N   1      34.846  12.282  14.605  0.00  0.00     0.030 A 
HETATM   28  C   UNK N   1      34.854  12.686  13.283  0.00  0.00     0.038 A 
ENDBRANCH  20  21
ENDBRANCH  19  20
ENDBRANCH  17  19
BRANCH  17  29
HETATM   29  O   UNK N   1      35.582  17.104  10.404  0.00  0.00    -0.378 OA
HETATM   30  H   UNK N   1      35.399  18.014  10.125  0.00  0.00     0.211 HD
ENDBRANCH  17  29
ENDBRANCH  14  17
ENDBRANCH   1  13
TORSDOF 7
ENDMDL
MODEL 3
REMARK VINA RESULT:      -7.0     15.063     17.035
REMARK  7 active torsions:
REMARK  status: ('A' for Active; 'I' for Inactive)
REMARK    1  A    between atoms: C_8  and  O_9 
REMARK    2  A    between atoms: O_9  and  C_10 
REMARK    3  A    between atoms: C_10  and  C_11 
REMARK    4  A    between atoms: C_11  and  O_12 
REMARK    5  A    between atoms: C_11  and  C_14 
REMARK       I    between atoms: C_14  and  N_16 
REMARK    6  A    between atoms: N_16  and  C_17 
REMARK    7  A    between atoms: C_24  and  C_25 
ROOT
HETATM    1  C   UNK N   1      21.947  17.683   5.567  0.00  0.00     0.035 A 
HETATM    2  C   UNK N   1      21.303  18.369   4.593  0.00  0.00     0.047 A 
HETATM    3  C   UNK N   1      23.336  17.801   5.673  0.00  0.00     0.031 A 
HETATM    4  C   UNK N   1      24.001  18.645   4.750  0.00  0.00     0.026 A 
HETATM    5  C   UNK N   1      23.256  19.358   3.770  0.00  0.00     0.059 A 
HETATM    6  C   UNK N   1      23.921  20.165   2.795  0.00  0.00     0.100 C 
HETATM    7  N   UNK N   1      24.414  20.826   1.987  0.00  0.00    -0.191 NA
HETATM    8  C   UNK N   1      21.857  19.212   3.734  0.00  0.00     0.070 A 
ENDROOT
BRANCH   8   9
HETATM    9  C   UNK N   1      20.828  19.890   2.877  0.00  0.00     0.419 C 
HETATM   10  F   UNK N   1      21.028  19.551   1.555  0.00  0.00    -0.166 F 
HETATM   11  F   UNK N   1      20.837  21.254   3.028  0.00  0.00    -0.166 F 
HETATM   12  F   UNK N   1      19.568  19.394   3.224  0.00  0.00    -0.166 F 
ENDBRANCH   8   9
BRANCH   1  13
HETATM   13  N   UNK N   1      21.132  16.849   6.360  0.00  0.00    -0.325 N 
HETATM   14  C   UNK N   1      20.421  17.400   7.400  0.00  0.00     0.258 C 
HETATM   15  O   UNK N   1      20.687  18.516   7.848  0.00  0.00    -0.270 OA
HETATM   16  H   UNK N   1      21.073  15.884   6.172  0.00  0.00     0.169 HD
BRANCH  14  17
HETATM   17  C   UNK N   1      19.405  16.655   8.094  0.00  0.00     0.156 C 
HETATM   18  C   UNK N   1      18.640  17.610   9.028  0.00  0.00     0.059 C 
BRANCH  17  19
HETATM   19  C   UNK N   1      20.280  15.651   8.804  0.00  0.00     0.223 C 
BRANCH  19  20
HETATM   20  O   UNK N   1      20.028  14.429   8.296  0.00  0.00    -0.348 OA
BRANCH  20  21
HETATM   21  C   UNK N   1      20.997  13.530   8.190  0.00  0.00     0.071 A 
HETATM   22  C   UNK N   1      21.524  12.894   9.325  0.00  0.00     0.080 A 
HETATM   23  C   UNK N   1      22.436  11.866   9.169  0.00  0.00     0.140 A 
HETATM   24  F   UNK N   1      22.888  11.206  10.262  0.00  0.00    -0.204 F 
HETATM   25  C   UNK N   1      22.821  11.482   7.878  0.00  0.00     0.072 A 
HETATM   26 Cl   UNK N   1      23.826  10.084   7.632  0.00  0.00    -0.081 Cl
HETATM   27  C   UNK N   1      22.351  12.176   6.761  0.00  0.00     0.030 A 
HETATM   28  C   UNK N   1      21.437  13.202   6.921  0.00  0.00     0.038 A 
ENDBRANCH  20  21
ENDBRANCH  19  20
ENDBRANCH  17  19
BRANCH  17  29
HETATM   29  O   UNK N   1      18.513  16.046   7.212  0.00  0.00    -0.378 OA
HETATM   30  H   UNK N   1      17.732  16.345   6.721  0.00  0.00     0.211 HD
ENDBRANCH  17  29
ENDBRANCH  14  17
ENDBRANCH   1  13
TORSDOF 7
ENDMDL
MODEL 4
REMARK VINA RESULT:      -6.9     16.518     20.326
REMARK  7 active torsions:
REMARK  status: ('A' for Active; 'I' for Inactive)
REMARK    1  A    between atoms: C_8  and  O_9 
REMARK    2  A    between atoms: O_9  and  C_10 
REMARK    3  A    between atoms: C_10  and  C_11 
REMARK    4  A    between atoms: C_11  and  O_12 
REMARK    5  A    between atoms: C_11  and  C_14 
REMARK       I    between atoms: C_14  and  N_16 
REMARK    6  A    between atoms: N_16  and  C_17 
REMARK    7  A    between atoms: C_24  and  C_25 
ROOT
HETATM    1  C   UNK N   1      32.262  17.109   8.278  0.00  0.00     0.035 A 
HETATM    2  C   UNK N   1      32.579  17.146   6.962  0.00  0.00     0.047 A 
HETATM    3  C   UNK N   1      30.915  17.141   8.651  0.00  0.00     0.031 A 
HETATM    4  C   UNK N   1      29.944  17.209   7.621  0.00  0.00     0.026 A 
HETATM    5  C   UNK N   1      30.350  17.216   6.258  0.00  0.00     0.059 A 
HETATM    6  C   UNK N   1      29.384  17.344   5.211  0.00  0.00     0.100 C 
HETATM    7  N   UNK N   1      28.640  17.449   4.334  0.00  0.00    -0.191 NA
HETATM    8  C   UNK N   1      31.722  17.157   5.951  0.00  0.00     0.070 A 
ENDROOT
BRANCH   8   9
HETATM    9  C   UNK N   1      32.422  17.072   4.627  0.00  0.00     0.419 C 
HETATM   10  F   UNK N   1      32.145  18.198   3.881  0.00  0.00    -0.166 F 
HETATM   11  F   UNK N   1      32.085  15.940   3.928  0.00  0.00    -0.166 F 
HETATM   12  F   UNK N   1      33.801  17.080   4.854  0.00  0.00    -0.166 F 
ENDBRANCH   8   9
BRANCH   1  13
HETATM   13  N   UNK N   1      33.358  17.099   9.164  0.00  0.00    -0.325 N 
HETATM   14  C   UNK N   1      33.925  15.896   9.515  0.00  0.00     0.258 C 
HETATM   15  O   UNK N   1      33.345  14.826   9.327  0.00  0.00    -0.270 OA
HETATM   16  H   UNK N   1      33.712  17.942   9.529  0.00  0.00     0.169 HD
BRANCH  14  17
HETATM   17  C   UNK N   1      35.175  15.834  10.224  0.00  0.00     0.156 C 
HETATM   18  C   UNK N   1      36.179  15.017   9.389  0.00  0.00     0.059 C 
BRANCH  17  19
HETATM   19  C   UNK N   1      34.708  15.150  11.486  0.00  0.00     0.223 C 
BRANCH  19  20
HETATM   20  O   UNK N   1      35.621  14.222  11.833  0.00  0.00    -0.348 OA
BRANCH  20  21
HETATM   21  C   UNK N   1      35.699  13.788  13.083  0.00  0.00     0.071 A 
HETATM   22  C   UNK N   1      36.516  14.434  14.025  0.00  0.00     0.080 A 
HETATM   23  C   UNK N   1      36.471  14.039  15.350  0.00  0.00     0.140 A 
HETATM   24  F   UNK N   1      37.204  14.711  16.270  0.00  0.00    -0.204 F 
HETATM   25  C   UNK N   1      35.612  12.998  15.726  0.00  0.00     0.072 A 
HETATM   26 Cl   UNK N   1      35.394  12.591  17.403  0.00  0.00    -0.081 Cl
HETATM   27  C   UNK N   1      34.865  12.312  14.766  0.00  0.00     0.030 A 
HETATM   28  C   UNK N   1      34.912  12.710  13.443  0.00  0.00     0.038 A 
ENDBRANCH  20  21
ENDBRANCH  19  20
ENDBRANCH  17  19
BRANCH  17  29
HETATM   29  O   UNK N   1      35.696  17.103  10.474  0.00  0.00    -0.378 OA
HETATM   30  H   UNK N   1      35.313  17.988  10.568  0.00  0.00     0.211 HD
ENDBRANCH  17  29
ENDBRANCH  14  17
ENDBRANCH   1  13
TORSDOF 7
ENDMDL
MODEL 5
REMARK VINA RESULT:      -6.8     11.986     13.745
REMARK  7 active torsions:
REMARK  status: ('A' for Active; 'I' for Inactive)
REMARK    1  A    between atoms: C_8  and  O_9 
REMARK    2  A    between atoms: O_9  and  C_10 
REMARK    3  A    between atoms: C_10  and  C_11 
REMARK    4  A    between atoms: C_11  and  O_12 
REMARK    5  A    between atoms: C_11  and  C_14 
REMARK       I    between atoms: C_14  and  N_16 
REMARK    6  A    between atoms: N_16  and  C_17 
REMARK    7  A    between atoms: C_24  and  C_25 
ROOT
HETATM    1  C   UNK N   1      31.449  16.809   4.776  0.00  0.00     0.035 A 
HETATM    2  C   UNK N   1      31.108  16.980   6.075  0.00  0.00     0.047 A 
HETATM    3  C   UNK N   1      32.775  17.026   4.390  0.00  0.00     0.031 A 
HETATM    4  C   UNK N   1      33.701  17.414   5.390  0.00  0.00     0.026 A 
HETATM    5  C   UNK N   1      33.277  17.546   6.741  0.00  0.00     0.059 A 
HETATM    6  C   UNK N   1      34.187  17.995   7.749  0.00  0.00     0.100 C 
HETATM    7  N   UNK N   1      34.885  18.356   8.595  0.00  0.00    -0.191 NA
HETATM    8  C   UNK N   1      31.932  17.289   7.066  0.00  0.00     0.070 A 
ENDROOT
BRANCH   8   9
HETATM    9  C   UNK N   1      31.235  17.273   8.394  0.00  0.00     0.419 C 
HETATM   10  F   UNK N   1      31.282  18.531   8.958  0.00  0.00    -0.166 F 
HETATM   11  F   UNK N   1      31.766  16.344   9.253  0.00  0.00    -0.166 F 
HETATM   12  F   UNK N   1      29.884  16.988   8.182  0.00  0.00    -0.166 F 
ENDBRANCH   8   9
BRANCH   1  13
HETATM   13  N   UNK N   1      30.388  16.476   3.910  0.00  0.00    -0.325 N 
HETATM   14  C   UNK N   1      29.824  15.223   3.991  0.00  0.00     0.258 C 
HETATM   15  O   UNK N   1      30.388  14.295   4.572  0.00  0.00    -0.270 OA
HETATM   16  H   UNK N   1      30.055  17.130   3.254  0.00  0.00     0.169 HD
BRANCH  14  17
HETATM   17  C   UNK N   1      28.602  14.904   3.304  0.00  0.00     0.156 C 
HETATM   18  C   UNK N   1      28.948  14.189   1.985  0.00  0.00     0.059 C 
BRANCH  17  19
HETATM   19  C   UNK N   1      28.045  16.296   3.134  0.00  0.00     0.223 C 
BRANCH  19  20
HETATM   20  O   UNK N   1      27.246  16.568   4.184  0.00  0.00    -0.348 OA
BRANCH  20  21
HETATM   21  C   UNK N   1      27.109  17.812   4.622  0.00  0.00     0.071 A 
HETATM   22  C   UNK N   1      26.172  18.685   4.046  0.00  0.00     0.080 A 
HETATM   23  C   UNK N   1      25.960  19.928   4.613  0.00  0.00     0.140 A 
HETATM   24  F   UNK N   1      25.005  20.740   4.100  0.00  0.00    -0.204 F 
HETATM   25  C   UNK N   1      26.689  20.295   5.752  0.00  0.00     0.072 A 
HETATM   26 Cl   UNK N   1      26.327  21.770   6.598  0.00  0.00    -0.081 Cl
HETATM   27  C   UNK N   1      27.673  19.449   6.267  0.00  0.00     0.030 A 
HETATM   28  C   UNK N   1      27.881  18.206   5.699  0.00  0.00     0.038 A 
ENDBRANCH  20  21
ENDBRANCH  19  20
ENDBRANCH  17  19
BRANCH  17  29
HETATM   29  O   UNK N   1      27.769  14.092   4.073  0.00  0.00    -0.378 OA
HETATM   30  H   UNK N   1      27.916  13.414   4.750  0.00  0.00     0.211 HD
ENDBRANCH  17  29
ENDBRANCH  14  17
ENDBRANCH   1  13
TORSDOF 7
ENDMDL
MODEL 6
REMARK VINA RESULT:      -6.7     19.063     22.411
REMARK  7 active torsions:
REMARK  status: ('A' for Active; 'I' for Inactive)
REMARK    1  A    between atoms: C_8  and  O_9 
REMARK    2  A    between atoms: O_9  and  C_10 
REMARK    3  A    between atoms: C_10  and  C_11 
REMARK    4  A    between atoms: C_11  and  O_12 
REMARK    5  A    between atoms: C_11  and  C_14 
REMARK       I    between atoms: C_14  and  N_16 
REMARK    6  A    between atoms: N_16  and  C_17 
REMARK    7  A    between atoms: C_24  and  C_25 
ROOT
HETATM    1  C   UNK N   1      36.900  12.877  13.775  0.00  0.00     0.035 A 
HETATM    2  C   UNK N   1      36.265  13.242  14.915  0.00  0.00     0.047 A 
HETATM    3  C   UNK N   1      37.390  11.572  13.662  0.00  0.00     0.031 A 
HETATM    4  C   UNK N   1      37.189  10.693  14.755  0.00  0.00     0.026 A 
HETATM    5  C   UNK N   1      36.488  11.138  15.909  0.00  0.00     0.059 A 
HETATM    6  C   UNK N   1      36.332  10.279  17.042  0.00  0.00     0.100 C 
HETATM    7  N   UNK N   1      36.183   9.623  17.981  0.00  0.00    -0.191 NA
HETATM    8  C   UNK N   1      36.000  12.457  15.948  0.00  0.00     0.070 A 
ENDROOT
BRANCH   8   9
HETATM    9  C   UNK N   1      35.172  13.161  16.983  0.00  0.00     0.419 C 
HETATM   10  F   UNK N   1      35.766  14.360  17.317  0.00  0.00    -0.166 F 
HETATM   11  F   UNK N   1      34.977  12.395  18.106  0.00  0.00    -0.166 F 
HETATM   12  F   UNK N   1      33.934  13.478  16.419  0.00  0.00    -0.166 F 
ENDBRANCH   8   9
BRANCH   1  13
HETATM   13  N   UNK N   1      37.058  13.898  12.816  0.00  0.00    -0.325 N 
HETATM   14  C   UNK N   1      36.162  13.984  11.776  0.00  0.00     0.258 C 
HETATM   15  O   UNK N   1      35.415  13.048  11.484  0.00  0.00    -0.270 OA
HETATM   16  H   UNK N   1      37.800  14.540  12.889  0.00  0.00     0.169 HD
BRANCH  14  17
HETATM   17  C   UNK N   1      36.132  15.126  10.904  0.00  0.00     0.156 C 
HETATM   18  C   UNK N   1      35.356  16.261  11.599  0.00  0.00     0.059 C 
BRANCH  17  19
HETATM   19  C   UNK N   1      35.420  14.515   9.722  0.00  0.00     0.223 C 
BRANCH  19  20
HETATM   20  O   UNK N   1      34.320  15.248   9.459  0.00  0.00    -0.348 OA
BRANCH  20  21
HETATM   21  C   UNK N   1      34.181  15.860   8.291  0.00  0.00     0.071 A 
HETATM   22  C   UNK N   1      34.652  15.275   7.105  0.00  0.00     0.080 A 
HETATM   23  C   UNK N   1      34.371  15.875   5.891  0.00  0.00     0.140 A 
HETATM   24  F   UNK N   1      34.763  15.271   4.744  0.00  0.00    -0.204 F 
HETATM   25  C   UNK N   1      33.626  17.061   5.869  0.00  0.00     0.072 A 
HETATM   26 Cl   UNK N   1      33.102  17.750   4.361  0.00  0.00    -0.081 Cl
HETATM   27  C   UNK N   1      33.233  17.674   7.060  0.00  0.00     0.030 A 
HETATM   28  C   UNK N   1      33.513  17.070   8.272  0.00  0.00     0.038 A 
ENDBRANCH  20  21
ENDBRANCH  19  20
ENDBRANCH  17  19
BRANCH  17  29
HETATM   29  O   UNK N   1      37.414  15.567  10.577  0.00  0.00    -0.378 OA
HETATM   30  H   UNK N   1      38.248  15.653  11.064  0.00  0.00     0.211 HD
ENDBRANCH  17  29
ENDBRANCH  14  17
ENDBRANCH   1  13
TORSDOF 7
ENDMDL
MODEL 7
REMARK VINA RESULT:      -6.7     19.995     23.721
REMARK  7 active torsions:
REMARK  status: ('A' for Active; 'I' for Inactive)
REMARK    1  A    between atoms: C_8  and  O_9 
REMARK    2  A    between atoms: O_9  and  C_10 
REMARK    3  A    between atoms: C_10  and  C_11 
REMARK    4  A    between atoms: C_11  and  O_12 
REMARK    5  A    between atoms: C_11  and  C_14 
REMARK       I    between atoms: C_14  and  N_16 
REMARK    6  A    between atoms: N_16  and  C_17 
REMARK    7  A    between atoms: C_24  and  C_25 
ROOT
HETATM    1  C   UNK N   1      34.644  14.746  11.353  0.00  0.00     0.035 A 
HETATM    2  C   UNK N   1      33.768  14.769  10.321  0.00  0.00     0.047 A 
HETATM    3  C   UNK N   1      35.582  15.776  11.468  0.00  0.00     0.031 A 
HETATM    4  C   UNK N   1      35.562  16.801  10.491  0.00  0.00     0.026 A 
HETATM    5  C   UNK N   1      34.594  16.775   9.450  0.00  0.00     0.059 A 
HETATM    6  C   UNK N   1      34.601  17.771   8.423  0.00  0.00     0.100 C 
HETATM    7  N   UNK N   1      34.571  18.552   7.572  0.00  0.00    -0.191 NA
HETATM    8  C   UNK N   1      33.662  15.722   9.406  0.00  0.00     0.070 A 
ENDROOT
BRANCH   8   9
HETATM    9  C   UNK N   1      32.501  15.484   8.487  0.00  0.00     0.419 C 
HETATM   10  F   UNK N   1      31.949  14.247   8.745  0.00  0.00    -0.166 F 
HETATM   11  F   UNK N   1      32.852  15.584   7.164  0.00  0.00    -0.166 F 
HETATM   12  F   UNK N   1      31.509  16.425   8.774  0.00  0.00    -0.166 F 
ENDBRANCH   8   9
BRANCH   1  13
HETATM   13  N   UNK N   1      34.555  13.620  12.198  0.00  0.00    -0.325 N 
HETATM   14  C   UNK N   1      35.408  12.561  11.995  0.00  0.00     0.258 C 
HETATM   15  O   UNK N   1      36.037  12.427  10.944  0.00  0.00    -0.270 OA
HETATM   16  H   UNK N   1      33.889  13.592  12.923  0.00  0.00     0.169 HD
BRANCH  14  17
HETATM   17  C   UNK N   1      35.523  11.495  12.953  0.00  0.00     0.156 C 
HETATM   18  C   UNK N   1      34.785  10.258  12.409  0.00  0.00     0.059 C 
BRANCH  17  19
HETATM   19  C   UNK N   1      34.853  12.153  14.134  0.00  0.00     0.223 C 
BRANCH  19  20
HETATM   20  O   UNK N   1      35.808  12.567  14.991  0.00  0.00    -0.348 OA
BRANCH  20  21
HETATM   21  C   UNK N   1      35.742  12.252  16.277  0.00  0.00     0.071 A 
HETATM   22  C   UNK N   1      35.333  13.194  17.234  0.00  0.00     0.080 A 
HETATM   23  C   UNK N   1      35.145  12.795  18.546  0.00  0.00     0.140 A 
HETATM   24  F   UNK N   1      34.681  13.688  19.452  0.00  0.00    -0.204 F 
HETATM   25  C   UNK N   1      35.373  11.458  18.894  0.00  0.00     0.072 A 
HETATM   26 Cl   UNK N   1      34.980  10.878  20.486  0.00  0.00    -0.081 Cl
HETATM   27  C   UNK N   1      35.856  10.550  17.949  0.00  0.00     0.030 A 
HETATM   28  C   UNK N   1      36.040  10.951  16.639  0.00  0.00     0.038 A 
ENDBRANCH  20  21
ENDBRANCH  19  20
ENDBRANCH  17  19
BRANCH  17  29
HETATM   29  O   UNK N   1      36.854  11.170  13.215  0.00  0.00    -0.378 OA
HETATM   30  H   UNK N   1      37.648  11.681  13.430  0.00  0.00     0.211 HD
ENDBRANCH  17  29
ENDBRANCH  14  17
ENDBRANCH   1  13
TORSDOF 7
ENDMDL
MODEL 8
REMARK VINA RESULT:      -6.7     18.782     22.518
REMARK  7 active torsions:
REMARK  status: ('A' for Active; 'I' for Inactive)
REMARK    1  A    between atoms: C_8  and  O_9 
REMARK    2  A    between atoms: O_9  and  C_10 
REMARK    3  A    between atoms: C_10  and  C_11 
REMARK    4  A    between atoms: C_11  and  O_12 
REMARK    5  A    between atoms: C_11  and  C_14 
REMARK       I    between atoms: C_14  and  N_16 
REMARK    6  A    between atoms: N_16  and  C_17 
REMARK    7  A    between atoms: C_24  and  C_25 
ROOT
HETATM    1  C   UNK N   1      33.597  14.512   9.650  0.00  0.00     0.035 A 
HETATM    2  C   UNK N   1      33.843  15.800   9.313  0.00  0.00     0.047 A 
HETATM    3  C   UNK N   1      32.790  13.735   8.813  0.00  0.00     0.031 A 
HETATM    4  C   UNK N   1      32.270  14.343   7.644  0.00  0.00     0.026 A 
HETATM    5  C   UNK N   1      32.593  15.694   7.339  0.00  0.00     0.059 A 
HETATM    6  C   UNK N   1      32.027  16.337   6.194  0.00  0.00     0.100 C 
HETATM    7  N   UNK N   1      31.592  16.898   5.282  0.00  0.00    -0.191 NA
HETATM    8  C   UNK N   1      33.432  16.412   8.211  0.00  0.00     0.070 A 
ENDROOT
BRANCH   8   9
HETATM    9  C   UNK N   1      33.993  17.799   8.103  0.00  0.00     0.419 C 
HETATM   10  F   UNK N   1      34.452  18.016   6.820  0.00  0.00    -0.166 F 
HETATM   11  F   UNK N   1      34.993  18.031   9.014  0.00  0.00    -0.166 F 
HETATM   12  F   UNK N   1      32.957  18.713   8.310  0.00  0.00    -0.166 F 
ENDBRANCH   8   9
BRANCH   1  13
HETATM   13  N   UNK N   1      34.150  14.091  10.877  0.00  0.00    -0.325 N 
HETATM   14  C   UNK N   1      35.460  13.672  10.912  0.00  0.00     0.258 C 
HETATM   15  O   UNK N   1      36.073  13.371   9.887  0.00  0.00    -0.270 OA
HETATM   16  H   UNK N   1      33.606  14.097  11.697  0.00  0.00     0.169 HD
BRANCH  14  17
HETATM   17  C   UNK N   1      36.144  13.452  12.158  0.00  0.00     0.156 C 
HETATM   18  C   UNK N   1      37.395  12.594  11.892  0.00  0.00     0.059 C 
BRANCH  17  19
HETATM   19  C   UNK N   1      35.049  12.744  12.918  0.00  0.00     0.223 C 
BRANCH  19  20
HETATM   20  O   UNK N   1      34.859  13.383  14.089  0.00  0.00    -0.348 OA
BRANCH  20  21
HETATM   21  C   UNK N   1      35.069  12.758  15.240  0.00  0.00     0.071 A 
HETATM   22  C   UNK N   1      35.060  13.459  16.457  0.00  0.00     0.080 A 
HETATM   23  C   UNK N   1      35.146  12.758  17.646  0.00  0.00     0.140 A 
HETATM   24  F   UNK N   1      35.064  13.429  18.820  0.00  0.00    -0.204 F 
HETATM   25  C   UNK N   1      35.246  11.361  17.613  0.00  0.00     0.072 A 
HETATM   26 Cl   UNK N   1      35.178  10.433  19.083  0.00  0.00    -0.081 Cl
HETATM   27  C   UNK N   1      35.334  10.685  16.395  0.00  0.00     0.030 A 
HETATM   28  C   UNK N   1      35.245  11.388  15.208  0.00  0.00     0.038 A 
ENDBRANCH  20  21
ENDBRANCH  19  20
ENDBRANCH  17  19
BRANCH  17  29
HETATM   29  O   UNK N   1      36.518  14.650  12.766  0.00  0.00    -0.378 OA
HETATM   30  H   UNK N   1      36.893  15.486  12.448  0.00  0.00     0.211 HD
ENDBRANCH  17  29
ENDBRANCH  14  17
ENDBRANCH   1  13
TORSDOF 7
ENDMDL
MODEL 9
REMARK VINA RESULT:      -6.6     20.730     24.486
REMARK  7 active torsions:
REMARK  status: ('A' for Active; 'I' for Inactive)
REMARK    1  A    between atoms: C_8  and  O_9 
REMARK    2  A    between atoms: O_9  and  C_10 
REMARK    3  A    between atoms: C_10  and  C_11 
REMARK    4  A    between atoms: C_11  and  O_12 
REMARK    5  A    between atoms: C_11  and  C_14 
REMARK       I    between atoms: C_14  and  N_16 
REMARK    6  A    between atoms: N_16  and  C_17 
REMARK    7  A    between atoms: C_24  and  C_25 
ROOT
HETATM    1  C   UNK N   1      35.951  15.319  11.249  0.00  0.00     0.035 A 
HETATM    2  C   UNK N   1      36.234  14.513  10.197  0.00  0.00     0.047 A 
HETATM    3  C   UNK N   1      35.221  16.491  11.027  0.00  0.00     0.031 A 
HETATM    4  C   UNK N   1      34.809  16.772   9.701  0.00  0.00     0.026 A 
HETATM    5  C   UNK N   1      35.117  15.865   8.651  0.00  0.00     0.059 A 
HETATM    6  C   UNK N   1      34.758  16.168   7.299  0.00  0.00     0.100 C 
HETATM    7  N   UNK N   1      34.491  16.371   6.194  0.00  0.00    -0.191 NA
HETATM    8  C   UNK N   1      35.834  14.692   8.947  0.00  0.00     0.070 A 
ENDROOT
BRANCH   8   9
HETATM    9  C   UNK N   1      36.223  13.539   8.069  0.00  0.00     0.419 C 
HETATM   10  F   UNK N   1      35.103  13.031   7.444  0.00  0.00    -0.166 F 
HETATM   11  F   UNK N   1      36.874  12.550   8.762  0.00  0.00    -0.166 F 
HETATM   12  F   UNK N   1      37.057  14.017   7.054  0.00  0.00    -0.166 F 
ENDBRANCH   8   9
BRANCH   1  13
HETATM   13  N   UNK N   1      36.489  14.910  12.486  0.00  0.00    -0.325 N 
HETATM   14  C   UNK N   1      35.821  13.963  13.227  0.00  0.00     0.258 C 
HETATM   15  O   UNK N   1      34.644  13.677  13.003  0.00  0.00    -0.270 OA
HETATM   16  H   UNK N   1      37.332  15.299  12.817  0.00  0.00     0.169 HD
BRANCH  14  17
HETATM   17  C   UNK N   1      36.427  13.342  14.374  0.00  0.00     0.156 C 
HETATM   18  C   UNK N   1      37.197  12.092  13.912  0.00  0.00     0.059 C 
BRANCH  17  19
HETATM   19  C   UNK N   1      35.185  13.050  15.180  0.00  0.00     0.223 C 
BRANCH  19  20
HETATM   20  O   UNK N   1      35.373  13.502  16.435  0.00  0.00    -0.348 OA
BRANCH  20  21
HETATM   21  C   UNK N   1      35.241  12.688  17.472  0.00  0.00     0.071 A 
HETATM   22  C   UNK N   1      35.192  11.295  17.299  0.00  0.00     0.080 A 
HETATM   23  C   UNK N   1      35.190  10.470  18.409  0.00  0.00     0.140 A 
HETATM   24  F   UNK N   1      35.215   9.127  18.240  0.00  0.00    -0.204 F 
HETATM   25  C   UNK N   1      35.232  11.041  19.688  0.00  0.00     0.072 A 
HETATM   26 Cl   UNK N   1      35.409  10.041  21.100  0.00  0.00    -0.081 Cl
HETATM   27  C   UNK N   1      35.200  12.428  19.847  0.00  0.00     0.030 A 
HETATM   28  C   UNK N   1      35.204  13.250  18.735  0.00  0.00     0.038 A 
ENDBRANCH  20  21
ENDBRANCH  19  20
ENDBRANCH  17  19
BRANCH  17  29
HETATM   29  O   UNK N   1      37.295  14.209  15.038  0.00  0.00    -0.378 OA
HETATM   30  H   UNK N   1      38.026  14.091  15.663  0.00  0.00     0.211 HD
ENDBRANCH  17  29
ENDBRANCH  14  17
ENDBRANCH   1  13
TORSDOF 7
ENDMDL
