MODEL 1
REMARK VINA RESULT:      -7.2      0.000      0.000
REMARK  11 active torsions:
REMARK  status: ('A' for Active; 'I' for Inactive)
REMARK    1  A    between atoms: C_6  and  O_7 
REMARK    2  A    between atoms: O_7  and  C_8 
REMARK    3  A    between atoms: C_13  and  C_14 
REMARK    4  A    between atoms: C_14  and  C_15 
REMARK    5  A    between atoms: C_15  and  C_16 
REMARK    6  A    between atoms: C_16  and  C_17 
REMARK    7  A    between atoms: C_17  and  P_18 
REMARK    8  A    between atoms: C_17  and  S_22 
REMARK    9  A    between atoms: P_18  and  O_19 
REMARK   10  A    between atoms: P_18  and  O_20 
REMARK   11  A    between atoms: S_22  and  O_25 
ROOT
HETATM    1  C   UNK N   1      24.011  17.641   3.843  0.00  0.00     0.039 C 
ENDROOT
BRANCH   1   2
HETATM    2  C   UNK N   1      25.308  18.390   3.983  0.00  0.00    -0.056 A 
HETATM    3  C   UNK N   1      26.388  17.755   4.606  0.00  0.00     0.044 A 
HETATM    4  C   UNK N   1      27.611  18.416   4.771  0.00  0.00     0.076 A 
HETATM    5  C   UNK N   1      27.747  19.728   4.289  0.00  0.00     0.037 A 
HETATM    6  C   UNK N   1      26.675  20.369   3.663  0.00  0.00     0.003 A 
HETATM    7  C   UNK N   1      25.458  19.705   3.515  0.00  0.00     0.007 A 
BRANCH   4   8
HETATM    8  O   UNK N   1      28.626  17.754   5.398  0.00  0.00    -0.311 OA
BRANCH   8   9
HETATM    9  C   UNK N   1      29.038  17.840   6.694  0.00  0.00     0.076 A 
HETATM   10  C   UNK N   1      30.282  17.352   7.133  0.00  0.00     0.037 A 
HETATM   11  C   UNK N   1      30.659  17.467   8.473  0.00  0.00     0.003 A 
HETATM   12  C   UNK N   1      29.798  18.073   9.390  0.00  0.00     0.000 A 
HETATM   13  C   UNK N   1      28.561  18.564   8.965  0.00  0.00     0.003 A 
HETATM   14  C   UNK N   1      28.185  18.447   7.624  0.00  0.00     0.037 A 
ENDBRANCH   8   9
ENDBRANCH   4   8
ENDBRANCH   1   2
BRANCH   1  15
HETATM   15  C   UNK N   1      23.113  17.712   5.072  0.00  0.00     0.006 C 
BRANCH  15  16
HETATM   16  C   UNK N   1      21.799  18.450   4.806  0.00  0.00     0.034 C 
BRANCH  16  17
HETATM   17  C   UNK N   1      21.500  18.524   3.304  0.00  0.00     0.232 C 
BRANCH  17  18
HETATM   18  P   UNK N   1      20.156  17.321   2.786  0.00  0.00     0.256 P 
HETATM   19  O   UNK N   1      20.738  15.952   2.347  0.00  0.00    -0.653 OA
BRANCH  18  20
HETATM   20  O   UNK N   1      19.233  17.836   1.410  0.00  0.00    -0.328 OA
HETATM   21  H   UNK N   1      18.619  18.569   1.253  0.00  0.00     0.220 HD
ENDBRANCH  18  20
BRANCH  18  22
HETATM   22  O   UNK N   1      19.009  16.901   4.020  0.00  0.00    -0.328 OA
HETATM   23  H   UNK N   1      18.687  17.352   4.815  0.00  0.00     0.220 HD
ENDBRANCH  18  22
ENDBRANCH  17  18
BRANCH  17  24
HETATM   24  S   UNK N   1      21.115  20.229   2.775  0.00  0.00     0.110 S 
HETATM   25  O   UNK N   1      22.301  21.202   2.808  0.00  0.00    -0.601 OA
HETATM   26  O   UNK N   1      20.140  20.901   3.754  0.00  0.00    -0.601 OA
BRANCH  24  27
HETATM   27  O   UNK N   1      20.366  20.451   1.245  0.00  0.00    -0.295 OA
HETATM   28  H   UNK N   1      20.674  20.123   0.386  0.00  0.00     0.232 HD
ENDBRANCH  24  27
ENDBRANCH  17  24
ENDBRANCH  16  17
ENDBRANCH  15  16
ENDBRANCH   1  15
TORSDOF 11
ENDMDL
MODEL 2
REMARK VINA RESULT:      -7.1      5.145      6.957
REMARK  11 active torsions:
REMARK  status: ('A' for Active; 'I' for Inactive)
REMARK    1  A    between atoms: C_6  and  O_7 
REMARK    2  A    between atoms: O_7  and  C_8 
REMARK    3  A    between atoms: C_13  and  C_14 
REMARK    4  A    between atoms: C_14  and  C_15 
REMARK    5  A    between atoms: C_15  and  C_16 
REMARK    6  A    between atoms: C_16  and  C_17 
REMARK    7  A    between atoms: C_17  and  P_18 
REMARK    8  A    between atoms: C_17  and  S_22 
REMARK    9  A    between atoms: P_18  and  O_19 
REMARK   10  A    between atoms: P_18  and  O_20 
REMARK   11  A    between atoms: S_22  and  O_25 
ROOT
HETATM    1  C   UNK N   1      21.965  17.532   5.808  0.00  0.00     0.039 C 
ENDROOT
BRANCH   1   2
HETATM    2  C   UNK N   1      21.102  17.024   6.929  0.00  0.00    -0.056 A 
HETATM    3  C   UNK N   1      21.089  15.651   7.198  0.00  0.00     0.044 A 
HETATM    4  C   UNK N   1      20.291  15.128   8.224  0.00  0.00     0.076 A 
HETATM    5  C   UNK N   1      19.509  16.006   8.993  0.00  0.00     0.037 A 
HETATM    6  C   UNK N   1      19.519  17.379   8.734  0.00  0.00     0.003 A 
HETATM    7  C   UNK N   1      20.308  17.886   7.702  0.00  0.00     0.007 A 
BRANCH   4   8
HETATM    8  O   UNK N   1      20.305  13.780   8.433  0.00  0.00    -0.311 OA
BRANCH   8   9
HETATM    9  C   UNK N   1      21.198  13.028   9.136  0.00  0.00     0.076 A 
HETATM   10  C   UNK N   1      21.146  12.891  10.535  0.00  0.00     0.037 A 
HETATM   11  C   UNK N   1      22.084  12.105  11.208  0.00  0.00     0.003 A 
HETATM   12  C   UNK N   1      23.084  11.446  10.492  0.00  0.00     0.000 A 
HETATM   13  C   UNK N   1      23.144  11.573   9.102  0.00  0.00     0.003 A 
HETATM   14  C   UNK N   1      22.206  12.360   8.429  0.00  0.00     0.037 A 
ENDBRANCH   8   9
ENDBRANCH   4   8
ENDBRANCH   1   2
BRANCH   1  15
HETATM   15  C   UNK N   1      22.164  16.537   4.672  0.00  0.00     0.006 C 
BRANCH  15  16
HETATM   16  C   UNK N   1      22.039  17.179   3.289  0.00  0.00     0.034 C 
BRANCH  16  17
HETATM   17  C   UNK N   1      20.589  17.145   2.792  0.00  0.00     0.232 C 
BRANCH  17  18
HETATM   18  P   UNK N   1      19.888  18.865   2.523  0.00  0.00     0.256 P 
HETATM   19  O   UNK N   1      20.207  19.815   3.707  0.00  0.00    -0.653 OA
BRANCH  18  20
HETATM   20  O   UNK N   1      18.157  18.918   2.408  0.00  0.00    -0.328 OA
HETATM   21  H   UNK N   1      17.451  19.101   3.047  0.00  0.00     0.220 HD
ENDBRANCH  18  20
BRANCH  18  22
HETATM   22  O   UNK N   1      20.500  19.717   1.140  0.00  0.00    -0.328 OA
HETATM   23  H   UNK N   1      20.747  20.641   0.979  0.00  0.00     0.220 HD
ENDBRANCH  18  22
ENDBRANCH  17  18
BRANCH  17  24
HETATM   24  S   UNK N   1      20.410  16.107   1.300  0.00  0.00     0.110 S 
HETATM   25  O   UNK N   1      21.636  15.250   0.957  0.00  0.00    -0.601 OA
HETATM   26  O   UNK N   1      20.282  16.976   0.039  0.00  0.00    -0.601 OA
BRANCH  24  27
HETATM   27  O   UNK N   1      19.057  15.055   1.203  0.00  0.00    -0.295 OA
HETATM   28  H   UNK N   1      18.123  15.304   1.118  0.00  0.00     0.232 HD
ENDBRANCH  24  27
ENDBRANCH  17  24
ENDBRANCH  16  17
ENDBRANCH  15  16
ENDBRANCH   1  15
TORSDOF 11
ENDMDL
MODEL 3
REMARK VINA RESULT:      -7.1     11.289     13.808
REMARK  11 active torsions:
REMARK  status: ('A' for Active; 'I' for Inactive)
REMARK    1  A    between atoms: C_6  and  O_7 
REMARK    2  A    between atoms: O_7  and  C_8 
REMARK    3  A    between atoms: C_13  and  C_14 
REMARK    4  A    between atoms: C_14  and  C_15 
REMARK    5  A    between atoms: C_15  and  C_16 
REMARK    6  A    between atoms: C_16  and  C_17 
REMARK    7  A    between atoms: C_17  and  P_18 
REMARK    8  A    between atoms: C_17  and  S_22 
REMARK    9  A    between atoms: P_18  and  O_19 
REMARK   10  A    between atoms: P_18  and  O_20 
REMARK   11  A    between atoms: S_22  and  O_25 
ROOT
HETATM    1  C   UNK N   1      29.278  21.615  -7.596  0.00  0.00     0.039 C 
ENDROOT
BRANCH   1   2
HETATM    2  C   UNK N   1      27.785  21.743  -7.725  0.00  0.00    -0.056 A 
HETATM    3  C   UNK N   1      27.192  22.982  -7.457  0.00  0.00     0.044 A 
HETATM    4  C   UNK N   1      25.804  23.147  -7.551  0.00  0.00     0.076 A 
HETATM    5  C   UNK N   1      25.011  22.051  -7.931  0.00  0.00     0.037 A 
HETATM    6  C   UNK N   1      25.596  20.813  -8.203  0.00  0.00     0.003 A 
HETATM    7  C   UNK N   1      26.978  20.657  -8.095  0.00  0.00     0.007 A 
BRANCH   4   8
HETATM    8  O   UNK N   1      25.277  24.373  -7.265  0.00  0.00    -0.311 OA
BRANCH   8   9
HETATM    9  C   UNK N   1      25.622  25.250  -6.282  0.00  0.00     0.076 A 
HETATM   10  C   UNK N   1      25.890  24.848  -4.960  0.00  0.00     0.037 A 
HETATM   11  C   UNK N   1      26.242  25.787  -3.989  0.00  0.00     0.003 A 
HETATM   12  C   UNK N   1      26.333  27.140  -4.326  0.00  0.00     0.000 A 
HETATM   13  C   UNK N   1      26.071  27.550  -5.635  0.00  0.00     0.003 A 
HETATM   14  C   UNK N   1      25.718  26.609  -6.606  0.00  0.00     0.037 A 
ENDBRANCH   8   9
ENDBRANCH   4   8
ENDBRANCH   1   2
BRANCH   1  15
HETATM   15  C   UNK N   1      29.752  21.175  -6.216  0.00  0.00     0.006 C 
BRANCH  15  16
HETATM   16  C   UNK N   1      30.234  22.342  -5.353  0.00  0.00     0.034 C 
BRANCH  16  17
HETATM   17  C   UNK N   1      30.445  21.904  -3.899  0.00  0.00     0.232 C 
BRANCH  17  18
HETATM   18  P   UNK N   1      32.168  21.220  -3.606  0.00  0.00     0.256 P 
HETATM   19  O   UNK N   1      33.254  22.036  -4.357  0.00  0.00    -0.653 OA
BRANCH  18  20
HETATM   20  O   UNK N   1      32.398  19.600  -4.184  0.00  0.00    -0.328 OA
HETATM   21  H   UNK N   1      32.034  19.099  -4.930  0.00  0.00     0.220 HD
ENDBRANCH  18  20
BRANCH  18  22
HETATM   22  O   UNK N   1      32.713  21.238  -1.958  0.00  0.00    -0.328 OA
HETATM   23  H   UNK N   1      33.159  21.900  -1.408  0.00  0.00     0.220 HD
ENDBRANCH  18  22
ENDBRANCH  17  18
BRANCH  17  24
HETATM   24  S   UNK N   1      30.048  23.245  -2.725  0.00  0.00     0.110 S 
HETATM   25  O   UNK N   1      30.423  22.959  -1.264  0.00  0.00    -0.601 OA
HETATM   26  O   UNK N   1      28.529  23.449  -2.617  0.00  0.00    -0.601 OA
BRANCH  24  27
HETATM   27  O   UNK N   1      30.643  24.820  -3.064  0.00  0.00    -0.295 OA
HETATM   28  H   UNK N   1      30.425  25.644  -2.598  0.00  0.00     0.232 HD
ENDBRANCH  24  27
ENDBRANCH  17  24
ENDBRANCH  16  17
ENDBRANCH  15  16
ENDBRANCH   1  15
TORSDOF 11
ENDMDL
MODEL 4
REMARK VINA RESULT:      -7.1      4.490      6.467
REMARK  11 active torsions:
REMARK  status: ('A' for Active; 'I' for Inactive)
REMARK    1  A    between atoms: C_6  and  O_7 
REMARK    2  A    between atoms: O_7  and  C_8 
REMARK    3  A    between atoms: C_13  and  C_14 
REMARK    4  A    between atoms: C_14  and  C_15 
REMARK    5  A    between atoms: C_15  and  C_16 
REMARK    6  A    between atoms: C_16  and  C_17 
REMARK    7  A    between atoms: C_17  and  P_18 
REMARK    8  A    between atoms: C_17  and  S_22 
REMARK    9  A    between atoms: P_18  and  O_19 
REMARK   10  A    between atoms: P_18  and  O_20 
REMARK   11  A    between atoms: S_22  and  O_25 
ROOT
HETATM    1  C   UNK N   1      21.626  18.015   6.108  0.00  0.00     0.039 C 
ENDROOT
BRANCH   1   2
HETATM    2  C   UNK N   1      21.079  17.064   7.137  0.00  0.00    -0.056 A 
HETATM    3  C   UNK N   1      21.666  15.800   7.262  0.00  0.00     0.044 A 
HETATM    4  C   UNK N   1      21.184  14.875   8.197  0.00  0.00     0.076 A 
HETATM    5  C   UNK N   1      20.106  15.238   9.020  0.00  0.00     0.037 A 
HETATM    6  C   UNK N   1      19.516  16.499   8.904  0.00  0.00     0.003 A 
HETATM    7  C   UNK N   1      19.997  17.407   7.962  0.00  0.00     0.007 A 
BRANCH   4   8
HETATM    8  O   UNK N   1      21.785  13.652   8.267  0.00  0.00    -0.311 OA
BRANCH   8   9
HETATM    9  C   UNK N   1      22.568  13.134   9.253  0.00  0.00     0.076 A 
HETATM   10  C   UNK N   1      23.974  13.133   9.191  0.00  0.00     0.037 A 
HETATM   11  C   UNK N   1      24.733  12.591  10.230  0.00  0.00     0.003 A 
HETATM   12  C   UNK N   1      24.096  12.043  11.346  0.00  0.00     0.000 A 
HETATM   13  C   UNK N   1      22.701  12.040  11.420  0.00  0.00     0.003 A 
HETATM   14  C   UNK N   1      21.943  12.582  10.379  0.00  0.00     0.037 A 
ENDBRANCH   8   9
ENDBRANCH   4   8
ENDBRANCH   1   2
BRANCH   1  15
HETATM   15  C   UNK N   1      22.704  17.417   5.213  0.00  0.00     0.006 C 
BRANCH  15  16
HETATM   16  C   UNK N   1      22.572  17.850   3.752  0.00  0.00     0.034 C 
BRANCH  16  17
HETATM   17  C   UNK N   1      21.294  18.668   3.531  0.00  0.00     0.232 C 
BRANCH  17  18
HETATM   18  P   UNK N   1      21.610  20.221   2.525  0.00  0.00     0.256 P 
HETATM   19  O   UNK N   1      23.106  20.631   2.542  0.00  0.00    -0.653 OA
BRANCH  18  20
HETATM   20  O   UNK N   1      20.791  21.632   3.119  0.00  0.00    -0.328 OA
HETATM   21  H   UNK N   1      21.034  22.568   3.183  0.00  0.00     0.220 HD
ENDBRANCH  18  20
BRANCH  18  22
HETATM   22  O   UNK N   1      21.236  20.110   0.834  0.00  0.00    -0.328 OA
HETATM   23  H   UNK N   1      21.761  19.900   0.046  0.00  0.00     0.220 HD
ENDBRANCH  18  22
ENDBRANCH  17  18
BRANCH  17  24
HETATM   24  S   UNK N   1      19.961  17.657   2.800  0.00  0.00     0.110 S 
HETATM   25  O   UNK N   1      19.643  16.360   3.558  0.00  0.00    -0.601 OA
HETATM   26  O   UNK N   1      20.376  17.113   1.424  0.00  0.00    -0.601 OA
BRANCH  24  27
HETATM   27  O   UNK N   1      18.448  18.408   2.497  0.00  0.00    -0.295 OA
HETATM   28  H   UNK N   1      18.249  19.080   1.825  0.00  0.00     0.232 HD
ENDBRANCH  24  27
ENDBRANCH  17  24
ENDBRANCH  16  17
ENDBRANCH  15  16
ENDBRANCH   1  15
TORSDOF 11
ENDMDL
MODEL 5
REMARK VINA RESULT:      -7.0      4.928      6.589
REMARK  11 active torsions:
REMARK  status: ('A' for Active; 'I' for Inactive)
REMARK    1  A    between atoms: C_6  and  O_7 
REMARK    2  A    between atoms: O_7  and  C_8 
REMARK    3  A    between atoms: C_13  and  C_14 
REMARK    4  A    between atoms: C_14  and  C_15 
REMARK    5  A    between atoms: C_15  and  C_16 
REMARK    6  A    between atoms: C_16  and  C_17 
REMARK    7  A    between atoms: C_17  and  P_18 
REMARK    8  A    between atoms: C_17  and  S_22 
REMARK    9  A    between atoms: P_18  and  O_19 
REMARK   10  A    between atoms: P_18  and  O_20 
REMARK   11  A    between atoms: S_22  and  O_25 
ROOT
HETATM    1  C   UNK N   1      21.526  18.095   6.408  0.00  0.00     0.039 C 
ENDROOT
BRANCH   1   2
HETATM    2  C   UNK N   1      20.716  17.291   7.386  0.00  0.00    -0.056 A 
HETATM    3  C   UNK N   1      20.891  15.902   7.423  0.00  0.00     0.044 A 
HETATM    4  C   UNK N   1      20.150  15.109   8.308  0.00  0.00     0.076 A 
HETATM    5  C   UNK N   1      19.233  15.728   9.173  0.00  0.00     0.037 A 
HETATM    6  C   UNK N   1      19.055  17.113   9.146  0.00  0.00     0.003 A 
HETATM    7  C   UNK N   1      19.789  17.892   8.252  0.00  0.00     0.007 A 
BRANCH   4   8
HETATM    8  O   UNK N   1      20.351  13.760   8.292  0.00  0.00    -0.311 OA
BRANCH   8   9
HETATM    9  C   UNK N   1      21.246  13.014   8.997  0.00  0.00     0.076 A 
HETATM   10  C   UNK N   1      22.306  12.317   8.388  0.00  0.00     0.037 A 
HETATM   11  C   UNK N   1      23.199  11.567   9.157  0.00  0.00     0.003 A 
HETATM   12  C   UNK N   1      23.045  11.506  10.544  0.00  0.00     0.000 A 
HETATM   13  C   UNK N   1      21.998  12.196  11.159  0.00  0.00     0.003 A 
HETATM   14  C   UNK N   1      21.104  12.945  10.389  0.00  0.00     0.037 A 
ENDBRANCH   8   9
ENDBRANCH   4   8
ENDBRANCH   1   2
BRANCH   1  15
HETATM   15  C   UNK N   1      20.979  18.084   4.985  0.00  0.00     0.006 C 
BRANCH  15  16
HETATM   16  C   UNK N   1      22.080  18.132   3.924  0.00  0.00     0.034 C 
BRANCH  16  17
HETATM   17  C   UNK N   1      21.532  18.624   2.580  0.00  0.00     0.232 C 
BRANCH  17  18
HETATM   18  P   UNK N   1      19.953  17.737   2.087  0.00  0.00     0.256 P 
HETATM   19  O   UNK N   1      19.882  17.482   0.558  0.00  0.00    -0.653 OA
BRANCH  18  20
HETATM   20  O   UNK N   1      18.502  18.627   2.423  0.00  0.00    -0.328 OA
HETATM   21  H   UNK N   1      18.150  19.475   2.109  0.00  0.00     0.220 HD
ENDBRANCH  18  20
BRANCH  18  22
HETATM   22  O   UNK N   1      19.733  16.158   2.774  0.00  0.00    -0.328 OA
HETATM   23  H   UNK N   1      20.260  15.613   3.379  0.00  0.00     0.220 HD
ENDBRANCH  18  22
ENDBRANCH  17  18
BRANCH  17  24
HETATM   24  S   UNK N   1      21.315  20.437   2.561  0.00  0.00     0.110 S 
HETATM   25  O   UNK N   1      22.558  21.242   2.962  0.00  0.00    -0.601 OA
HETATM   26  O   UNK N   1      20.305  20.881   3.631  0.00  0.00    -0.601 OA
BRANCH  24  27
HETATM   27  O   UNK N   1      20.724  21.167   1.124  0.00  0.00    -0.295 OA
HETATM   28  H   UNK N   1      21.077  21.952   0.675  0.00  0.00     0.232 HD
ENDBRANCH  24  27
ENDBRANCH  17  24
ENDBRANCH  16  17
ENDBRANCH  15  16
ENDBRANCH   1  15
TORSDOF 11
ENDMDL
MODEL 6
REMARK VINA RESULT:      -6.9      2.336      3.648
REMARK  11 active torsions:
REMARK  status: ('A' for Active; 'I' for Inactive)
REMARK    1  A    between atoms: C_6  and  O_7 
REMARK    2  A    between atoms: O_7  and  C_8 
REMARK    3  A    between atoms: C_13  and  C_14 
REMARK    4  A    between atoms: C_14  and  C_15 
REMARK    5  A    between atoms: C_15  and  C_16 
REMARK    6  A    between atoms: C_16  and  C_17 
REMARK    7  A    between atoms: C_17  and  P_18 
REMARK    8  A    between atoms: C_17  and  S_22 
REMARK    9  A    between atoms: P_18  and  O_19 
REMARK   10  A    between atoms: P_18  and  O_20 
REMARK   11  A    between atoms: S_22  and  O_25 
ROOT
HETATM    1  C   UNK N   1      26.304  20.518   3.054  0.00  0.00     0.039 C 
ENDROOT
BRANCH   1   2
HETATM    2  C   UNK N   1      26.928  20.082   4.351  0.00  0.00    -0.056 A 
HETATM    3  C   UNK N   1      27.797  18.985   4.344  0.00  0.00     0.044 A 
HETATM    4  C   UNK N   1      28.392  18.534   5.529  0.00  0.00     0.076 A 
HETATM    5  C   UNK N   1      28.114  19.207   6.730  0.00  0.00     0.037 A 
HETATM    6  C   UNK N   1      27.251  20.305   6.745  0.00  0.00     0.003 A 
HETATM    7  C   UNK N   1      26.655  20.738   5.562  0.00  0.00     0.007 A 
BRANCH   4   8
HETATM    8  O   UNK N   1      29.220  17.451   5.467  0.00  0.00    -0.311 OA
BRANCH   8   9
HETATM    9  C   UNK N   1      30.581  17.409   5.454  0.00  0.00     0.076 A 
HETATM   10  C   UNK N   1      31.340  17.616   4.288  0.00  0.00     0.037 A 
HETATM   11  C   UNK N   1      32.735  17.564   4.327  0.00  0.00     0.003 A 
HETATM   12  C   UNK N   1      33.389  17.305   5.534  0.00  0.00     0.000 A 
HETATM   13  C   UNK N   1      32.646  17.100   6.699  0.00  0.00     0.003 A 
HETATM   14  C   UNK N   1      31.250  17.152   6.657  0.00  0.00     0.037 A 
ENDBRANCH   8   9
ENDBRANCH   4   8
ENDBRANCH   1   2
BRANCH   1  15
HETATM   15  C   UNK N   1      24.781  20.550   3.072  0.00  0.00     0.006 C 
BRANCH  15  16
HETATM   16  C   UNK N   1      24.162  19.196   3.420  0.00  0.00     0.034 C 
BRANCH  16  17
HETATM   17  C   UNK N   1      22.847  19.370   4.189  0.00  0.00     0.232 C 
BRANCH  17  18
HETATM   18  P   UNK N   1      21.402  19.743   3.052  0.00  0.00     0.256 P 
HETATM   19  O   UNK N   1      20.289  20.551   3.771  0.00  0.00    -0.653 OA
BRANCH  18  20
HETATM   20  O   UNK N   1      20.573  18.334   2.468  0.00  0.00    -0.328 OA
HETATM   21  H   UNK N   1      20.871  17.496   2.082  0.00  0.00     0.220 HD
ENDBRANCH  18  20
BRANCH  18  22
HETATM   22  O   UNK N   1      21.773  20.710   1.659  0.00  0.00    -0.328 OA
HETATM   23  H   UNK N   1      21.312  20.883   0.823  0.00  0.00     0.220 HD
ENDBRANCH  18  22
ENDBRANCH  17  18
BRANCH  17  24
HETATM   24  S   UNK N   1      22.499  17.937   5.266  0.00  0.00     0.110 S 
HETATM   25  O   UNK N   1      21.508  16.917   4.688  0.00  0.00    -0.601 OA
HETATM   26  O   UNK N   1      21.773  18.376   6.547  0.00  0.00    -0.601 OA
BRANCH  24  27
HETATM   27  O   UNK N   1      23.829  17.021   5.851  0.00  0.00    -0.295 OA
HETATM   28  H   UNK N   1      24.704  16.928   5.441  0.00  0.00     0.232 HD
ENDBRANCH  24  27
ENDBRANCH  17  24
ENDBRANCH  16  17
ENDBRANCH  15  16
ENDBRANCH   1  15
TORSDOF 11
ENDMDL
MODEL 7
REMARK VINA RESULT:      -6.8      7.255     10.908
REMARK  11 active torsions:
REMARK  status: ('A' for Active; 'I' for Inactive)
REMARK    1  A    between atoms: C_6  and  O_7 
REMARK    2  A    between atoms: O_7  and  C_8 
REMARK    3  A    between atoms: C_13  and  C_14 
REMARK    4  A    between atoms: C_14  and  C_15 
REMARK    5  A    between atoms: C_15  and  C_16 
REMARK    6  A    between atoms: C_16  and  C_17 
REMARK    7  A    between atoms: C_17  and  P_18 
REMARK    8  A    between atoms: C_17  and  S_22 
REMARK    9  A    between atoms: P_18  and  O_19 
REMARK   10  A    between atoms: P_18  and  O_20 
REMARK   11  A    between atoms: S_22  and  O_25 
ROOT
HETATM    1  C   UNK N   1      33.909  13.916   5.414  0.00  0.00     0.039 C 
ENDROOT
BRANCH   1   2
HETATM    2  C   UNK N   1      33.084  15.010   4.792  0.00  0.00    -0.056 A 
HETATM    3  C   UNK N   1      31.779  15.213   5.256  0.00  0.00     0.044 A 
HETATM    4  C   UNK N   1      30.968  16.211   4.700  0.00  0.00     0.076 A 
HETATM    5  C   UNK N   1      31.487  17.018   3.674  0.00  0.00     0.037 A 
HETATM    6  C   UNK N   1      32.790  16.824   3.208  0.00  0.00     0.003 A 
HETATM    7  C   UNK N   1      33.584  15.820   3.761  0.00  0.00     0.007 A 
BRANCH   4   8
HETATM    8  O   UNK N   1      29.699  16.356   5.180  0.00  0.00    -0.311 OA
BRANCH   8   9
HETATM    9  C   UNK N   1      29.212  17.275   6.058  0.00  0.00     0.076 A 
HETATM   10  C   UNK N   1      29.514  17.254   7.432  0.00  0.00     0.037 A 
HETATM   11  C   UNK N   1      28.991  18.222   8.292  0.00  0.00     0.003 A 
HETATM   12  C   UNK N   1      28.158  19.224   7.789  0.00  0.00     0.000 A 
HETATM   13  C   UNK N   1      27.852  19.257   6.426  0.00  0.00     0.003 A 
HETATM   14  C   UNK N   1      28.377  18.287   5.568  0.00  0.00     0.037 A 
ENDBRANCH   8   9
ENDBRANCH   4   8
ENDBRANCH   1   2
BRANCH   1  15
HETATM   15  C   UNK N   1      34.084  14.045   6.922  0.00  0.00     0.006 C 
BRANCH  15  16
HETATM   16  C   UNK N   1      34.896  15.278   7.323  0.00  0.00     0.034 C 
BRANCH  16  17
HETATM   17  C   UNK N   1      34.149  16.116   8.368  0.00  0.00     0.232 C 
BRANCH  17  18
HETATM   18  P   UNK N   1      34.850  15.888  10.094  0.00  0.00     0.256 P 
HETATM   19  O   UNK N   1      35.182  17.244  10.771  0.00  0.00    -0.653 OA
BRANCH  18  20
HETATM   20  O   UNK N   1      36.355  15.026  10.143  0.00  0.00    -0.328 OA
HETATM   21  H   UNK N   1      37.226  15.178   9.744  0.00  0.00     0.220 HD
ENDBRANCH  18  20
BRANCH  18  22
HETATM   22  O   UNK N   1      33.798  15.109  11.234  0.00  0.00    -0.328 OA
HETATM   23  H   UNK N   1      33.425  15.374  12.090  0.00  0.00     0.220 HD
ENDBRANCH  18  22
ENDBRANCH  17  18
BRANCH  17  24
HETATM   24  S   UNK N   1      34.083  17.879   7.899  0.00  0.00     0.110 S 
HETATM   25  O   UNK N   1      32.733  18.566   8.149  0.00  0.00    -0.601 OA
HETATM   26  O   UNK N   1      34.237  18.051   6.380  0.00  0.00    -0.601 OA
BRANCH  24  27
HETATM   27  O   UNK N   1      35.274  18.934   8.546  0.00  0.00    -0.295 OA
HETATM   28  H   UNK N   1      35.382  19.881   8.365  0.00  0.00     0.232 HD
ENDBRANCH  24  27
ENDBRANCH  17  24
ENDBRANCH  16  17
ENDBRANCH  15  16
ENDBRANCH   1  15
TORSDOF 11
ENDMDL
MODEL 8
REMARK VINA RESULT:      -6.8      4.887      6.393
REMARK  11 active torsions:
REMARK  status: ('A' for Active; 'I' for Inactive)
REMARK    1  A    between atoms: C_6  and  O_7 
REMARK    2  A    between atoms: O_7  and  C_8 
REMARK    3  A    between atoms: C_13  and  C_14 
REMARK    4  A    between atoms: C_14  and  C_15 
REMARK    5  A    between atoms: C_15  and  C_16 
REMARK    6  A    between atoms: C_16  and  C_17 
REMARK    7  A    between atoms: C_17  and  P_18 
REMARK    8  A    between atoms: C_17  and  S_22 
REMARK    9  A    between atoms: P_18  and  O_19 
REMARK   10  A    between atoms: P_18  and  O_20 
REMARK   11  A    between atoms: S_22  and  O_25 
ROOT
HETATM    1  C   UNK N   1      21.004  16.745   6.474  0.00  0.00     0.039 C 
ENDROOT
BRANCH   1   2
HETATM    2  C   UNK N   1      21.112  15.246   6.527  0.00  0.00    -0.056 A 
HETATM    3  C   UNK N   1      21.017  14.608   7.769  0.00  0.00     0.044 A 
HETATM    4  C   UNK N   1      21.124  13.216   7.871  0.00  0.00     0.076 A 
HETATM    5  C   UNK N   1      21.316  12.460   6.702  0.00  0.00     0.037 A 
HETATM    6  C   UNK N   1      21.409  13.088   5.458  0.00  0.00     0.003 A 
HETATM    7  C   UNK N   1      21.312  14.476   5.370  0.00  0.00     0.007 A 
BRANCH   4   8
HETATM    8  O   UNK N   1      21.038  12.648   9.108  0.00  0.00    -0.311 OA
BRANCH   8   9
HETATM    9  C   UNK N   1      22.024  12.416  10.019  0.00  0.00     0.076 A 
HETATM   10  C   UNK N   1      23.392  12.469   9.693  0.00  0.00     0.037 A 
HETATM   11  C   UNK N   1      24.365  12.226  10.665  0.00  0.00     0.003 A 
HETATM   12  C   UNK N   1      23.984  11.928  11.975  0.00  0.00     0.000 A 
HETATM   13  C   UNK N   1      22.629  11.875  12.310  0.00  0.00     0.003 A 
HETATM   14  C   UNK N   1      21.656  12.118  11.337  0.00  0.00     0.037 A 
ENDBRANCH   8   9
ENDBRANCH   4   8
ENDBRANCH   1   2
BRANCH   1  15
HETATM   15  C   UNK N   1      21.969  17.407   5.498  0.00  0.00     0.006 C 
BRANCH  15  16
HETATM   16  C   UNK N   1      21.406  18.690   4.884  0.00  0.00     0.034 C 
BRANCH  16  17
HETATM   17  C   UNK N   1      21.430  18.627   3.352  0.00  0.00     0.232 C 
BRANCH  17  18
HETATM   18  P   UNK N   1      19.926  17.750   2.652  0.00  0.00     0.256 P 
HETATM   19  O   UNK N   1      20.269  16.935   1.377  0.00  0.00    -0.653 OA
BRANCH  18  20
HETATM   20  O   UNK N   1      18.660  18.816   2.129  0.00  0.00    -0.328 OA
HETATM   21  H   UNK N   1      17.708  18.702   1.984  0.00  0.00     0.220 HD
ENDBRANCH  18  20
BRANCH  18  22
HETATM   22  O   UNK N   1      19.185  16.580   3.697  0.00  0.00    -0.328 OA
HETATM   23  H   UNK N   1      18.265  16.358   3.907  0.00  0.00     0.220 HD
ENDBRANCH  18  22
ENDBRANCH  17  18
BRANCH  17  24
HETATM   24  S   UNK N   1      21.646  20.282   2.611  0.00  0.00     0.110 S 
HETATM   25  O   UNK N   1      23.013  20.932   2.865  0.00  0.00    -0.601 OA
HETATM   26  O   UNK N   1      20.697  21.302   3.259  0.00  0.00    -0.601 OA
BRANCH  24  27
HETATM   27  O   UNK N   1      21.344  20.462   0.930  0.00  0.00    -0.295 OA
HETATM   28  H   UNK N   1      20.635  20.049   0.412  0.00  0.00     0.232 HD
ENDBRANCH  24  27
ENDBRANCH  17  24
ENDBRANCH  16  17
ENDBRANCH  15  16
ENDBRANCH   1  15
TORSDOF 11
ENDMDL
MODEL 9
REMARK VINA RESULT:      -6.7     13.910     17.445
REMARK  11 active torsions:
REMARK  status: ('A' for Active; 'I' for Inactive)
REMARK    1  A    between atoms: C_6  and  O_7 
REMARK    2  A    between atoms: O_7  and  C_8 
REMARK    3  A    between atoms: C_13  and  C_14 
REMARK    4  A    between atoms: C_14  and  C_15 
REMARK    5  A    between atoms: C_15  and  C_16 
REMARK    6  A    between atoms: C_16  and  C_17 
REMARK    7  A    between atoms: C_17  and  P_18 
REMARK    8  A    between atoms: C_17  and  S_22 
REMARK    9  A    between atoms: P_18  and  O_19 
REMARK   10  A    between atoms: P_18  and  O_20 
REMARK   11  A    between atoms: S_22  and  O_25 
ROOT
HETATM    1  C   UNK N   1      35.921  12.345  15.223  0.00  0.00     0.039 C 
ENDROOT
BRANCH   1   2
HETATM    2  C   UNK N   1      35.638  12.479  16.694  0.00  0.00    -0.056 A 
HETATM    3  C   UNK N   1      35.525  11.316  17.465  0.00  0.00     0.044 A 
HETATM    4  C   UNK N   1      35.250  11.389  18.836  0.00  0.00     0.076 A 
HETATM    5  C   UNK N   1      35.099  12.651  19.435  0.00  0.00     0.037 A 
HETATM    6  C   UNK N   1      35.213  13.816  18.673  0.00  0.00     0.003 A 
HETATM    7  C   UNK N   1      35.476  13.731  17.306  0.00  0.00     0.007 A 
BRANCH   4   8
HETATM    8  O   UNK N   1      35.136  10.225  19.538  0.00  0.00    -0.311 OA
BRANCH   8   9
HETATM    9  C   UNK N   1      34.019   9.623  20.031  0.00  0.00     0.076 A 
HETATM   10  C   UNK N   1      33.303   8.642  19.320  0.00  0.00     0.037 A 
HETATM   11  C   UNK N   1      32.163   8.053  19.871  0.00  0.00     0.003 A 
HETATM   12  C   UNK N   1      31.725   8.435  21.141  0.00  0.00     0.000 A 
HETATM   13  C   UNK N   1      32.429   9.405  21.857  0.00  0.00     0.003 A 
HETATM   14  C   UNK N   1      33.569   9.995  21.304  0.00  0.00     0.037 A 
ENDBRANCH   8   9
ENDBRANCH   4   8
ENDBRANCH   1   2
BRANCH   1  15
HETATM   15  C   UNK N   1      36.034  13.673  14.485  0.00  0.00     0.006 C 
BRANCH  15  16
HETATM   16  C   UNK N   1      35.295  13.673  13.146  0.00  0.00     0.034 C 
BRANCH  16  17
HETATM   17  C   UNK N   1      36.082  14.444  12.079  0.00  0.00     0.232 C 
BRANCH  17  18
HETATM   18  P   UNK N   1      37.260  13.336  11.126  0.00  0.00     0.256 P 
HETATM   19  O   UNK N   1      36.506  12.339  10.207  0.00  0.00    -0.653 OA
BRANCH  18  20
HETATM   20  O   UNK N   1      38.239  12.311  12.127  0.00  0.00    -0.328 OA
HETATM   21  H   UNK N   1      38.199  11.370  12.362  0.00  0.00     0.220 HD
ENDBRANCH  18  20
BRANCH  18  22
HETATM   22  O   UNK N   1      38.345  14.149  10.043  0.00  0.00    -0.328 OA
HETATM   23  H   UNK N   1      38.215  14.744   9.288  0.00  0.00     0.220 HD
ENDBRANCH  18  22
ENDBRANCH  17  18
BRANCH  17  24
HETATM   24  S   UNK N   1      34.976  15.367  10.957  0.00  0.00     0.110 S 
HETATM   25  O   UNK N   1      35.298  15.220   9.464  0.00  0.00    -0.601 OA
HETATM   26  O   UNK N   1      35.132  16.882  11.156  0.00  0.00    -0.601 OA
BRANCH  24  27
HETATM   27  O   UNK N   1      33.283  15.114  11.101  0.00  0.00    -0.295 OA
HETATM   28  H   UNK N   1      32.577  15.761  10.944  0.00  0.00     0.232 HD
ENDBRANCH  24  27
ENDBRANCH  17  24
ENDBRANCH  16  17
ENDBRANCH  15  16
ENDBRANCH   1  15
TORSDOF 11
ENDMDL
