REMARK  10 active torsions:
REMARK  status: ('A' for Active; 'I' for Inactive)
REMARK    1  A    between atoms: C_3  and  N_4 
REMARK    2  A    between atoms: C_9  and  O_10 
REMARK    3  A    between atoms: O_10  and  C_11 
REMARK    4  A    between atoms: C_11  and  C_12 
REMARK    5  A    between atoms: C_12  and  O_13 
REMARK    6  A    between atoms: C_12  and  C_15 
REMARK    7  A    between atoms: C_15  and  O_16 
REMARK    8  A    between atoms: C_15  and  N_17 
REMARK    9  A    between atoms: N_17  and  C_18 
REMARK   10  A    between atoms: C_25  and  C_26 
ROOT
HETATM    1  C   UNK N   1       2.472  -0.216  -0.137  0.00  0.00     0.030 C 
HETATM    2  C   UNK N   1       2.602   1.071  -0.574  0.00  0.00     0.047 C 
HETATM    3  C   UNK N   1       3.596  -0.958   0.196  0.00  0.00     0.031 C 
HETATM    4  C   UNK N   1       4.836  -0.303   0.186  0.00  0.00     0.026 C 
HETATM    5  C   UNK N   1       4.872   1.100  -0.019  0.00  0.00     0.059 C 
HETATM    6  C   UNK N   1       6.024   1.839   0.361  0.00  0.00     0.100 C 
HETATM    7  N   UNK N   1       6.973   2.412   0.679  0.00  0.00    -0.191 NA
HETATM    8  C   UNK N   1       3.718   1.778  -0.408  0.00  0.00     0.070 C 
ENDROOT
BRANCH   8   9
HETATM    9  C   UNK N   1       3.516   3.271  -0.311  0.00  0.00     0.419 C 
HETATM   10  F   UNK N   1       4.240   3.969  -1.245  0.00  0.00    -0.166 F 
HETATM   11  F   UNK N   1       3.874   3.650   0.972  0.00  0.00    -0.166 F 
HETATM   12  F   UNK N   1       2.175   3.613  -0.458  0.00  0.00    -0.166 F 
ENDBRANCH   8   9
BRANCH   1  13
HETATM   13  N   UNK N   1       1.261  -0.453   0.532  0.00  0.00    -0.361 N 
HETATM   14  H   UNK N   1       1.130  -1.280   1.051  0.00  0.00     0.162 HD
BRANCH  13  15
HETATM   15  C   UNK N   1       0.200   0.544   0.447  0.00  0.00     0.254 C 
BRANCH  15  16
HETATM   16  C   UNK N   1      -0.512   0.303  -0.916  0.00  0.00     0.119 C 
HETATM   17  C   UNK N   1      -1.336   1.473  -1.433  0.00  0.00     0.053 C 
BRANCH  16  18
HETATM   18  C   UNK N   1      -1.438  -0.783  -0.561  0.00  0.00     0.217 C 
BRANCH  18  19
HETATM   19  O   UNK N   1      -2.145  -0.242   0.493  0.00  0.00    -0.348 OA
BRANCH  19  20
HETATM   20  C   UNK N   1      -3.131  -0.854   1.029  0.00  0.00     0.069 C 
HETATM   21  C   UNK N   1      -3.055  -2.234   1.125  0.00  0.00     0.039 C 
HETATM   22  C   UNK N   1      -4.188  -2.944   0.861  0.00  0.00     0.039 C 
HETATM   23  C   UNK N   1      -5.360  -2.250   0.534  0.00  0.00     0.103 C 
HETATM   24  C   UNK N   1      -5.445  -0.861   0.692  0.00  0.00     0.039 C 
HETATM   25  C   UNK N   1      -4.309  -0.155   0.965  0.00  0.00     0.039 C 
BRANCH  23  26
HETATM   26  N   UNK N   1      -6.419  -2.935  -0.070  0.00  0.00    -0.116 N 
HETATM   27  O   UNK N   1      -7.477  -2.268  -0.473  0.00  0.00    -0.532 OA
HETATM   28  O   UNK N   1      -6.289  -4.080  -0.376  0.00  0.00    -0.532 OA
ENDBRANCH  23  26
ENDBRANCH  19  20
ENDBRANCH  18  19
ENDBRANCH  16  18
BRANCH  16  29
HETATM   29  O   UNK N   1       0.350  -0.113  -1.943  0.00  0.00    -0.384 OA
HETATM   30  H   UNK N   1       0.399  -0.773  -2.653  0.00  0.00     0.210 HD
ENDBRANCH  16  29
ENDBRANCH  15  16
BRANCH  15  31
HETATM   31  O   UNK N   1       0.602   1.876   0.594  0.00  0.00    -0.374 OA
HETATM   32  H   UNK N   1       1.541   2.096   0.697  0.00  0.00     0.212 HD
ENDBRANCH  15  31
ENDBRANCH  13  15
ENDBRANCH   1  13
TORSDOF 10
