MODEL 1
REMARK VINA RESULT:      -7.3      0.000      0.000
REMARK  10 active torsions:
REMARK  status: ('A' for Active; 'I' for Inactive)
REMARK    1  A    between atoms: C_3  and  N_4 
REMARK    2  A    between atoms: C_9  and  O_10 
REMARK    3  A    between atoms: O_10  and  C_11 
REMARK    4  A    between atoms: C_11  and  C_12 
REMARK    5  A    between atoms: C_12  and  O_13 
REMARK    6  A    between atoms: C_12  and  C_15 
REMARK    7  A    between atoms: C_15  and  O_16 
REMARK    8  A    between atoms: C_15  and  N_17 
REMARK    9  A    between atoms: N_17  and  C_18 
REMARK   10  A    between atoms: C_25  and  C_26 
ROOT
HETATM    1  C   UNK N   1      26.764  26.202  -8.193  0.00  0.00     0.030 C 
HETATM    2  C   UNK N   1      25.871  26.552  -7.221  0.00  0.00     0.047 C 
HETATM    3  C   UNK N   1      27.901  26.968  -8.406  0.00  0.00     0.031 C 
HETATM    4  C   UNK N   1      28.153  28.022  -7.516  0.00  0.00     0.026 C 
HETATM    5  C   UNK N   1      27.329  28.169  -6.371  0.00  0.00     0.059 C 
HETATM    6  C   UNK N   1      27.784  28.939  -5.268  0.00  0.00     0.100 C 
HETATM    7  N   UNK N   1      28.181  29.571  -4.388  0.00  0.00    -0.191 NA
HETATM    8  C   UNK N   1      26.168  27.407  -6.245  0.00  0.00     0.070 C 
ENDROOT
BRANCH   8   9
HETATM    9  C   UNK N   1      25.409  27.192  -4.958  0.00  0.00     0.419 C 
HETATM   10  F   UNK N   1      26.128  26.484  -4.027  0.00  0.00    -0.166 F 
HETATM   11  F   UNK N   1      24.236  26.529  -5.280  0.00  0.00    -0.166 F 
HETATM   12  F   UNK N   1      25.028  28.401  -4.384  0.00  0.00    -0.166 F 
ENDBRANCH   8   9
BRANCH   1  13
HETATM   13  N   UNK N   1      26.802  24.820  -8.436  0.00  0.00    -0.361 N 
HETATM   14  H   UNK N   1      27.650  24.377  -8.670  0.00  0.00     0.162 HD
BRANCH  13  15
HETATM   15  C   UNK N   1      25.567  24.051  -8.338  0.00  0.00     0.254 C 
BRANCH  15  16
HETATM   16  C   UNK N   1      25.976  22.640  -7.823  0.00  0.00     0.119 C 
HETATM   17  C   UNK N   1      24.823  21.676  -7.589  0.00  0.00     0.053 C 
BRANCH  16  18
HETATM   18  C   UNK N   1      26.560  22.976  -6.516  0.00  0.00     0.217 C 
BRANCH  18  19
HETATM   19  O   UNK N   1      27.821  22.424  -6.600  0.00  0.00    -0.348 OA
BRANCH  19  20
HETATM   20  C   UNK N   1      28.819  22.923  -5.975  0.00  0.00     0.069 C 
HETATM   21  C   UNK N   1      29.989  22.183  -5.939  0.00  0.00     0.039 C 
HETATM   22  C   UNK N   1      30.679  22.159  -4.763  0.00  0.00     0.039 C 
HETATM   23  C   UNK N   1      30.189  22.893  -3.676  0.00  0.00     0.103 C 
HETATM   24  C   UNK N   1      29.146  23.814  -3.838  0.00  0.00     0.039 C 
HETATM   25  C   UNK N   1      28.463  23.840  -5.020  0.00  0.00     0.039 C 
BRANCH  23  26
HETATM   26  N   UNK N   1      30.664  22.618  -2.390  0.00  0.00    -0.116 N 
HETATM   27  O   UNK N   1      31.803  21.980  -2.242  0.00  0.00    -0.532 OA
HETATM   28  O   UNK N   1      30.133  23.109  -1.442  0.00  0.00    -0.532 OA
ENDBRANCH  23  26
ENDBRANCH  19  20
ENDBRANCH  18  19
ENDBRANCH  16  18
BRANCH  16  29
HETATM   29  O   UNK N   1      26.929  21.995  -8.627  0.00  0.00    -0.384 OA
HETATM   30  H   UNK N   1      27.775  22.174  -9.068  0.00  0.00     0.210 HD
ENDBRANCH  16  29
ENDBRANCH  15  16
BRANCH  15  31
HETATM   31  O   UNK N   1      24.801  23.975  -9.506  0.00  0.00    -0.374 OA
HETATM   32  H   UNK N   1      25.136  23.499 -10.282  0.00  0.00     0.212 HD
ENDBRANCH  15  31
ENDBRANCH  13  15
ENDBRANCH   1  13
TORSDOF 10
ENDMDL
MODEL 2
REMARK VINA RESULT:      -7.3     18.257     22.411
REMARK  10 active torsions:
REMARK  status: ('A' for Active; 'I' for Inactive)
REMARK    1  A    between atoms: C_3  and  N_4 
REMARK    2  A    between atoms: C_9  and  O_10 
REMARK    3  A    between atoms: O_10  and  C_11 
REMARK    4  A    between atoms: C_11  and  C_12 
REMARK    5  A    between atoms: C_12  and  O_13 
REMARK    6  A    between atoms: C_12  and  C_15 
REMARK    7  A    between atoms: C_15  and  O_16 
REMARK    8  A    between atoms: C_15  and  N_17 
REMARK    9  A    between atoms: N_17  and  C_18 
REMARK   10  A    between atoms: C_25  and  C_26 
ROOT
HETATM    1  C   UNK N   1      35.870  14.071  13.555  0.00  0.00     0.030 C 
HETATM    2  C   UNK N   1      34.935  13.079  13.626  0.00  0.00     0.047 C 
HETATM    3  C   UNK N   1      36.684  14.343  14.645  0.00  0.00     0.031 C 
HETATM    4  C   UNK N   1      36.594  13.491  15.755  0.00  0.00     0.026 C 
HETATM    5  C   UNK N   1      35.795  12.323  15.663  0.00  0.00     0.059 C 
HETATM    6  C   UNK N   1      35.995  11.257  16.581  0.00  0.00     0.100 C 
HETATM    7  N   UNK N   1      36.180  10.409  17.340  0.00  0.00    -0.191 NA
HETATM    8  C   UNK N   1      34.955  12.137  14.566  0.00  0.00     0.070 C 
ENDROOT
BRANCH   8   9
HETATM    9  C   UNK N   1      34.341  10.819  14.159  0.00  0.00     0.419 C 
HETATM   10  F   UNK N   1      35.231   9.776  14.215  0.00  0.00    -0.166 F 
HETATM   11  F   UNK N   1      33.849  10.977  12.874  0.00  0.00    -0.166 F 
HETATM   12  F   UNK N   1      33.247  10.499  14.958  0.00  0.00    -0.166 F 
ENDBRANCH   8   9
BRANCH   1  13
HETATM   13  N   UNK N   1      36.358  14.279  12.256  0.00  0.00    -0.361 N 
HETATM   14  H   UNK N   1      37.006  13.652  11.859  0.00  0.00     0.162 HD
BRANCH  13  15
HETATM   15  C   UNK N   1      35.892  15.438  11.503  0.00  0.00     0.254 C 
BRANCH  15  16
HETATM   16  C   UNK N   1      34.787  14.913  10.541  0.00  0.00     0.119 C 
HETATM   17  C   UNK N   1      34.963  13.476  10.074  0.00  0.00     0.053 C 
BRANCH  16  18
HETATM   18  C   UNK N   1      34.981  15.795   9.381  0.00  0.00     0.217 C 
BRANCH  18  19
HETATM   19  O   UNK N   1      34.085  16.815   9.626  0.00  0.00    -0.348 OA
BRANCH  19  20
HETATM   20  C   UNK N   1      33.515  17.455   8.678  0.00  0.00     0.069 C 
HETATM   21  C   UNK N   1      32.134  17.385   8.594  0.00  0.00     0.039 C 
HETATM   22  C   UNK N   1      31.587  17.260   7.352  0.00  0.00     0.039 C 
HETATM   23  C   UNK N   1      32.436  17.234   6.239  0.00  0.00     0.103 C 
HETATM   24  C   UNK N   1      33.794  17.556   6.358  0.00  0.00     0.039 C 
HETATM   25  C   UNK N   1      34.336  17.688   7.604  0.00  0.00     0.039 C 
BRANCH  23  26
HETATM   26  N   UNK N   1      31.950  16.767   5.014  0.00  0.00    -0.116 N 
HETATM   27  O   UNK N   1      31.574  17.627   4.094  0.00  0.00    -0.532 OA
HETATM   28  O   UNK N   1      32.042  15.610   4.740  0.00  0.00    -0.532 OA
ENDBRANCH  23  26
ENDBRANCH  19  20
ENDBRANCH  18  19
ENDBRANCH  16  18
BRANCH  16  29
HETATM   29  O   UNK N   1      33.483  15.053  11.042  0.00  0.00    -0.384 OA
HETATM   30  H   UNK N   1      32.759  14.513  11.398  0.00  0.00     0.210 HD
ENDBRANCH  16  29
ENDBRANCH  15  16
BRANCH  15  31
HETATM   31  O   UNK N   1      36.878  16.156  10.817  0.00  0.00    -0.374 OA
HETATM   32  H   UNK N   1      37.246  15.814   9.988  0.00  0.00     0.212 HD
ENDBRANCH  15  31
ENDBRANCH  13  15
ENDBRANCH   1  13
TORSDOF 10
ENDMDL
MODEL 3
REMARK VINA RESULT:      -7.2     12.084     15.090
REMARK  10 active torsions:
REMARK  status: ('A' for Active; 'I' for Inactive)
REMARK    1  A    between atoms: C_3  and  N_4 
REMARK    2  A    between atoms: C_9  and  O_10 
REMARK    3  A    between atoms: O_10  and  C_11 
REMARK    4  A    between atoms: C_11  and  C_12 
REMARK    5  A    between atoms: C_12  and  O_13 
REMARK    6  A    between atoms: C_12  and  C_15 
REMARK    7  A    between atoms: C_15  and  O_16 
REMARK    8  A    between atoms: C_15  and  N_17 
REMARK    9  A    between atoms: N_17  and  C_18 
REMARK   10  A    between atoms: C_25  and  C_26 
ROOT
HETATM    1  C   UNK N   1      29.875  17.039   7.086  0.00  0.00     0.030 C 
HETATM    2  C   UNK N   1      30.952  16.565   6.393  0.00  0.00     0.047 C 
HETATM    3  C   UNK N   1      30.057  17.707   8.288  0.00  0.00     0.031 C 
HETATM    4  C   UNK N   1      31.372  17.981   8.690  0.00  0.00     0.026 C 
HETATM    5  C   UNK N   1      32.438  17.698   7.798  0.00  0.00     0.059 C 
HETATM    6  C   UNK N   1      33.701  18.318   7.989  0.00  0.00     0.100 C 
HETATM    7  N   UNK N   1      34.715  18.836   8.170  0.00  0.00    -0.191 NA
HETATM    8  C   UNK N   1      32.197  16.972   6.632  0.00  0.00     0.070 C 
ENDROOT
BRANCH   8   9
HETATM    9  C   UNK N   1      33.126  16.911   5.443  0.00  0.00     0.419 C 
HETATM   10  F   UNK N   1      33.403  18.149   4.919  0.00  0.00    -0.166 F 
HETATM   11  F   UNK N   1      32.524  16.100   4.496  0.00  0.00    -0.166 F 
HETATM   12  F   UNK N   1      34.332  16.298   5.771  0.00  0.00    -0.166 F 
ENDBRANCH   8   9
BRANCH   1  13
HETATM   13  N   UNK N   1      28.792  17.378   6.260  0.00  0.00    -0.361 N 
HETATM   14  H   UNK N   1      27.932  16.905   6.345  0.00  0.00     0.162 HD
BRANCH  13  15
HETATM   15  C   UNK N   1      28.960  18.440   5.276  0.00  0.00     0.254 C 
BRANCH  15  16
HETATM   16  C   UNK N   1      27.761  19.412   5.478  0.00  0.00     0.119 C 
HETATM   17  C   UNK N   1      27.586  19.940   6.894  0.00  0.00     0.053 C 
BRANCH  16  18
HETATM   18  C   UNK N   1      26.627  18.523   5.182  0.00  0.00     0.217 C 
BRANCH  18  19
HETATM   19  O   UNK N   1      25.610  19.415   4.910  0.00  0.00    -0.348 OA
BRANCH  19  20
HETATM   20  C   UNK N   1      24.720  19.174   4.025  0.00  0.00     0.069 C 
HETATM   21  C   UNK N   1      24.369  20.205   3.169  0.00  0.00     0.039 C 
HETATM   22  C   UNK N   1      23.048  20.347   2.866  0.00  0.00     0.039 C 
HETATM   23  C   UNK N   1      22.129  19.441   3.410  0.00  0.00     0.103 C 
HETATM   24  C   UNK N   1      22.560  18.279   4.063  0.00  0.00     0.039 C 
HETATM   25  C   UNK N   1      23.885  18.138   4.357  0.00  0.00     0.039 C 
BRANCH  23  26
HETATM   26  N   UNK N   1      20.766  19.757   3.407  0.00  0.00    -0.116 N 
HETATM   27  O   UNK N   1      20.353  20.850   4.008  0.00  0.00    -0.532 OA
HETATM   28  O   UNK N   1      20.014  19.140   2.718  0.00  0.00    -0.532 OA
ENDBRANCH  23  26
ENDBRANCH  19  20
ENDBRANCH  18  19
ENDBRANCH  16  18
BRANCH  16  29
HETATM   29  O   UNK N   1      27.760  20.506   4.599  0.00  0.00    -0.384 OA
HETATM   30  H   UNK N   1      27.377  20.780   3.751  0.00  0.00     0.210 HD
ENDBRANCH  16  29
ENDBRANCH  15  16
BRANCH  15  31
HETATM   31  O   UNK N   1      29.073  18.025   3.944  0.00  0.00    -0.374 OA
HETATM   32  H   UNK N   1      28.282  17.781   3.439  0.00  0.00     0.212 HD
ENDBRANCH  15  31
ENDBRANCH  13  15
ENDBRANCH   1  13
TORSDOF 10
ENDMDL
MODEL 4
REMARK VINA RESULT:      -7.2     12.004     14.643
REMARK  10 active torsions:
REMARK  status: ('A' for Active; 'I' for Inactive)
REMARK    1  A    between atoms: C_3  and  N_4 
REMARK    2  A    between atoms: C_9  and  O_10 
REMARK    3  A    between atoms: O_10  and  C_11 
REMARK    4  A    between atoms: C_11  and  C_12 
REMARK    5  A    between atoms: C_12  and  O_13 
REMARK    6  A    between atoms: C_12  and  C_15 
REMARK    7  A    between atoms: C_15  and  O_16 
REMARK    8  A    between atoms: C_15  and  N_17 
REMARK    9  A    between atoms: N_17  and  C_18 
REMARK   10  A    between atoms: C_25  and  C_26 
ROOT
HETATM    1  C   UNK N   1      26.472  18.346   4.833  0.00  0.00     0.030 C 
HETATM    2  C   UNK N   1      25.285  17.764   4.493  0.00  0.00     0.047 C 
HETATM    3  C   UNK N   1      26.821  19.581   4.306  0.00  0.00     0.031 C 
HETATM    4  C   UNK N   1      25.866  20.250   3.527  0.00  0.00     0.026 C 
HETATM    5  C   UNK N   1      24.557  19.713   3.430  0.00  0.00     0.059 C 
HETATM    6  C   UNK N   1      23.484  20.542   3.007  0.00  0.00     0.100 C 
HETATM    7  N   UNK N   1      22.633  21.239   2.661  0.00  0.00    -0.191 NA
HETATM    8  C   UNK N   1      24.286  18.441   3.930  0.00  0.00     0.070 C 
ENDROOT
BRANCH   8   9
HETATM    9  C   UNK N   1      22.907  17.900   4.223  0.00  0.00     0.419 C 
HETATM   10  F   UNK N   1      22.050  18.021   3.158  0.00  0.00    -0.166 F 
HETATM   11  F   UNK N   1      22.423  18.586   5.324  0.00  0.00    -0.166 F 
HETATM   12  F   UNK N   1      22.955  16.558   4.590  0.00  0.00    -0.166 F 
ENDBRANCH   8   9
BRANCH   1  13
HETATM   13  N   UNK N   1      26.917  17.988   6.115  0.00  0.00    -0.361 N 
HETATM   14  H   UNK N   1      26.683  17.111   6.499  0.00  0.00     0.162 HD
BRANCH  13  15
HETATM   15  C   UNK N   1      27.730  18.934   6.870  0.00  0.00     0.254 C 
BRANCH  15  16
HETATM   16  C   UNK N   1      28.576  18.082   7.862  0.00  0.00     0.119 C 
HETATM   17  C   UNK N   1      29.386  18.879   8.874  0.00  0.00     0.053 C 
BRANCH  16  18
HETATM   18  C   UNK N   1      29.517  17.429   6.939  0.00  0.00     0.217 C 
BRANCH  18  19
HETATM   19  O   UNK N   1      30.198  16.563   7.769  0.00  0.00    -0.348 OA
BRANCH  19  20
HETATM   20  C   UNK N   1      31.457  16.372   7.658  0.00  0.00     0.069 C 
HETATM   21  C   UNK N   1      32.101  15.715   8.695  0.00  0.00     0.039 C 
HETATM   22  C   UNK N   1      33.324  16.184   9.070  0.00  0.00     0.039 C 
HETATM   23  C   UNK N   1      33.870  17.275   8.382  0.00  0.00     0.103 C 
HETATM   24  C   UNK N   1      33.295  17.741   7.193  0.00  0.00     0.039 C 
HETATM   25  C   UNK N   1      32.073  17.262   6.817  0.00  0.00     0.039 C 
BRANCH  23  26
HETATM   26  N   UNK N   1      34.932  17.985   8.951  0.00  0.00    -0.116 N 
HETATM   27  O   UNK N   1      35.276  19.150   8.451  0.00  0.00    -0.532 OA
HETATM   28  O   UNK N   1      35.404  17.622   9.985  0.00  0.00    -0.532 OA
ENDBRANCH  23  26
ENDBRANCH  19  20
ENDBRANCH  18  19
ENDBRANCH  16  18
BRANCH  16  29
HETATM   29  O   UNK N   1      27.833  17.116   8.559  0.00  0.00    -0.384 OA
HETATM   30  H   UNK N   1      27.469  16.224   8.436  0.00  0.00     0.210 HD
ENDBRANCH  16  29
ENDBRANCH  15  16
BRANCH  15  31
HETATM   31  O   UNK N   1      27.030  19.952   7.527  0.00  0.00    -0.374 OA
HETATM   32  H   UNK N   1      26.098  19.830   7.766  0.00  0.00     0.212 HD
ENDBRANCH  15  31
ENDBRANCH  13  15
ENDBRANCH   1  13
TORSDOF 10
ENDMDL
MODEL 5
REMARK VINA RESULT:      -7.1      2.111      2.406
REMARK  10 active torsions:
REMARK  status: ('A' for Active; 'I' for Inactive)
REMARK    1  A    between atoms: C_3  and  N_4 
REMARK    2  A    between atoms: C_9  and  O_10 
REMARK    3  A    between atoms: O_10  and  C_11 
REMARK    4  A    between atoms: C_11  and  C_12 
REMARK    5  A    between atoms: C_12  and  O_13 
REMARK    6  A    between atoms: C_12  and  C_15 
REMARK    7  A    between atoms: C_15  and  O_16 
REMARK    8  A    between atoms: C_15  and  N_17 
REMARK    9  A    between atoms: N_17  and  C_18 
REMARK   10  A    between atoms: C_25  and  C_26 
ROOT
HETATM    1  C   UNK N   1      25.558  25.230  -6.511  0.00  0.00     0.030 C 
HETATM    2  C   UNK N   1      26.029  24.689  -5.349  0.00  0.00     0.047 C 
HETATM    3  C   UNK N   1      25.135  26.551  -6.546  0.00  0.00     0.031 C 
HETATM    4  C   UNK N   1      25.325  27.327  -5.393  0.00  0.00     0.026 C 
HETATM    5  C   UNK N   1      26.061  26.782  -4.310  0.00  0.00     0.059 C 
HETATM    6  C   UNK N   1      26.612  27.645  -3.326  0.00  0.00     0.100 C 
HETATM    7  N   UNK N   1      27.048  28.371  -2.543  0.00  0.00    -0.191 NA
HETATM    8  C   UNK N   1      26.407  25.432  -4.311  0.00  0.00     0.070 C 
ENDROOT
BRANCH   8   9
HETATM    9  C   UNK N   1      27.468  24.808  -3.436  0.00  0.00     0.419 C 
HETATM   10  F   UNK N   1      28.646  25.512  -3.444  0.00  0.00    -0.166 F 
HETATM   11  F   UNK N   1      27.665  23.515  -3.890  0.00  0.00    -0.166 F 
HETATM   12  F   UNK N   1      27.039  24.697  -2.117  0.00  0.00    -0.166 F 
ENDBRANCH   8   9
BRANCH   1  13
HETATM   13  N   UNK N   1      26.123  24.653  -7.659  0.00  0.00    -0.361 N 
HETATM   14  H   UNK N   1      26.660  25.197  -8.280  0.00  0.00     0.162 HD
BRANCH  13  15
HETATM   15  C   UNK N   1      25.903  23.235  -7.918  0.00  0.00     0.254 C 
BRANCH  15  16
HETATM   16  C   UNK N   1      27.182  22.723  -8.642  0.00  0.00     0.119 C 
HETATM   17  C   UNK N   1      26.933  21.785  -9.814  0.00  0.00     0.053 C 
BRANCH  16  18
HETATM   18  C   UNK N   1      27.822  21.948  -7.568  0.00  0.00     0.217 C 
BRANCH  18  19
HETATM   19  O   UNK N   1      28.566  22.905  -6.910  0.00  0.00    -0.348 OA
BRANCH  19  20
HETATM   20  C   UNK N   1      29.669  22.620  -6.329  0.00  0.00     0.069 C 
HETATM   21  C   UNK N   1      29.807  21.347  -5.801  0.00  0.00     0.039 C 
HETATM   22  C   UNK N   1      30.418  21.234  -4.588  0.00  0.00     0.039 C 
HETATM   23  C   UNK N   1      30.889  22.393  -3.958  0.00  0.00     0.103 C 
HETATM   24  C   UNK N   1      30.946  23.614  -4.641  0.00  0.00     0.039 C 
HETATM   25  C   UNK N   1      30.340  23.720  -5.860  0.00  0.00     0.039 C 
BRANCH  23  26
HETATM   26  N   UNK N   1      31.195  22.358  -2.594  0.00  0.00    -0.116 N 
HETATM   27  O   UNK N   1      32.220  21.649  -2.177  0.00  0.00    -0.532 OA
HETATM   28  O   UNK N   1      30.644  23.101  -1.842  0.00  0.00    -0.532 OA
ENDBRANCH  23  26
ENDBRANCH  19  20
ENDBRANCH  18  19
ENDBRANCH  16  18
BRANCH  16  29
HETATM   29  O   UNK N   1      28.039  23.747  -9.075  0.00  0.00    -0.384 OA
HETATM   30  H   UNK N   1      28.607  24.446  -8.714  0.00  0.00     0.210 HD
ENDBRANCH  16  29
ENDBRANCH  15  16
BRANCH  15  31
HETATM   31  O   UNK N   1      24.741  22.918  -8.631  0.00  0.00    -0.374 OA
HETATM   32  H   UNK N   1      24.795  22.654  -9.563  0.00  0.00     0.212 HD
ENDBRANCH  15  31
ENDBRANCH  13  15
ENDBRANCH   1  13
TORSDOF 10
ENDMDL
MODEL 6
REMARK VINA RESULT:      -7.1     11.614     14.992
REMARK  10 active torsions:
REMARK  status: ('A' for Active; 'I' for Inactive)
REMARK    1  A    between atoms: C_3  and  N_4 
REMARK    2  A    between atoms: C_9  and  O_10 
REMARK    3  A    between atoms: O_10  and  C_11 
REMARK    4  A    between atoms: C_11  and  C_12 
REMARK    5  A    between atoms: C_12  and  O_13 
REMARK    6  A    between atoms: C_12  and  C_15 
REMARK    7  A    between atoms: C_15  and  O_16 
REMARK    8  A    between atoms: C_15  and  N_17 
REMARK    9  A    between atoms: N_17  and  C_18 
REMARK   10  A    between atoms: C_25  and  C_26 
ROOT
HETATM    1  C   UNK N   1      30.041  17.089   7.007  0.00  0.00     0.030 C 
HETATM    2  C   UNK N   1      31.130  16.603   6.343  0.00  0.00     0.047 C 
HETATM    3  C   UNK N   1      30.199  17.761   8.211  0.00  0.00     0.031 C 
HETATM    4  C   UNK N   1      31.507  18.024   8.644  0.00  0.00     0.026 C 
HETATM    5  C   UNK N   1      32.591  17.727   7.779  0.00  0.00     0.059 C 
HETATM    6  C   UNK N   1      33.856  18.336   7.999  0.00  0.00     0.100 C 
HETATM    7  N   UNK N   1      34.870  18.845   8.203  0.00  0.00    -0.191 NA
HETATM    8  C   UNK N   1      32.373  16.999   6.611  0.00  0.00     0.070 C 
ENDROOT
BRANCH   8   9
HETATM    9  C   UNK N   1      33.329  16.923   5.446  0.00  0.00     0.419 C 
HETATM   10  F   UNK N   1      34.572  16.462   5.804  0.00  0.00    -0.166 F 
HETATM   11  F   UNK N   1      33.415  18.195   4.903  0.00  0.00    -0.166 F 
HETATM   12  F   UNK N   1      32.837  16.102   4.436  0.00  0.00    -0.166 F 
ENDBRANCH   8   9
BRANCH   1  13
HETATM   13  N   UNK N   1      28.982  17.435   6.153  0.00  0.00    -0.361 N 
HETATM   14  H   UNK N   1      29.014  18.269   5.629  0.00  0.00     0.162 HD
BRANCH  13  15
HETATM   15  C   UNK N   1      27.834  16.541   6.054  0.00  0.00     0.254 C 
BRANCH  15  16
HETATM   16  C   UNK N   1      27.579  16.332   4.533  0.00  0.00     0.119 C 
HETATM   17  C   UNK N   1      28.320  17.291   3.613  0.00  0.00     0.053 C 
BRANCH  16  18
HETATM   18  C   UNK N   1      26.142  16.636   4.445  0.00  0.00     0.217 C 
BRANCH  18  19
HETATM   19  O   UNK N   1      26.134  17.869   3.826  0.00  0.00    -0.348 OA
BRANCH  19  20
HETATM   20  C   UNK N   1      25.248  18.751   4.091  0.00  0.00     0.069 C 
HETATM   21  C   UNK N   1      24.009  18.307   4.524  0.00  0.00     0.039 C 
HETATM   22  C   UNK N   1      22.909  18.946   4.036  0.00  0.00     0.039 C 
HETATM   23  C   UNK N   1      23.085  20.019   3.153  0.00  0.00     0.103 C 
HETATM   24  C   UNK N   1      24.351  20.581   2.943  0.00  0.00     0.039 C 
HETATM   25  C   UNK N   1      25.450  19.942   3.441  0.00  0.00     0.039 C 
BRANCH  23  26
HETATM   26  N   UNK N   1      22.006  20.458   2.380  0.00  0.00    -0.116 N 
HETATM   27  O   UNK N   1      20.966  21.005   2.968  0.00  0.00    -0.532 OA
HETATM   28  O   UNK N   1      22.103  20.499   1.192  0.00  0.00    -0.532 OA
ENDBRANCH  23  26
ENDBRANCH  19  20
ENDBRANCH  18  19
ENDBRANCH  16  18
BRANCH  16  29
HETATM   29  O   UNK N   1      27.824  15.023   4.090  0.00  0.00    -0.384 OA
HETATM   30  H   UNK N   1      28.192  14.552   3.325  0.00  0.00     0.210 HD
ENDBRANCH  16  29
ENDBRANCH  15  16
BRANCH  15  31
HETATM   31  O   UNK N   1      26.677  16.959   6.722  0.00  0.00    -0.374 OA
HETATM   32  H   UNK N   1      26.630  17.845   7.113  0.00  0.00     0.212 HD
ENDBRANCH  15  31
ENDBRANCH  13  15
ENDBRANCH   1  13
TORSDOF 10
ENDMDL
MODEL 7
REMARK VINA RESULT:      -7.1     18.563     22.667
REMARK  10 active torsions:
REMARK  status: ('A' for Active; 'I' for Inactive)
REMARK    1  A    between atoms: C_3  and  N_4 
REMARK    2  A    between atoms: C_9  and  O_10 
REMARK    3  A    between atoms: O_10  and  C_11 
REMARK    4  A    between atoms: C_11  and  C_12 
REMARK    5  A    between atoms: C_12  and  O_13 
REMARK    6  A    between atoms: C_12  and  C_15 
REMARK    7  A    between atoms: C_15  and  O_16 
REMARK    8  A    between atoms: C_15  and  N_17 
REMARK    9  A    between atoms: N_17  and  C_18 
REMARK   10  A    between atoms: C_25  and  C_26 
ROOT
HETATM    1  C   UNK N   1      35.861  14.021  13.613  0.00  0.00     0.030 C 
HETATM    2  C   UNK N   1      34.940  13.018  13.713  0.00  0.00     0.047 C 
HETATM    3  C   UNK N   1      36.686  14.323  14.687  0.00  0.00     0.031 C 
HETATM    4  C   UNK N   1      36.621  13.489  15.813  0.00  0.00     0.026 C 
HETATM    5  C   UNK N   1      35.836  12.309  15.752  0.00  0.00     0.059 C 
HETATM    6  C   UNK N   1      36.063  11.262  16.685  0.00  0.00     0.100 C 
HETATM    7  N   UNK N   1      36.269  10.430  17.456  0.00  0.00    -0.191 NA
HETATM    8  C   UNK N   1      34.985  12.093  14.670  0.00  0.00     0.070 C 
ENDROOT
BRANCH   8   9
HETATM    9  C   UNK N   1      34.383  10.761  14.294  0.00  0.00     0.419 C 
HETATM   10  F   UNK N   1      35.303   9.742  14.285  0.00  0.00    -0.166 F 
HETATM   11  F   UNK N   1      33.805  10.911  13.044  0.00  0.00    -0.166 F 
HETATM   12  F   UNK N   1      33.352  10.406  15.159  0.00  0.00    -0.166 F 
ENDBRANCH   8   9
BRANCH   1  13
HETATM   13  N   UNK N   1      36.330  14.212  12.304  0.00  0.00    -0.361 N 
HETATM   14  H   UNK N   1      36.899  13.534  11.872  0.00  0.00     0.162 HD
BRANCH  13  15
HETATM   15  C   UNK N   1      35.959  15.430  11.592  0.00  0.00     0.254 C 
BRANCH  15  16
HETATM   16  C   UNK N   1      34.778  15.042  10.655  0.00  0.00     0.119 C 
HETATM   17  C   UNK N   1      34.988  13.776   9.838  0.00  0.00     0.053 C 
BRANCH  16  18
HETATM   18  C   UNK N   1      34.767  16.184   9.729  0.00  0.00     0.217 C 
BRANCH  18  19
HETATM   19  O   UNK N   1      34.006  15.712   8.680  0.00  0.00    -0.348 OA
BRANCH  19  20
HETATM   20  C   UNK N   1      33.133  16.442   8.097  0.00  0.00     0.069 C 
HETATM   21  C   UNK N   1      33.296  17.816   8.165  0.00  0.00     0.039 C 
HETATM   22  C   UNK N   1      32.178  18.570   8.365  0.00  0.00     0.039 C 
HETATM   23  C   UNK N   1      30.938  17.928   8.466  0.00  0.00     0.103 C 
HETATM   24  C   UNK N   1      30.798  16.572   8.145  0.00  0.00     0.039 C 
HETATM   25  C   UNK N   1      31.920  15.822   7.938  0.00  0.00     0.039 C 
BRANCH  23  26
HETATM   26  N   UNK N   1      29.848  18.618   9.007  0.00  0.00    -0.116 N 
HETATM   27  O   UNK N   1      28.901  19.061   8.211  0.00  0.00    -0.532 OA
HETATM   28  O   UNK N   1      29.691  18.648  10.188  0.00  0.00    -0.532 OA
ENDBRANCH  23  26
ENDBRANCH  19  20
ENDBRANCH  18  19
ENDBRANCH  16  18
BRANCH  16  29
HETATM   29  O   UNK N   1      33.541  14.939  11.312  0.00  0.00    -0.384 OA
HETATM   30  H   UNK N   1      32.637  14.625  11.152  0.00  0.00     0.210 HD
ENDBRANCH  16  29
ENDBRANCH  15  16
BRANCH  15  31
HETATM   31  O   UNK N   1      36.991  16.063  10.890  0.00  0.00    -0.374 OA
HETATM   32  H   UNK N   1      37.444  15.605  10.166  0.00  0.00     0.212 HD
ENDBRANCH  15  31
ENDBRANCH  13  15
ENDBRANCH   1  13
TORSDOF 10
ENDMDL
MODEL 8
REMARK VINA RESULT:      -6.9     19.136     23.268
REMARK  10 active torsions:
REMARK  status: ('A' for Active; 'I' for Inactive)
REMARK    1  A    between atoms: C_3  and  N_4 
REMARK    2  A    between atoms: C_9  and  O_10 
REMARK    3  A    between atoms: O_10  and  C_11 
REMARK    4  A    between atoms: C_11  and  C_12 
REMARK    5  A    between atoms: C_12  and  O_13 
REMARK    6  A    between atoms: C_12  and  C_15 
REMARK    7  A    between atoms: C_15  and  O_16 
REMARK    8  A    between atoms: C_15  and  N_17 
REMARK    9  A    between atoms: N_17  and  C_18 
REMARK   10  A    between atoms: C_25  and  C_26 
ROOT
HETATM    1  C   UNK N   1      37.000  13.299  13.999  0.00  0.00     0.030 C 
HETATM    2  C   UNK N   1      36.648  13.581  15.288  0.00  0.00     0.047 C 
HETATM    3  C   UNK N   1      37.055  11.983  13.562  0.00  0.00     0.031 C 
HETATM    4  C   UNK N   1      36.619  10.984  14.445  0.00  0.00     0.026 C 
HETATM    5  C   UNK N   1      36.016  11.364  15.671  0.00  0.00     0.059 C 
HETATM    6  C   UNK N   1      35.216  10.431  16.383  0.00  0.00     0.100 C 
HETATM    7  N   UNK N   1      34.572   9.652  16.938  0.00  0.00    -0.191 NA
HETATM    8  C   UNK N   1      36.046  12.696  16.080  0.00  0.00     0.070 C 
ENDROOT
BRANCH   8   9
HETATM    9  C   UNK N   1      35.159  13.296  17.144  0.00  0.00     0.419 C 
HETATM   10  F   UNK N   1      35.038  12.495  18.252  0.00  0.00    -0.166 F 
HETATM   11  F   UNK N   1      33.921  13.523  16.565  0.00  0.00    -0.166 F 
HETATM   12  F   UNK N   1      35.629  14.539  17.556  0.00  0.00    -0.166 F 
ENDBRANCH   8   9
BRANCH   1  13
HETATM   13  N   UNK N   1      36.656  14.316  13.096  0.00  0.00    -0.361 N 
HETATM   14  H   UNK N   1      37.011  15.228  13.211  0.00  0.00     0.162 HD
BRANCH  13  15
HETATM   15  C   UNK N   1      35.764  14.003  11.986  0.00  0.00     0.254 C 
BRANCH  15  16
HETATM   16  C   UNK N   1      35.956  15.142  10.942  0.00  0.00     0.119 C 
HETATM   17  C   UNK N   1      35.469  16.515  11.384  0.00  0.00     0.053 C 
BRANCH  16  18
HETATM   18  C   UNK N   1      35.080  14.678   9.856  0.00  0.00     0.217 C 
BRANCH  18  19
HETATM   19  O   UNK N   1      35.260  15.647   8.890  0.00  0.00    -0.348 OA
BRANCH  19  20
HETATM   20  C   UNK N   1      34.289  16.083   8.183  0.00  0.00     0.069 C 
HETATM   21  C   UNK N   1      34.221  17.449   7.957  0.00  0.00     0.039 C 
HETATM   22  C   UNK N   1      32.991  18.032   8.013  0.00  0.00     0.039 C 
HETATM   23  C   UNK N   1      31.872  17.228   8.267  0.00  0.00     0.103 C 
HETATM   24  C   UNK N   1      31.965  15.831   8.241  0.00  0.00     0.039 C 
HETATM   25  C   UNK N   1      33.199  15.251   8.177  0.00  0.00     0.039 C 
BRANCH  23  26
HETATM   26  N   UNK N   1      30.673  17.825   8.670  0.00  0.00    -0.116 N 
HETATM   27  O   UNK N   1      29.565  17.120   8.669  0.00  0.00    -0.532 OA
HETATM   28  O   UNK N   1      30.687  18.905   9.175  0.00  0.00    -0.532 OA
ENDBRANCH  23  26
ENDBRANCH  19  20
ENDBRANCH  18  19
ENDBRANCH  16  18
BRANCH  16  29
HETATM   29  O   UNK N   1      37.274  15.274  10.479  0.00  0.00    -0.384 OA
HETATM   30  H   UNK N   1      37.798  15.813   9.865  0.00  0.00     0.210 HD
ENDBRANCH  16  29
ENDBRANCH  15  16
BRANCH  15  31
HETATM   31  O   UNK N   1      34.416  13.825  12.317  0.00  0.00    -0.374 OA
HETATM   32  H   UNK N   1      33.720  14.220  11.770  0.00  0.00     0.212 HD
ENDBRANCH  15  31
ENDBRANCH  13  15
ENDBRANCH   1  13
TORSDOF 10
ENDMDL
MODEL 9
REMARK VINA RESULT:      -6.8     17.366     21.068
REMARK  10 active torsions:
REMARK  status: ('A' for Active; 'I' for Inactive)
REMARK    1  A    between atoms: C_3  and  N_4 
REMARK    2  A    between atoms: C_9  and  O_10 
REMARK    3  A    between atoms: O_10  and  C_11 
REMARK    4  A    between atoms: C_11  and  C_12 
REMARK    5  A    between atoms: C_12  and  O_13 
REMARK    6  A    between atoms: C_12  and  C_15 
REMARK    7  A    between atoms: C_15  and  O_16 
REMARK    8  A    between atoms: C_15  and  N_17 
REMARK    9  A    between atoms: N_17  and  C_18 
REMARK   10  A    between atoms: C_25  and  C_26 
ROOT
HETATM    1  C   UNK N   1      34.586  14.520   7.694  0.00  0.00     0.030 C 
HETATM    2  C   UNK N   1      33.656  15.490   7.451  0.00  0.00     0.047 C 
HETATM    3  C   UNK N   1      34.958  13.641   6.687  0.00  0.00     0.031 C 
HETATM    4  C   UNK N   1      34.443  13.865   5.402  0.00  0.00     0.026 C 
HETATM    5  C   UNK N   1      33.693  15.043   5.157  0.00  0.00     0.059 C 
HETATM    6  C   UNK N   1      33.511  15.499   3.824  0.00  0.00     0.100 C 
HETATM    7  N   UNK N   1      33.380  15.844   2.732  0.00  0.00    -0.191 NA
HETATM    8  C   UNK N   1      33.302  15.856   6.221  0.00  0.00     0.070 C 
ENDROOT
BRANCH   8   9
HETATM    9  C   UNK N   1      32.834  17.285   6.093  0.00  0.00     0.419 C 
HETATM   10  F   UNK N   1      31.627  17.395   5.448  0.00  0.00    -0.166 F 
HETATM   11  F   UNK N   1      33.819  17.979   5.411  0.00  0.00    -0.166 F 
HETATM   12  F   UNK N   1      32.718  17.895   7.338  0.00  0.00    -0.166 F 
ENDBRANCH   8   9
BRANCH   1  13
HETATM   13  N   UNK N   1      35.519  14.883   8.678  0.00  0.00    -0.361 N 
HETATM   14  H   UNK N   1      36.165  15.607   8.511  0.00  0.00     0.162 HD
BRANCH  13  15
HETATM   15  C   UNK N   1      35.516  14.171   9.951  0.00  0.00     0.254 C 
BRANCH  15  16
HETATM   16  C   UNK N   1      34.952  15.169  11.003  0.00  0.00     0.119 C 
HETATM   17  C   UNK N   1      35.135  16.641  10.664  0.00  0.00     0.053 C 
BRANCH  16  18
HETATM   18  C   UNK N   1      35.800  14.862  12.165  0.00  0.00     0.217 C 
BRANCH  18  19
HETATM   19  O   UNK N   1      35.043  13.935  12.852  0.00  0.00    -0.348 OA
BRANCH  19  20
HETATM   20  C   UNK N   1      35.488  13.336  13.890  0.00  0.00     0.069 C 
HETATM   21  C   UNK N   1      34.630  12.474  14.552  0.00  0.00     0.039 C 
HETATM   22  C   UNK N   1      34.648  12.494  15.914  0.00  0.00     0.039 C 
HETATM   23  C   UNK N   1      35.539  13.358  16.566  0.00  0.00     0.103 C 
HETATM   24  C   UNK N   1      36.549  14.021  15.858  0.00  0.00     0.039 C 
HETATM   25  C   UNK N   1      36.532  13.991  14.493  0.00  0.00     0.039 C 
BRANCH  23  26
HETATM   26  N   UNK N   1      35.344  13.654  17.918  0.00  0.00    -0.116 N 
HETATM   27  O   UNK N   1      35.201  12.675  18.783  0.00  0.00    -0.532 OA
HETATM   28  O   UNK N   1      35.484  14.772  18.308  0.00  0.00    -0.532 OA
ENDBRANCH  23  26
ENDBRANCH  19  20
ENDBRANCH  18  19
ENDBRANCH  16  18
BRANCH  16  29
HETATM   29  O   UNK N   1      33.601  14.958  11.322  0.00  0.00    -0.384 OA
HETATM   30  H   UNK N   1      32.994  14.237  11.553  0.00  0.00     0.210 HD
ENDBRANCH  16  29
ENDBRANCH  15  16
BRANCH  15  31
HETATM   31  O   UNK N   1      36.744  13.634  10.351  0.00  0.00    -0.374 OA
HETATM   32  H   UNK N   1      37.027  13.695  11.277  0.00  0.00     0.212 HD
ENDBRANCH  15  31
ENDBRANCH  13  15
ENDBRANCH   1  13
TORSDOF 10
ENDMDL
