MODEL 1
REMARK VINA RESULT:      -8.3      0.000      0.000
REMARK  8 active torsions:
REMARK  status: ('A' for Active; 'I' for Inactive)
REMARK    1  A    between atoms: C_2  and  C_5 
REMARK    2  A    between atoms: C_7  and  N_8 
REMARK    3  A    between atoms: C_13  and  N_14 
REMARK       I    between atoms: N_14  and  C_15 
REMARK    4  A    between atoms: C_15  and  C_17 
REMARK    5  A    between atoms: C_17  and  O_18 
REMARK    6  A    between atoms: C_17  and  C_20 
REMARK    7  A    between atoms: C_20  and  O_21 
REMARK    8  A    between atoms: O_21  and  C_22 
ROOT
HETATM    1  N   UNK N   1      21.349  17.118   5.774  0.00  0.00    -0.325 N 
HETATM    2  C   UNK N   1      20.735  17.482   6.935  0.00  0.00     0.258 C 
HETATM    3  O   UNK N   1      20.770  18.645   7.320  0.00  0.00    -0.270 OA
HETATM    4  H   UNK N   1      21.185  16.216   5.414  0.00  0.00     0.169 HD
ENDROOT
BRANCH   2   5
HETATM    5  C   UNK N   1      19.998  16.449   7.733  0.00  0.00     0.156 C 
HETATM    6  C   UNK N   1      18.820  17.046   8.490  0.00  0.00     0.059 C 
BRANCH   5   7
HETATM    7  O   UNK N   1      19.514  15.473   6.856  0.00  0.00    -0.378 OA
HETATM    8  H   UNK N   1      19.834  14.557   6.837  0.00  0.00     0.211 HD
ENDBRANCH   5   7
BRANCH   5   9
HETATM    9  C   UNK N   1      20.992  15.863   8.746  0.00  0.00     0.223 C 
BRANCH   9  10
HETATM   10  O   UNK N   1      21.199  14.522   8.520  0.00  0.00    -0.342 OA
BRANCH  10  11
HETATM   11  C   UNK N   1      21.753  13.675   9.416  0.00  0.00     0.152 A 
HETATM   12  C   UNK N   1      23.128  13.344   9.402  0.00  0.00     0.194 A 
HETATM   13  F   UNK N   1      23.961  13.845   8.453  0.00  0.00    -0.200 F 
HETATM   14  C   UNK N   1      23.642  12.475  10.371  0.00  0.00     0.199 A 
HETATM   15  F   UNK N   1      24.959  12.151  10.361  0.00  0.00    -0.199 F 
HETATM   16  C   UNK N   1      22.800  11.943  11.354  0.00  0.00     0.199 A 
HETATM   17  F   UNK N   1      23.302  11.111  12.300  0.00  0.00    -0.199 F 
HETATM   18  C   UNK N   1      21.441  12.269  11.363  0.00  0.00     0.199 A 
HETATM   19  F   UNK N   1      20.625  11.758  12.318  0.00  0.00    -0.199 F 
HETATM   20  C   UNK N   1      20.921  13.124  10.392  0.00  0.00     0.194 A 
HETATM   21  F   UNK N   1      19.602  13.446  10.411  0.00  0.00    -0.200 F 
ENDBRANCH  10  11
ENDBRANCH   9  10
ENDBRANCH   5   9
ENDBRANCH   2   5
BRANCH   1  22
HETATM   22  C   UNK N   1      22.215  17.986   5.065  0.00  0.00     0.035 A 
HETATM   23  C   UNK N   1      21.692  18.891   4.149  0.00  0.00     0.048 A 
HETATM   24  C   UNK N   1      22.490  19.743   3.387  0.00  0.00     0.083 A 
HETATM   25  C   UNK N   1      23.920  19.642   3.537  0.00  0.00     0.118 A 
HETATM   26  C   UNK N   1      24.424  18.756   4.518  0.00  0.00     0.039 A 
HETATM   27  C   UNK N   1      23.584  17.950   5.284  0.00  0.00     0.032 A 
BRANCH  24  28
HETATM   28  C   UNK N   1      21.681  20.692   2.513  0.00  0.00     0.419 C 
HETATM   29  F   UNK N   1      22.233  21.958   2.632  0.00  0.00    -0.166 F 
HETATM   30  F   UNK N   1      21.649  20.420   1.168  0.00  0.00    -0.166 F 
HETATM   31  F   UNK N   1      20.384  20.743   2.988  0.00  0.00    -0.166 F 
ENDBRANCH  24  28
BRANCH  25  32
HETATM   32  N   UNK N   1      24.882  20.346   2.740  0.00  0.00    -0.115 N 
HETATM   33  O   UNK N   1      25.954  20.597   3.203  0.00  0.00    -0.532 OA
HETATM   34  O   UNK N   1      24.721  20.483   1.444  0.00  0.00    -0.532 OA
ENDBRANCH  25  32
ENDBRANCH   1  22
TORSDOF 8
ENDMDL
MODEL 2
REMARK VINA RESULT:      -8.3     10.300     12.368
REMARK  8 active torsions:
REMARK  status: ('A' for Active; 'I' for Inactive)
REMARK    1  A    between atoms: C_2  and  C_5 
REMARK    2  A    between atoms: C_7  and  N_8 
REMARK    3  A    between atoms: C_13  and  N_14 
REMARK       I    between atoms: N_14  and  C_15 
REMARK    4  A    between atoms: C_15  and  C_17 
REMARK    5  A    between atoms: C_17  and  O_18 
REMARK    6  A    between atoms: C_17  and  C_20 
REMARK    7  A    between atoms: C_20  and  O_21 
REMARK    8  A    between atoms: O_21  and  C_22 
ROOT
HETATM    1  N   UNK N   1      33.010  15.796   9.261  0.00  0.00    -0.325 N 
HETATM    2  C   UNK N   1      34.199  16.421   9.493  0.00  0.00     0.258 C 
HETATM    3  O   UNK N   1      34.370  17.583   9.145  0.00  0.00    -0.270 OA
HETATM    4  H   UNK N   1      32.847  14.918   9.677  0.00  0.00     0.169 HD
ENDROOT
BRANCH   2   5
HETATM    5  C   UNK N   1      35.295  15.679  10.197  0.00  0.00     0.156 C 
HETATM    6  C   UNK N   1      36.052  14.752   9.257  0.00  0.00     0.059 C 
BRANCH   5   7
HETATM    7  O   UNK N   1      36.196  16.612  10.723  0.00  0.00    -0.378 OA
HETATM    8  H   UNK N   1      36.794  16.426  11.463  0.00  0.00     0.211 HD
ENDBRANCH   5   7
BRANCH   5   9
HETATM    9  C   UNK N   1      34.637  14.838  11.301  0.00  0.00     0.223 C 
BRANCH   9  10
HETATM   10  O   UNK N   1      35.516  13.910  11.809  0.00  0.00    -0.342 OA
BRANCH  10  11
HETATM   11  C   UNK N   1      35.409  13.351  13.035  0.00  0.00     0.152 A 
HETATM   12  C   UNK N   1      34.761  12.114  13.254  0.00  0.00     0.194 A 
HETATM   13  F   UNK N   1      34.178  11.437  12.231  0.00  0.00    -0.200 F 
HETATM   14  C   UNK N   1      34.703  11.579  14.546  0.00  0.00     0.199 A 
HETATM   15  F   UNK N   1      34.080  10.395  14.763  0.00  0.00    -0.199 F 
HETATM   16  C   UNK N   1      35.291  12.264  15.615  0.00  0.00     0.199 A 
HETATM   17  F   UNK N   1      35.245  11.739  16.865  0.00  0.00    -0.199 F 
HETATM   18  C   UNK N   1      35.928  13.488  15.397  0.00  0.00     0.199 A 
HETATM   19  F   UNK N   1      36.504  14.150  16.432  0.00  0.00    -0.199 F 
HETATM   20  C   UNK N   1      35.978  14.032  14.113  0.00  0.00     0.194 A 
HETATM   21  F   UNK N   1      36.607  15.216  13.905  0.00  0.00    -0.200 F 
ENDBRANCH  10  11
ENDBRANCH   9  10
ENDBRANCH   5   9
ENDBRANCH   2   5
BRANCH   1  22
HETATM   22  C   UNK N   1      32.000  16.361   8.445  0.00  0.00     0.035 A 
HETATM   23  C   UNK N   1      30.924  17.019   9.028  0.00  0.00     0.048 A 
HETATM   24  C   UNK N   1      29.875  17.559   8.286  0.00  0.00     0.083 A 
HETATM   25  C   UNK N   1      29.899  17.383   6.855  0.00  0.00     0.118 A 
HETATM   26  C   UNK N   1      31.033  16.762   6.282  0.00  0.00     0.039 A 
HETATM   27  C   UNK N   1      32.078  16.270   7.062  0.00  0.00     0.032 A 
BRANCH  24  28
HETATM   28  C   UNK N   1      28.855  18.295   9.145  0.00  0.00     0.419 C 
HETATM   29  F   UNK N   1      29.539  18.926  10.173  0.00  0.00    -0.166 F 
HETATM   30  F   UNK N   1      28.115  19.272   8.529  0.00  0.00    -0.166 F 
HETATM   31  F   UNK N   1      27.994  17.371   9.708  0.00  0.00    -0.166 F 
ENDBRANCH  24  28
BRANCH  25  32
HETATM   32  N   UNK N   1      28.840  17.758   5.963  0.00  0.00    -0.115 N 
HETATM   33  O   UNK N   1      29.103  18.361   4.966  0.00  0.00    -0.532 OA
HETATM   34  O   UNK N   1      27.643  17.231   6.070  0.00  0.00    -0.532 OA
ENDBRANCH  25  32
ENDBRANCH   1  22
TORSDOF 8
ENDMDL
MODEL 3
REMARK VINA RESULT:      -8.3      1.969      2.309
REMARK  8 active torsions:
REMARK  status: ('A' for Active; 'I' for Inactive)
REMARK    1  A    between atoms: C_2  and  C_5 
REMARK    2  A    between atoms: C_7  and  N_8 
REMARK    3  A    between atoms: C_13  and  N_14 
REMARK       I    between atoms: N_14  and  C_15 
REMARK    4  A    between atoms: C_15  and  C_17 
REMARK    5  A    between atoms: C_17  and  O_18 
REMARK    6  A    between atoms: C_17  and  C_20 
REMARK    7  A    between atoms: C_20  and  O_21 
REMARK    8  A    between atoms: O_21  and  C_22 
ROOT
HETATM    1  N   UNK N   1      22.127  15.905   5.465  0.00  0.00    -0.325 N 
HETATM    2  C   UNK N   1      22.342  14.707   4.851  0.00  0.00     0.258 C 
HETATM    3  O   UNK N   1      22.968  14.649   3.800  0.00  0.00    -0.270 OA
HETATM    4  H   UNK N   1      21.751  15.911   6.376  0.00  0.00     0.169 HD
ENDROOT
BRANCH   2   5
HETATM    5  C   UNK N   1      21.819  13.452   5.484  0.00  0.00     0.156 C 
HETATM    6  C   UNK N   1      20.452  13.661   6.121  0.00  0.00     0.059 C 
BRANCH   5   7
HETATM    7  O   UNK N   1      21.704  12.471   4.495  0.00  0.00    -0.378 OA
HETATM    8  H   UNK N   1      22.461  12.014   4.096  0.00  0.00     0.211 HD
ENDBRANCH   5   7
BRANCH   5   9
HETATM    9  C   UNK N   1      22.818  13.045   6.577  0.00  0.00     0.223 C 
BRANCH   9  10
HETATM   10  O   UNK N   1      22.569  13.713   7.752  0.00  0.00    -0.342 OA
BRANCH  10  11
HETATM   11  C   UNK N   1      22.669  13.158   8.981  0.00  0.00     0.152 A 
HETATM   12  C   UNK N   1      23.907  12.763   9.540  0.00  0.00     0.194 A 
HETATM   13  F   UNK N   1      25.065  12.896   8.843  0.00  0.00    -0.200 F 
HETATM   14  C   UNK N   1      23.944  12.213  10.826  0.00  0.00     0.199 A 
HETATM   15  F   UNK N   1      25.127  11.830  11.366  0.00  0.00    -0.199 F 
HETATM   16  C   UNK N   1      22.761  12.062  11.558  0.00  0.00     0.199 A 
HETATM   17  F   UNK N   1      22.799  11.540  12.809  0.00  0.00    -0.199 F 
HETATM   18  C   UNK N   1      21.538  12.449  11.002  0.00  0.00     0.199 A 
HETATM   19  F   UNK N   1      20.392  12.309  11.713  0.00  0.00    -0.199 F 
HETATM   20  C   UNK N   1      21.495  12.987   9.716  0.00  0.00     0.194 A 
HETATM   21  F   UNK N   1      20.306  13.371   9.185  0.00  0.00    -0.200 F 
ENDBRANCH  10  11
ENDBRANCH   9  10
ENDBRANCH   5   9
ENDBRANCH   2   5
BRANCH   1  22
HETATM   22  C   UNK N   1      22.423  17.143   4.843  0.00  0.00     0.035 A 
HETATM   23  C   UNK N   1      21.435  17.818   4.137  0.00  0.00     0.048 A 
HETATM   24  C   UNK N   1      21.670  19.017   3.466  0.00  0.00     0.083 A 
HETATM   25  C   UNK N   1      23.011  19.547   3.479  0.00  0.00     0.118 A 
HETATM   26  C   UNK N   1      23.984  18.873   4.254  0.00  0.00     0.039 A 
HETATM   27  C   UNK N   1      23.692  17.695   4.940  0.00  0.00     0.032 A 
BRANCH  24  28
HETATM   28  C   UNK N   1      20.414  19.600   2.831  0.00  0.00     0.419 C 
HETATM   29  F   UNK N   1      20.055  20.728   3.552  0.00  0.00    -0.166 F 
HETATM   30  F   UNK N   1      20.510  20.002   1.523  0.00  0.00    -0.166 F 
HETATM   31  F   UNK N   1      19.389  18.678   2.940  0.00  0.00    -0.166 F 
ENDBRANCH  24  28
BRANCH  25  32
HETATM   32  N   UNK N   1      23.450  20.692   2.735  0.00  0.00    -0.115 N 
HETATM   33  O   UNK N   1      22.934  21.750   2.932  0.00  0.00    -0.532 OA
HETATM   34  O   UNK N   1      24.569  20.667   2.048  0.00  0.00    -0.532 OA
ENDBRANCH  25  32
ENDBRANCH   1  22
TORSDOF 8
ENDMDL
MODEL 4
REMARK VINA RESULT:      -8.2     10.344     12.359
REMARK  8 active torsions:
REMARK  status: ('A' for Active; 'I' for Inactive)
REMARK    1  A    between atoms: C_2  and  C_5 
REMARK    2  A    between atoms: C_7  and  N_8 
REMARK    3  A    between atoms: C_13  and  N_14 
REMARK       I    between atoms: N_14  and  C_15 
REMARK    4  A    between atoms: C_15  and  C_17 
REMARK    5  A    between atoms: C_17  and  O_18 
REMARK    6  A    between atoms: C_17  and  C_20 
REMARK    7  A    between atoms: C_20  and  O_21 
REMARK    8  A    between atoms: O_21  and  C_22 
ROOT
HETATM    1  N   UNK N   1      33.156  15.767   9.302  0.00  0.00    -0.325 N 
HETATM    2  C   UNK N   1      34.347  16.387   9.542  0.00  0.00     0.258 C 
HETATM    3  O   UNK N   1      34.532  17.541   9.176  0.00  0.00    -0.270 OA
HETATM    4  H   UNK N   1      32.980  14.898   9.731  0.00  0.00     0.169 HD
ENDROOT
BRANCH   2   5
HETATM    5  C   UNK N   1      35.426  15.648  10.274  0.00  0.00     0.156 C 
HETATM    6  C   UNK N   1      36.199  14.711   9.357  0.00  0.00     0.059 C 
BRANCH   5   7
HETATM    7  O   UNK N   1      36.318  16.582  10.810  0.00  0.00    -0.378 OA
HETATM    8  H   UNK N   1      36.270  16.914  11.720  0.00  0.00     0.211 HD
ENDBRANCH   5   7
BRANCH   5   9
HETATM    9  C   UNK N   1      34.743  14.817  11.371  0.00  0.00     0.223 C 
BRANCH   9  10
HETATM   10  O   UNK N   1      35.613  13.901  11.913  0.00  0.00    -0.342 OA
BRANCH  10  11
HETATM   11  C   UNK N   1      35.461  13.335  13.132  0.00  0.00     0.152 A 
HETATM   12  C   UNK N   1      35.976  13.918  14.312  0.00  0.00     0.194 A 
HETATM   13  F   UNK N   1      36.686  15.076  14.270  0.00  0.00    -0.200 F 
HETATM   14  C   UNK N   1      35.767  13.291  15.545  0.00  0.00     0.199 A 
HETATM   15  F   UNK N   1      36.262  13.844  16.680  0.00  0.00    -0.199 F 
HETATM   16  C   UNK N   1      35.044  12.095  15.610  0.00  0.00     0.199 A 
HETATM   17  F   UNK N   1      34.831  11.494  16.807  0.00  0.00    -0.199 F 
HETATM   18  C   UNK N   1      34.539  11.518  14.441  0.00  0.00     0.199 A 
HETATM   19  F   UNK N   1      33.833  10.362  14.503  0.00  0.00    -0.199 F 
HETATM   20  C   UNK N   1      34.756  12.133  13.208  0.00  0.00     0.194 A 
HETATM   21  F   UNK N   1      34.254  11.574  12.077  0.00  0.00    -0.200 F 
ENDBRANCH  10  11
ENDBRANCH   9  10
ENDBRANCH   5   9
ENDBRANCH   2   5
BRANCH   1  22
HETATM   22  C   UNK N   1      32.162  16.326   8.462  0.00  0.00     0.035 A 
HETATM   23  C   UNK N   1      31.101  17.032   9.017  0.00  0.00     0.048 A 
HETATM   24  C   UNK N   1      30.068  17.570   8.251  0.00  0.00     0.083 A 
HETATM   25  C   UNK N   1      30.092  17.341   6.828  0.00  0.00     0.118 A 
HETATM   26  C   UNK N   1      31.213  16.671   6.282  0.00  0.00     0.039 A 
HETATM   27  C   UNK N   1      32.243  16.183   7.084  0.00  0.00     0.032 A 
BRANCH  24  28
HETATM   28  C   UNK N   1      29.065  18.362   9.078  0.00  0.00     0.419 C 
HETATM   29  F   UNK N   1      29.763  19.028  10.074  0.00  0.00    -0.166 F 
HETATM   30  F   UNK N   1      28.337  19.321   8.420  0.00  0.00    -0.166 F 
HETATM   31  F   UNK N   1      28.190  17.479   9.686  0.00  0.00    -0.166 F 
ENDBRANCH  24  28
BRANCH  25  32
HETATM   32  N   UNK N   1      29.046  17.708   5.918  0.00  0.00    -0.115 N 
HETATM   33  O   UNK N   1      29.331  18.196   4.866  0.00  0.00    -0.532 OA
HETATM   34  O   UNK N   1      27.816  17.283   6.089  0.00  0.00    -0.532 OA
ENDBRANCH  25  32
ENDBRANCH   1  22
TORSDOF 8
ENDMDL
MODEL 5
REMARK VINA RESULT:      -8.1      2.129      3.203
REMARK  8 active torsions:
REMARK  status: ('A' for Active; 'I' for Inactive)
REMARK    1  A    between atoms: C_2  and  C_5 
REMARK    2  A    between atoms: C_7  and  N_8 
REMARK    3  A    between atoms: C_13  and  N_14 
REMARK       I    between atoms: N_14  and  C_15 
REMARK    4  A    between atoms: C_15  and  C_17 
REMARK    5  A    between atoms: C_17  and  O_18 
REMARK    6  A    between atoms: C_17  and  C_20 
REMARK    7  A    between atoms: C_20  and  O_21 
REMARK    8  A    between atoms: O_21  and  C_22 
ROOT
HETATM    1  N   UNK N   1      22.896  15.737   5.540  0.00  0.00    -0.325 N 
HETATM    2  C   UNK N   1      23.233  14.570   4.921  0.00  0.00     0.258 C 
HETATM    3  O   UNK N   1      23.839  14.582   3.856  0.00  0.00    -0.270 OA
HETATM    4  H   UNK N   1      22.542  15.701   6.459  0.00  0.00     0.169 HD
ENDROOT
BRANCH   2   5
HETATM    5  C   UNK N   1      22.872  13.265   5.565  0.00  0.00     0.156 C 
HETATM    6  C   UNK N   1      22.129  12.343   4.608  0.00  0.00     0.059 C 
BRANCH   5   7
HETATM    7  O   UNK N   1      24.050  12.630   5.971  0.00  0.00    -0.378 OA
HETATM    8  H   UNK N   1      24.925  13.048   5.950  0.00  0.00     0.211 HD
ENDBRANCH   5   7
BRANCH   5   9
HETATM    9  C   UNK N   1      21.958  13.584   6.757  0.00  0.00     0.223 C 
BRANCH   9  10
HETATM   10  O   UNK N   1      22.687  13.995   7.847  0.00  0.00    -0.342 OA
BRANCH  10  11
HETATM   11  C   UNK N   1      22.666  13.384   9.053  0.00  0.00     0.152 A 
HETATM   12  C   UNK N   1      21.474  13.189   9.787  0.00  0.00     0.194 A 
HETATM   13  F   UNK N   1      20.281  13.642   9.320  0.00  0.00    -0.200 F 
HETATM   14  C   UNK N   1      21.517  12.530  11.021  0.00  0.00     0.199 A 
HETATM   15  F   UNK N   1      20.378  12.342  11.730  0.00  0.00    -0.199 F 
HETATM   16  C   UNK N   1      22.736  12.061  11.521  0.00  0.00     0.199 A 
HETATM   17  F   UNK N   1      22.777  11.412  12.712  0.00  0.00    -0.199 F 
HETATM   18  C   UNK N   1      23.915  12.259  10.797  0.00  0.00     0.199 A 
HETATM   19  F   UNK N   1      25.096  11.799  11.279  0.00  0.00    -0.199 F 
HETATM   20  C   UNK N   1      23.878  12.926   9.572  0.00  0.00     0.194 A 
HETATM   21  F   UNK N   1      25.024  13.106   8.866  0.00  0.00    -0.200 F 
ENDBRANCH  10  11
ENDBRANCH   9  10
ENDBRANCH   5   9
ENDBRANCH   2   5
BRANCH   1  22
HETATM   22  C   UNK N   1      23.034  16.999   4.912  0.00  0.00     0.035 A 
HETATM   23  C   UNK N   1      21.943  17.581   4.277  0.00  0.00     0.048 A 
HETATM   24  C   UNK N   1      22.021  18.799   3.604  0.00  0.00     0.083 A 
HETATM   25  C   UNK N   1      23.304  19.452   3.536  0.00  0.00     0.118 A 
HETATM   26  C   UNK N   1      24.384  18.870   4.240  0.00  0.00     0.039 A 
HETATM   27  C   UNK N   1      24.250  17.667   4.933  0.00  0.00     0.032 A 
BRANCH  24  28
HETATM   28  C   UNK N   1      20.678  19.263   3.057  0.00  0.00     0.419 C 
HETATM   29  F   UNK N   1      20.290  20.386   3.771  0.00  0.00    -0.166 F 
HETATM   30  F   UNK N   1      20.638  19.625   1.734  0.00  0.00    -0.166 F 
HETATM   31  F   UNK N   1      19.739  18.271   3.275  0.00  0.00    -0.166 F 
ENDBRANCH  24  28
BRANCH  25  32
HETATM   32  N   UNK N   1      23.585  20.636   2.776  0.00  0.00    -0.115 N 
HETATM   33  O   UNK N   1      22.918  21.611   2.946  0.00  0.00    -0.532 OA
HETATM   34  O   UNK N   1      24.707  20.763   2.106  0.00  0.00    -0.532 OA
ENDBRANCH  25  32
ENDBRANCH   1  22
TORSDOF 8
ENDMDL
MODEL 6
REMARK VINA RESULT:      -8.0      2.010      2.473
REMARK  8 active torsions:
REMARK  status: ('A' for Active; 'I' for Inactive)
REMARK    1  A    between atoms: C_2  and  C_5 
REMARK    2  A    between atoms: C_7  and  N_8 
REMARK    3  A    between atoms: C_13  and  N_14 
REMARK       I    between atoms: N_14  and  C_15 
REMARK    4  A    between atoms: C_15  and  C_17 
REMARK    5  A    between atoms: C_17  and  O_18 
REMARK    6  A    between atoms: C_17  and  C_20 
REMARK    7  A    between atoms: C_20  and  O_21 
REMARK    8  A    between atoms: O_21  and  C_22 
ROOT
HETATM    1  N   UNK N   1      21.332  17.129   5.747  0.00  0.00    -0.325 N 
HETATM    2  C   UNK N   1      20.765  17.595   6.896  0.00  0.00     0.258 C 
HETATM    3  O   UNK N   1      20.911  18.764   7.233  0.00  0.00    -0.270 OA
HETATM    4  H   UNK N   1      21.081  16.232   5.425  0.00  0.00     0.169 HD
ENDROOT
BRANCH   2   5
HETATM    5  C   UNK N   1      19.942  16.668   7.739  0.00  0.00     0.156 C 
HETATM    6  C   UNK N   1      18.861  17.410   8.514  0.00  0.00     0.059 C 
BRANCH   5   7
HETATM    7  O   UNK N   1      19.326  15.734   6.899  0.00  0.00    -0.378 OA
HETATM    8  H   UNK N   1      18.662  15.094   7.199  0.00  0.00     0.211 HD
ENDBRANCH   5   7
BRANCH   5   9
HETATM    9  C   UNK N   1      20.895  15.996   8.737  0.00  0.00     0.223 C 
BRANCH   9  10
HETATM   10  O   UNK N   1      20.954  14.638   8.531  0.00  0.00    -0.342 OA
BRANCH  10  11
HETATM   11  C   UNK N   1      21.576  13.767   9.357  0.00  0.00     0.152 A 
HETATM   12  C   UNK N   1      22.953  13.467   9.250  0.00  0.00     0.194 A 
HETATM   13  F   UNK N   1      23.719  14.024   8.276  0.00  0.00    -0.200 F 
HETATM   14  C   UNK N   1      23.542  12.572  10.151  0.00  0.00     0.199 A 
HETATM   15  F   UNK N   1      24.861  12.278  10.050  0.00  0.00    -0.199 F 
HETATM   16  C   UNK N   1      22.770  11.982  11.157  0.00  0.00     0.199 A 
HETATM   17  F   UNK N   1      23.343  11.124  12.037  0.00  0.00    -0.199 F 
HETATM   18  C   UNK N   1      21.407  12.277  11.259  0.00  0.00     0.199 A 
HETATM   19  F   UNK N   1      20.660  11.711  12.239  0.00  0.00    -0.199 F 
HETATM   20  C   UNK N   1      20.814  13.159  10.357  0.00  0.00     0.194 A 
HETATM   21  F   UNK N   1      19.492  13.451  10.466  0.00  0.00    -0.200 F 
ENDBRANCH  10  11
ENDBRANCH   9  10
ENDBRANCH   5   9
ENDBRANCH   2   5
BRANCH   1  22
HETATM   22  C   UNK N   1      22.269  17.884   5.000  0.00  0.00     0.035 A 
HETATM   23  C   UNK N   1      23.627  17.609   5.110  0.00  0.00     0.048 A 
HETATM   24  C   UNK N   1      24.604  18.341   4.437  0.00  0.00     0.083 A 
HETATM   25  C   UNK N   1      24.176  19.454   3.627  0.00  0.00     0.118 A 
HETATM   26  C   UNK N   1      22.786  19.675   3.484  0.00  0.00     0.039 A 
HETATM   27  C   UNK N   1      21.843  18.893   4.148  0.00  0.00     0.032 A 
BRANCH  24  28
HETATM   28  C   UNK N   1      26.010  17.801   4.659  0.00  0.00     0.419 C 
HETATM   29  F   UNK N   1      26.682  18.686   5.488  0.00  0.00    -0.166 F 
HETATM   30  F   UNK N   1      26.115  16.571   5.258  0.00  0.00    -0.166 F 
HETATM   31  F   UNK N   1      26.673  17.764   3.446  0.00  0.00    -0.166 F 
ENDBRANCH  24  28
BRANCH  25  32
HETATM   32  N   UNK N   1      25.054  20.384   2.978  0.00  0.00    -0.115 N 
HETATM   33  O   UNK N   1      26.015  20.786   3.562  0.00  0.00    -0.532 OA
HETATM   34  O   UNK N   1      24.982  20.597   1.685  0.00  0.00    -0.532 OA
ENDBRANCH  25  32
ENDBRANCH   1  22
TORSDOF 8
ENDMDL
MODEL 7
REMARK VINA RESULT:      -7.6      6.849      9.418
REMARK  8 active torsions:
REMARK  status: ('A' for Active; 'I' for Inactive)
REMARK    1  A    between atoms: C_2  and  C_5 
REMARK    2  A    between atoms: C_7  and  N_8 
REMARK    3  A    between atoms: C_13  and  N_14 
REMARK       I    between atoms: N_14  and  C_15 
REMARK    4  A    between atoms: C_15  and  C_17 
REMARK    5  A    between atoms: C_17  and  O_18 
REMARK    6  A    between atoms: C_17  and  C_20 
REMARK    7  A    between atoms: C_20  and  O_21 
REMARK    8  A    between atoms: O_21  and  C_22 
ROOT
HETATM    1  N   UNK N   1      28.511  18.055   6.435  0.00  0.00    -0.325 N 
HETATM    2  C   UNK N   1      28.650  18.292   7.771  0.00  0.00     0.258 C 
HETATM    3  O   UNK N   1      27.816  18.955   8.375  0.00  0.00    -0.270 OA
HETATM    4  H   UNK N   1      29.111  17.403   6.004  0.00  0.00     0.169 HD
ENDROOT
BRANCH   2   5
HETATM    5  C   UNK N   1      29.826  17.717   8.501  0.00  0.00     0.156 C 
HETATM    6  C   UNK N   1      30.812  18.793   8.933  0.00  0.00     0.059 C 
BRANCH   5   7
HETATM    7  O   UNK N   1      29.360  17.056   9.642  0.00  0.00    -0.378 OA
HETATM    8  H   UNK N   1      29.845  17.019  10.481  0.00  0.00     0.211 HD
ENDBRANCH   5   7
BRANCH   5   9
HETATM    9  C   UNK N   1      30.534  16.754   7.535  0.00  0.00     0.223 C 
BRANCH   9  10
HETATM   10  O   UNK N   1      31.578  17.375   6.892  0.00  0.00    -0.342 OA
BRANCH  10  11
HETATM   11  C   UNK N   1      32.137  16.933   5.743  0.00  0.00     0.152 A 
HETATM   12  C   UNK N   1      31.705  17.368   4.469  0.00  0.00     0.194 A 
HETATM   13  F   UNK N   1      30.671  18.240   4.339  0.00  0.00    -0.200 F 
HETATM   14  C   UNK N   1      32.340  16.887   3.319  0.00  0.00     0.199 A 
HETATM   15  F   UNK N   1      31.929  17.299   2.095  0.00  0.00    -0.199 F 
HETATM   16  C   UNK N   1      33.403  15.984   3.431  0.00  0.00     0.199 A 
HETATM   17  F   UNK N   1      34.026  15.527   2.316  0.00  0.00    -0.199 F 
HETATM   18  C   UNK N   1      33.826  15.552   4.691  0.00  0.00     0.199 A 
HETATM   19  F   UNK N   1      34.860  14.681   4.800  0.00  0.00    -0.199 F 
HETATM   20  C   UNK N   1      33.188  16.019   5.840  0.00  0.00     0.194 A 
HETATM   21  F   UNK N   1      33.609  15.604   7.062  0.00  0.00    -0.200 F 
ENDBRANCH  10  11
ENDBRANCH   9  10
ENDBRANCH   5   9
ENDBRANCH   2   5
BRANCH   1  22
HETATM   22  C   UNK N   1      27.538  18.712   5.643  0.00  0.00     0.035 A 
HETATM   23  C   UNK N   1      26.294  18.124   5.443  0.00  0.00     0.048 A 
HETATM   24  C   UNK N   1      25.308  18.694   4.640  0.00  0.00     0.083 A 
HETATM   25  C   UNK N   1      25.620  19.927   3.961  0.00  0.00     0.118 A 
HETATM   26  C   UNK N   1      26.869  20.536   4.228  0.00  0.00     0.039 A 
HETATM   27  C   UNK N   1      27.811  19.946   5.069  0.00  0.00     0.032 A 
BRANCH  24  28
HETATM   28  C   UNK N   1      24.009  17.900   4.639  0.00  0.00     0.419 C 
HETATM   29  F   UNK N   1      23.674  17.630   3.321  0.00  0.00    -0.166 F 
HETATM   30  F   UNK N   1      24.023  16.687   5.280  0.00  0.00    -0.166 F 
HETATM   31  F   UNK N   1      23.006  18.681   5.185  0.00  0.00    -0.166 F 
ENDBRANCH  24  28
BRANCH  25  32
HETATM   32  N   UNK N   1      24.772  20.574   3.001  0.00  0.00    -0.115 N 
HETATM   33  O   UNK N   1      25.095  20.587   1.852  0.00  0.00    -0.532 OA
HETATM   34  O   UNK N   1      23.540  20.911   3.302  0.00  0.00    -0.532 OA
ENDBRANCH  25  32
ENDBRANCH   1  22
TORSDOF 8
ENDMDL
MODEL 8
REMARK VINA RESULT:      -7.6      4.945      7.665
REMARK  8 active torsions:
REMARK  status: ('A' for Active; 'I' for Inactive)
REMARK    1  A    between atoms: C_2  and  C_5 
REMARK    2  A    between atoms: C_7  and  N_8 
REMARK    3  A    between atoms: C_13  and  N_14 
REMARK       I    between atoms: N_14  and  C_15 
REMARK    4  A    between atoms: C_15  and  C_17 
REMARK    5  A    between atoms: C_17  and  O_18 
REMARK    6  A    between atoms: C_17  and  C_20 
REMARK    7  A    between atoms: C_20  and  O_21 
REMARK    8  A    between atoms: O_21  and  C_22 
ROOT
HETATM    1  N   UNK N   1      23.906  18.744   5.106  0.00  0.00    -0.325 N 
HETATM    2  C   UNK N   1      25.104  18.389   4.560  0.00  0.00     0.258 C 
HETATM    3  O   UNK N   1      25.174  17.463   3.762  0.00  0.00    -0.270 OA
HETATM    4  H   UNK N   1      23.852  19.578   5.628  0.00  0.00     0.169 HD
ENDROOT
BRANCH   2   5
HETATM    5  C   UNK N   1      26.338  19.155   4.932  0.00  0.00     0.156 C 
HETATM    6  C   UNK N   1      26.651  20.255   3.927  0.00  0.00     0.059 C 
BRANCH   5   7
HETATM    7  O   UNK N   1      26.135  19.741   6.186  0.00  0.00    -0.378 OA
HETATM    8  H   UNK N   1      26.584  20.547   6.483  0.00  0.00     0.211 HD
ENDBRANCH   5   7
BRANCH   5   9
HETATM    9  C   UNK N   1      27.504  18.155   4.952  0.00  0.00     0.223 C 
BRANCH   9  10
HETATM   10  O   UNK N   1      27.660  17.599   6.200  0.00  0.00    -0.342 OA
BRANCH  10  11
HETATM   11  C   UNK N   1      28.802  17.653   6.920  0.00  0.00     0.152 A 
HETATM   12  C   UNK N   1      28.916  18.402   8.114  0.00  0.00     0.194 A 
HETATM   13  F   UNK N   1      27.875  19.139   8.581  0.00  0.00    -0.200 F 
HETATM   14  C   UNK N   1      30.122  18.398   8.825  0.00  0.00     0.199 A 
HETATM   15  F   UNK N   1      30.237  19.117   9.968  0.00  0.00    -0.199 F 
HETATM   16  C   UNK N   1      31.208  17.650   8.358  0.00  0.00     0.199 A 
HETATM   17  F   UNK N   1      32.372  17.638   9.053  0.00  0.00    -0.199 F 
HETATM   18  C   UNK N   1      31.095  16.914   7.175  0.00  0.00     0.199 A 
HETATM   19  F   UNK N   1      32.146  16.184   6.725  0.00  0.00    -0.199 F 
HETATM   20  C   UNK N   1      29.899  16.924   6.457  0.00  0.00     0.194 A 
HETATM   21  F   UNK N   1      29.791  16.198   5.315  0.00  0.00    -0.200 F 
ENDBRANCH  10  11
ENDBRANCH   9  10
ENDBRANCH   5   9
ENDBRANCH   2   5
BRANCH   1  22
HETATM   22  C   UNK N   1      22.736  17.961   4.952  0.00  0.00     0.035 A 
HETATM   23  C   UNK N   1      21.844  18.242   3.924  0.00  0.00     0.048 A 
HETATM   24  C   UNK N   1      20.654  17.539   3.741  0.00  0.00     0.083 A 
HETATM   25  C   UNK N   1      20.328  16.506   4.692  0.00  0.00     0.118 A 
HETATM   26  C   UNK N   1      21.280  16.199   5.692  0.00  0.00     0.039 A 
HETATM   27  C   UNK N   1      22.476  16.905   5.813  0.00  0.00     0.032 A 
BRANCH  24  28
HETATM   28  C   UNK N   1      19.885  17.983   2.505  0.00  0.00     0.419 C 
HETATM   29  F   UNK N   1      19.655  16.864   1.719  0.00  0.00    -0.166 F 
HETATM   30  F   UNK N   1      18.656  18.558   2.711  0.00  0.00    -0.166 F 
HETATM   31  F   UNK N   1      20.670  18.861   1.780  0.00  0.00    -0.166 F 
ENDBRANCH  24  28
BRANCH  25  32
HETATM   32  N   UNK N   1      19.090  15.781   4.727  0.00  0.00    -0.115 N 
HETATM   33  O   UNK N   1      18.979  14.783   4.081  0.00  0.00    -0.532 OA
HETATM   34  O   UNK N   1      18.184  16.030   5.643  0.00  0.00    -0.532 OA
ENDBRANCH  25  32
ENDBRANCH   1  22
TORSDOF 8
ENDMDL
MODEL 9
REMARK VINA RESULT:      -7.5      5.655      8.320
REMARK  8 active torsions:
REMARK  status: ('A' for Active; 'I' for Inactive)
REMARK    1  A    between atoms: C_2  and  C_5 
REMARK    2  A    between atoms: C_7  and  N_8 
REMARK    3  A    between atoms: C_13  and  N_14 
REMARK       I    between atoms: N_14  and  C_15 
REMARK    4  A    between atoms: C_15  and  C_17 
REMARK    5  A    between atoms: C_17  and  O_18 
REMARK    6  A    between atoms: C_17  and  C_20 
REMARK    7  A    between atoms: C_20  and  O_21 
REMARK    8  A    between atoms: O_21  and  C_22 
ROOT
HETATM    1  N   UNK N   1      24.851  18.436   5.318  0.00  0.00    -0.325 N 
HETATM    2  C   UNK N   1      26.090  18.541   4.757  0.00  0.00     0.258 C 
HETATM    3  O   UNK N   1      26.217  18.624   3.542  0.00  0.00    -0.270 OA
HETATM    4  H   UNK N   1      24.766  18.517   6.297  0.00  0.00     0.169 HD
ENDROOT
BRANCH   2   5
HETATM    5  C   UNK N   1      27.299  18.571   5.643  0.00  0.00     0.156 C 
HETATM    6  C   UNK N   1      27.552  19.958   6.216  0.00  0.00     0.059 C 
BRANCH   5   7
HETATM    7  O   UNK N   1      27.094  17.682   6.703  0.00  0.00    -0.378 OA
HETATM    8  H   UNK N   1      27.039  17.953   7.633  0.00  0.00     0.211 HD
ENDBRANCH   5   7
BRANCH   5   9
HETATM    9  C   UNK N   1      28.503  18.162   4.782  0.00  0.00     0.223 C 
BRANCH   9  10
HETATM   10  O   UNK N   1      29.217  17.148   5.375  0.00  0.00    -0.342 OA
BRANCH  10  11
HETATM   11  C   UNK N   1      30.484  17.272   5.829  0.00  0.00     0.152 A 
HETATM   12  C   UNK N   1      30.793  17.367   7.205  0.00  0.00     0.194 A 
HETATM   13  F   UNK N   1      29.813  17.371   8.146  0.00  0.00    -0.200 F 
HETATM   14  C   UNK N   1      32.129  17.472   7.611  0.00  0.00     0.199 A 
HETATM   15  F   UNK N   1      32.431  17.567   8.929  0.00  0.00    -0.199 F 
HETATM   16  C   UNK N   1      33.152  17.477   6.658  0.00  0.00     0.199 A 
HETATM   17  F   UNK N   1      34.447  17.567   7.053  0.00  0.00    -0.199 F 
HETATM   18  C   UNK N   1      32.844  17.387   5.298  0.00  0.00     0.199 A 
HETATM   19  F   UNK N   1      33.836  17.385   4.373  0.00  0.00    -0.199 F 
HETATM   20  C   UNK N   1      31.514  17.293   4.887  0.00  0.00     0.194 A 
HETATM   21  F   UNK N   1      31.220  17.195   3.566  0.00  0.00    -0.200 F 
ENDBRANCH  10  11
ENDBRANCH   9  10
ENDBRANCH   5   9
ENDBRANCH   2   5
BRANCH   1  22
HETATM   22  C   UNK N   1      23.683  18.215   4.549  0.00  0.00     0.035 A 
HETATM   23  C   UNK N   1      23.008  19.294   3.988  0.00  0.00     0.048 A 
HETATM   24  C   UNK N   1      21.829  19.151   3.257  0.00  0.00     0.083 A 
HETATM   25  C   UNK N   1      21.276  17.826   3.121  0.00  0.00     0.118 A 
HETATM   26  C   UNK N   1      22.013  16.741   3.649  0.00  0.00     0.039 A 
HETATM   27  C   UNK N   1      23.208  16.928   4.341  0.00  0.00     0.032 A 
BRANCH  24  28
HETATM   28  C   UNK N   1      21.323  20.467   2.683  0.00  0.00     0.419 C 
HETATM   29  F   UNK N   1      22.361  21.384   2.738  0.00  0.00    -0.166 F 
HETATM   30  F   UNK N   1      20.900  20.452   1.378  0.00  0.00    -0.166 F 
HETATM   31  F   UNK N   1      20.294  20.936   3.480  0.00  0.00    -0.166 F 
ENDBRANCH  24  28
BRANCH  25  32
HETATM   32  N   UNK N   1      20.010  17.523   2.518  0.00  0.00    -0.115 N 
HETATM   33  O   UNK N   1      19.907  16.548   1.835  0.00  0.00    -0.532 OA
HETATM   34  O   UNK N   1      18.911  18.125   2.907  0.00  0.00    -0.532 OA
ENDBRANCH  25  32
ENDBRANCH   1  22
TORSDOF 8
ENDMDL
