MODEL 1
REMARK VINA RESULT:      -7.5      0.000      0.000
REMARK  9 active torsions:
REMARK  status: ('A' for Active; 'I' for Inactive)
REMARK       I    between atoms: C_2  and  N_4 
REMARK    1  A    between atoms: N_4  and  C_5 
REMARK    2  A    between atoms: C_10  and  O_11 
REMARK    3  A    between atoms: O_11  and  C_12 
REMARK    4  A    between atoms: C_12  and  C_13 
REMARK    5  A    between atoms: C_13  and  O_14 
REMARK    6  A    between atoms: C_13  and  C_16 
REMARK       I    between atoms: C_16  and  N_18 
REMARK    7  A    between atoms: N_18  and  C_19 
REMARK    8  A    between atoms: C_23  and  N_24 
REMARK    9  A    between atoms: C_27  and  C_28 
ROOT
HETATM    1  C   UNK N   1      26.394  22.709  -8.216  0.00  0.00     0.156 C 
HETATM    2  C   UNK N   1      26.916  23.913  -8.990  0.00  0.00     0.059 C 
ENDROOT
BRANCH   1   3
HETATM    3  C   UNK N   1      25.823  23.176  -6.898  0.00  0.00     0.223 C 
BRANCH   3   4
HETATM    4  O   UNK N   1      25.350  24.466  -6.989  0.00  0.00    -0.348 OA
BRANCH   4   5
HETATM    5  C   UNK N   1      25.557  25.361  -6.001  0.00  0.00     0.069 A 
HETATM    6  C   UNK N   1      25.416  26.725  -6.265  0.00  0.00     0.039 A 
HETATM    7  C   UNK N   1      25.704  27.665  -5.270  0.00  0.00     0.032 A 
HETATM    8  C   UNK N   1      26.125  27.246  -4.001  0.00  0.00     0.034 A 
HETATM    9  C   UNK N   1      26.232  25.874  -3.733  0.00  0.00     0.032 A 
HETATM   10  C   UNK N   1      25.952  24.940  -4.721  0.00  0.00     0.039 A 
BRANCH   8  11
HETATM   11  N   UNK N   1      26.471  28.228  -3.029  0.00  0.00    -0.328 N 
HETATM   12  C   UNK N   1      27.713  28.751  -2.835  0.00  0.00     0.218 C 
HETATM   13  C   UNK N   1      27.904  29.804  -1.803  0.00  0.00     0.117 C 
HETATM   14  O   UNK N   1      28.672  28.381  -3.495  0.00  0.00    -0.274 OA
HETATM   15  H   UNK N   1      25.749  28.557  -2.447  0.00  0.00     0.169 HD
ENDBRANCH   8  11
ENDBRANCH   4   5
ENDBRANCH   3   4
ENDBRANCH   1   3
BRANCH   1  16
HETATM   16  O   UNK N   1      25.402  22.082  -8.978  0.00  0.00    -0.378 OA
HETATM   17  H   UNK N   1      25.188  21.680  -9.833  0.00  0.00     0.211 HD
ENDBRANCH   1  16
BRANCH   1  18
HETATM   18  C   UNK N   1      27.540  21.771  -7.969  0.00  0.00     0.258 C 
HETATM   19  O   UNK N   1      27.309  20.605  -7.677  0.00  0.00    -0.270 OA
HETATM   20  N   UNK N   1      28.784  22.277  -7.780  0.00  0.00    -0.325 N 
HETATM   21  H   UNK N   1      29.299  22.642  -8.535  0.00  0.00     0.169 HD
BRANCH  20  22
HETATM   22  C   UNK N   1      29.324  22.267  -6.473  0.00  0.00     0.035 A 
HETATM   23  C   UNK N   1      29.377  23.464  -5.769  0.00  0.00     0.048 A 
HETATM   24  C   UNK N   1      29.938  23.594  -4.506  0.00  0.00     0.083 A 
HETATM   25  C   UNK N   1      30.485  22.402  -3.896  0.00  0.00     0.118 A 
HETATM   26  C   UNK N   1      30.446  21.197  -4.645  0.00  0.00     0.039 A 
HETATM   27  C   UNK N   1      29.889  21.129  -5.924  0.00  0.00     0.032 A 
BRANCH  24  28
HETATM   28  C   UNK N   1      29.877  25.036  -4.005  0.00  0.00     0.419 C 
HETATM   29  F   UNK N   1      29.457  25.836  -5.056  0.00  0.00    -0.166 F 
HETATM   30  F   UNK N   1      31.022  25.597  -3.510  0.00  0.00    -0.166 F 
HETATM   31  F   UNK N   1      28.920  25.113  -3.007  0.00  0.00    -0.166 F 
ENDBRANCH  24  28
BRANCH  25  32
HETATM   32  N   UNK N   1      31.082  22.328  -2.592  0.00  0.00    -0.115 N 
HETATM   33  O   UNK N   1      32.195  21.680  -2.367  0.00  0.00    -0.532 OA
HETATM   34  O   UNK N   1      30.578  22.919  -1.684  0.00  0.00    -0.532 OA
ENDBRANCH  25  32
ENDBRANCH  20  22
ENDBRANCH   1  18
TORSDOF 9
ENDMDL
MODEL 2
REMARK VINA RESULT:      -7.5     15.908     18.489
REMARK  9 active torsions:
REMARK  status: ('A' for Active; 'I' for Inactive)
REMARK       I    between atoms: C_2  and  N_4 
REMARK    1  A    between atoms: N_4  and  C_5 
REMARK    2  A    between atoms: C_10  and  O_11 
REMARK    3  A    between atoms: O_11  and  C_12 
REMARK    4  A    between atoms: C_12  and  C_13 
REMARK    5  A    between atoms: C_13  and  O_14 
REMARK    6  A    between atoms: C_13  and  C_16 
REMARK       I    between atoms: C_16  and  N_18 
REMARK    7  A    between atoms: N_18  and  C_19 
REMARK    8  A    between atoms: C_23  and  N_24 
REMARK    9  A    between atoms: C_27  and  C_28 
ROOT
HETATM    1  C   UNK N   1      34.189  16.838   8.364  0.00  0.00     0.156 C 
HETATM    2  C   UNK N   1      34.336  18.297   7.953  0.00  0.00     0.059 C 
ENDROOT
BRANCH   1   3
HETATM    3  C   UNK N   1      32.751  16.413   8.185  0.00  0.00     0.223 C 
BRANCH   3   4
HETATM    4  O   UNK N   1      31.889  17.316   8.768  0.00  0.00    -0.348 OA
BRANCH   4   5
HETATM    5  C   UNK N   1      30.697  17.610   8.210  0.00  0.00     0.069 A 
HETATM    6  C   UNK N   1      30.410  17.157   6.920  0.00  0.00     0.039 A 
HETATM    7  C   UNK N   1      29.209  17.522   6.301  0.00  0.00     0.032 A 
HETATM    8  C   UNK N   1      28.284  18.332   6.972  0.00  0.00     0.034 A 
HETATM    9  C   UNK N   1      28.564  18.755   8.279  0.00  0.00     0.032 A 
HETATM   10  C   UNK N   1      29.758  18.399   8.892  0.00  0.00     0.039 A 
BRANCH   8  11
HETATM   11  N   UNK N   1      27.099  18.737   6.293  0.00  0.00    -0.328 N 
HETATM   12  C   UNK N   1      26.966  19.854   5.526  0.00  0.00     0.218 C 
HETATM   13  C   UNK N   1      25.670  20.117   4.845  0.00  0.00     0.117 C 
HETATM   14  O   UNK N   1      27.888  20.641   5.377  0.00  0.00    -0.274 OA
HETATM   15  H   UNK N   1      26.308  18.159   6.386  0.00  0.00     0.169 HD
ENDBRANCH   8  11
ENDBRANCH   4   5
ENDBRANCH   3   4
ENDBRANCH   1   3
BRANCH   1  16
HETATM   16  O   UNK N   1      35.027  16.059   7.560  0.00  0.00    -0.378 OA
HETATM   17  H   UNK N   1      35.310  15.867   6.653  0.00  0.00     0.211 HD
ENDBRANCH   1  16
BRANCH   1  18
HETATM   18  C   UNK N   1      34.579  16.711   9.809  0.00  0.00     0.258 C 
HETATM   19  O   UNK N   1      35.643  17.183  10.187  0.00  0.00    -0.270 OA
HETATM   20  N   UNK N   1      33.911  15.839  10.603  0.00  0.00    -0.325 N 
HETATM   21  H   UNK N   1      32.997  16.035  10.910  0.00  0.00     0.169 HD
BRANCH  20  22
HETATM   22  C   UNK N   1      34.560  14.640  10.982  0.00  0.00     0.035 A 
HETATM   23  C   UNK N   1      35.111  14.559  12.255  0.00  0.00     0.048 A 
HETATM   24  C   UNK N   1      35.824  13.463  12.721  0.00  0.00     0.083 A 
HETATM   25  C   UNK N   1      35.983  12.342  11.820  0.00  0.00     0.118 A 
HETATM   26  C   UNK N   1      35.436  12.458  10.516  0.00  0.00     0.039 A 
HETATM   27  C   UNK N   1      34.748  13.597  10.091  0.00  0.00     0.032 A 
BRANCH  24  28
HETATM   28  C   UNK N   1      36.331  13.681  14.145  0.00  0.00     0.419 C 
HETATM   29  F   UNK N   1      36.813  14.977  14.233  0.00  0.00    -0.166 F 
HETATM   30  F   UNK N   1      37.318  12.857  14.612  0.00  0.00    -0.166 F 
HETATM   31  F   UNK N   1      35.260  13.569  15.015  0.00  0.00    -0.166 F 
ENDBRANCH  24  28
BRANCH  25  32
HETATM   32  N   UNK N   1      36.661  11.114  12.125  0.00  0.00    -0.115 N 
HETATM   33  O   UNK N   1      36.018  10.025  12.464  0.00  0.00    -0.532 OA
HETATM   34  O   UNK N   1      37.849  11.059  12.019  0.00  0.00    -0.532 OA
ENDBRANCH  25  32
ENDBRANCH  20  22
ENDBRANCH   1  18
TORSDOF 9
ENDMDL
MODEL 3
REMARK VINA RESULT:      -7.4      2.323      5.803
REMARK  9 active torsions:
REMARK  status: ('A' for Active; 'I' for Inactive)
REMARK       I    between atoms: C_2  and  N_4 
REMARK    1  A    between atoms: N_4  and  C_5 
REMARK    2  A    between atoms: C_10  and  O_11 
REMARK    3  A    between atoms: O_11  and  C_12 
REMARK    4  A    between atoms: C_12  and  C_13 
REMARK    5  A    between atoms: C_13  and  O_14 
REMARK    6  A    between atoms: C_13  and  C_16 
REMARK       I    between atoms: C_16  and  N_18 
REMARK    7  A    between atoms: N_18  and  C_19 
REMARK    8  A    between atoms: C_23  and  N_24 
REMARK    9  A    between atoms: C_27  and  C_28 
ROOT
HETATM    1  C   UNK N   1      26.980  28.935  -3.526  0.00  0.00     0.156 C 
HETATM    2  C   UNK N   1      27.694  29.368  -2.251  0.00  0.00     0.059 C 
ENDROOT
BRANCH   1   3
HETATM    3  C   UNK N   1      26.275  27.623  -3.280  0.00  0.00     0.223 C 
BRANCH   3   4
HETATM    4  O   UNK N   1      25.344  27.367  -4.263  0.00  0.00    -0.348 OA
BRANCH   4   5
HETATM    5  C   UNK N   1      25.493  26.334  -5.117  0.00  0.00     0.069 A 
HETATM    6  C   UNK N   1      25.703  25.048  -4.615  0.00  0.00     0.039 A 
HETATM    7  C   UNK N   1      25.937  23.983  -5.492  0.00  0.00     0.032 A 
HETATM    8  C   UNK N   1      25.952  24.196  -6.877  0.00  0.00     0.034 A 
HETATM    9  C   UNK N   1      25.707  25.484  -7.375  0.00  0.00     0.032 A 
HETATM   10  C   UNK N   1      25.480  26.542  -6.505  0.00  0.00     0.039 A 
BRANCH   8  11
HETATM   11  N   UNK N   1      26.254  23.105  -7.740  0.00  0.00    -0.328 N 
HETATM   12  C   UNK N   1      25.344  22.274  -8.318  0.00  0.00     0.218 C 
HETATM   13  C   UNK N   1      25.818  21.202  -9.234  0.00  0.00     0.117 C 
HETATM   14  O   UNK N   1      24.146  22.392  -8.108  0.00  0.00    -0.274 OA
HETATM   15  H   UNK N   1      27.204  22.937  -7.937  0.00  0.00     0.169 HD
ENDBRANCH   8  11
ENDBRANCH   4   5
ENDBRANCH   3   4
ENDBRANCH   1   3
BRANCH   1  16
HETATM   16  O   UNK N   1      26.056  29.923  -3.881  0.00  0.00    -0.378 OA
HETATM   17  H   UNK N   1      25.356  30.513  -3.561  0.00  0.00     0.211 HD
ENDBRANCH   1  16
BRANCH   1  18
HETATM   18  C   UNK N   1      28.008  28.763  -4.608  0.00  0.00     0.258 C 
HETATM   19  O   UNK N   1      27.715  29.040  -5.763  0.00  0.00    -0.270 OA
HETATM   20  N   UNK N   1      29.125  28.038  -4.354  0.00  0.00    -0.325 N 
HETATM   21  H   UNK N   1      29.843  28.400  -3.787  0.00  0.00     0.169 HD
BRANCH  20  22
HETATM   22  C   UNK N   1      29.235  26.748  -4.924  0.00  0.00     0.035 A 
HETATM   23  C   UNK N   1      29.331  25.654  -4.072  0.00  0.00     0.048 A 
HETATM   24  C   UNK N   1      29.503  24.347  -4.509  0.00  0.00     0.083 A 
HETATM   25  C   UNK N   1      29.574  24.127  -5.937  0.00  0.00     0.118 A 
HETATM   26  C   UNK N   1      29.502  25.262  -6.786  0.00  0.00     0.039 A 
HETATM   27  C   UNK N   1      29.351  26.559  -6.290  0.00  0.00     0.032 A 
BRANCH  24  28
HETATM   28  C   UNK N   1      29.607  23.369  -3.340  0.00  0.00     0.419 C 
HETATM   29  F   UNK N   1      30.713  23.721  -2.584  0.00  0.00    -0.166 F 
HETATM   30  F   UNK N   1      29.725  22.036  -3.622  0.00  0.00    -0.166 F 
HETATM   31  F   UNK N   1      28.485  23.519  -2.542  0.00  0.00    -0.166 F 
ENDBRANCH  24  28
BRANCH  25  32
HETATM   32  N   UNK N   1      29.723  22.852  -6.580  0.00  0.00    -0.115 N 
HETATM   33  O   UNK N   1      30.867  22.442  -7.065  0.00  0.00    -0.532 OA
HETATM   34  O   UNK N   1      28.788  22.111  -6.634  0.00  0.00    -0.532 OA
ENDBRANCH  25  32
ENDBRANCH  20  22
ENDBRANCH   1  18
TORSDOF 9
ENDMDL
MODEL 4
REMARK VINA RESULT:      -7.4     11.628     14.285
REMARK  9 active torsions:
REMARK  status: ('A' for Active; 'I' for Inactive)
REMARK       I    between atoms: C_2  and  N_4 
REMARK    1  A    between atoms: N_4  and  C_5 
REMARK    2  A    between atoms: C_10  and  O_11 
REMARK    3  A    between atoms: O_11  and  C_12 
REMARK    4  A    between atoms: C_12  and  C_13 
REMARK    5  A    between atoms: C_13  and  O_14 
REMARK    6  A    between atoms: C_13  and  C_16 
REMARK       I    between atoms: C_16  and  N_18 
REMARK    7  A    between atoms: N_18  and  C_19 
REMARK    8  A    between atoms: C_23  and  N_24 
REMARK    9  A    between atoms: C_27  and  C_28 
ROOT
HETATM    1  C   UNK N   1      26.394  19.463   4.925  0.00  0.00     0.156 C 
HETATM    2  C   UNK N   1      26.527  20.209   3.603  0.00  0.00     0.059 C 
ENDROOT
BRANCH   1   3
HETATM    3  C   UNK N   1      27.764  19.282   5.533  0.00  0.00     0.223 C 
BRANCH   3   4
HETATM    4  O   UNK N   1      27.704  18.512   6.674  0.00  0.00    -0.348 OA
BRANCH   4   5
HETATM    5  C   UNK N   1      28.824  18.067   7.280  0.00  0.00     0.069 A 
HETATM    6  C   UNK N   1      29.219  18.628   8.497  0.00  0.00     0.039 A 
HETATM    7  C   UNK N   1      30.420  18.230   9.095  0.00  0.00     0.032 A 
HETATM    8  C   UNK N   1      31.228  17.261   8.485  0.00  0.00     0.034 A 
HETATM    9  C   UNK N   1      30.808  16.678   7.281  0.00  0.00     0.032 A 
HETATM   10  C   UNK N   1      29.620  17.077   6.683  0.00  0.00     0.039 A 
BRANCH   8  11
HETATM   11  N   UNK N   1      32.473  16.922   9.086  0.00  0.00    -0.328 N 
HETATM   12  C   UNK N   1      33.683  17.451   8.758  0.00  0.00     0.218 C 
HETATM   13  C   UNK N   1      34.892  17.022   9.511  0.00  0.00     0.117 C 
HETATM   14  O   UNK N   1      33.799  18.276   7.864  0.00  0.00    -0.274 OA
HETATM   15  H   UNK N   1      32.457  16.246   9.802  0.00  0.00     0.169 HD
ENDBRANCH   8  11
ENDBRANCH   4   5
ENDBRANCH   3   4
ENDBRANCH   1   3
BRANCH   1  16
HETATM   16  O   UNK N   1      25.580  20.211   5.782  0.00  0.00    -0.378 OA
HETATM   17  H   UNK N   1      24.852  20.178   6.422  0.00  0.00     0.211 HD
ENDBRANCH   1  16
BRANCH   1  18
HETATM   18  C   UNK N   1      25.779  18.121   4.651  0.00  0.00     0.258 C 
HETATM   19  O   UNK N   1      26.172  17.464   3.697  0.00  0.00    -0.270 OA
HETATM   20  N   UNK N   1      24.618  17.784   5.265  0.00  0.00    -0.325 N 
HETATM   21  H   UNK N   1      24.603  17.551   6.221  0.00  0.00     0.169 HD
BRANCH  20  22
HETATM   22  C   UNK N   1      23.429  17.776   4.499  0.00  0.00     0.035 A 
HETATM   23  C   UNK N   1      23.032  18.955   3.880  0.00  0.00     0.048 A 
HETATM   24  C   UNK N   1      21.856  19.089   3.154  0.00  0.00     0.083 A 
HETATM   25  C   UNK N   1      21.012  17.921   3.035  0.00  0.00     0.118 A 
HETATM   26  C   UNK N   1      21.423  16.736   3.699  0.00  0.00     0.039 A 
HETATM   27  C   UNK N   1      22.607  16.664   4.437  0.00  0.00     0.032 A 
BRANCH  24  28
HETATM   28  C   UNK N   1      21.678  20.510   2.623  0.00  0.00     0.419 C 
HETATM   29  F   UNK N   1      22.834  21.221   2.907  0.00  0.00    -0.166 F 
HETATM   30  F   UNK N   1      20.629  21.250   3.095  0.00  0.00    -0.166 F 
HETATM   31  F   UNK N   1      21.547  20.450   1.245  0.00  0.00    -0.166 F 
ENDBRANCH  24  28
BRANCH  25  32
HETATM   32  N   UNK N   1      19.776  17.853   2.307  0.00  0.00    -0.115 N 
HETATM   33  O   UNK N   1      19.638  17.128   1.227  0.00  0.00    -0.532 OA
HETATM   34  O   UNK N   1      18.819  18.435   2.723  0.00  0.00    -0.532 OA
ENDBRANCH  25  32
ENDBRANCH  20  22
ENDBRANCH   1  18
TORSDOF 9
ENDMDL
MODEL 5
REMARK VINA RESULT:      -7.2      2.683      6.697
REMARK  9 active torsions:
REMARK  status: ('A' for Active; 'I' for Inactive)
REMARK       I    between atoms: C_2  and  N_4 
REMARK    1  A    between atoms: N_4  and  C_5 
REMARK    2  A    between atoms: C_10  and  O_11 
REMARK    3  A    between atoms: O_11  and  C_12 
REMARK    4  A    between atoms: C_12  and  C_13 
REMARK    5  A    between atoms: C_13  and  O_14 
REMARK    6  A    between atoms: C_13  and  C_16 
REMARK       I    between atoms: C_16  and  N_18 
REMARK    7  A    between atoms: N_18  and  C_19 
REMARK    8  A    between atoms: C_23  and  N_24 
REMARK    9  A    between atoms: C_27  and  C_28 
ROOT
HETATM    1  C   UNK N   1      27.169  28.827  -3.544  0.00  0.00     0.156 C 
HETATM    2  C   UNK N   1      27.024  29.636  -4.827  0.00  0.00     0.059 C 
ENDROOT
BRANCH   1   3
HETATM    3  C   UNK N   1      28.493  28.101  -3.561  0.00  0.00     0.223 C 
BRANCH   3   4
HETATM    4  O   UNK N   1      28.785  27.628  -4.822  0.00  0.00    -0.348 OA
BRANCH   4   5
HETATM    5  C   UNK N   1      29.111  26.336  -5.028  0.00  0.00     0.069 A 
HETATM    6  C   UNK N   1      29.312  25.876  -6.332  0.00  0.00     0.039 A 
HETATM    7  C   UNK N   1      29.572  24.521  -6.564  0.00  0.00     0.032 A 
HETATM    8  C   UNK N   1      29.643  23.619  -5.493  0.00  0.00     0.034 A 
HETATM    9  C   UNK N   1      29.474  24.095  -4.185  0.00  0.00     0.032 A 
HETATM   10  C   UNK N   1      29.209  25.438  -3.954  0.00  0.00     0.039 A 
BRANCH   8  11
HETATM   11  N   UNK N   1      29.848  22.237  -5.766  0.00  0.00    -0.328 N 
HETATM   12  C   UNK N   1      31.053  21.606  -5.807  0.00  0.00     0.218 C 
HETATM   13  C   UNK N   1      31.098  20.142  -6.065  0.00  0.00     0.117 C 
HETATM   14  O   UNK N   1      32.099  22.212  -5.630  0.00  0.00    -0.274 OA
HETATM   15  H   UNK N   1      29.048  21.690  -5.939  0.00  0.00     0.169 HD
ENDBRANCH   8  11
ENDBRANCH   4   5
ENDBRANCH   3   4
ENDBRANCH   1   3
BRANCH   1  16
HETATM   16  O   UNK N   1      27.109  29.701  -2.454  0.00  0.00    -0.378 OA
HETATM   17  H   UNK N   1      26.922  29.783  -1.506  0.00  0.00     0.211 HD
ENDBRANCH   1  16
BRANCH   1  18
HETATM   18  C   UNK N   1      26.046  27.832  -3.483  0.00  0.00     0.258 C 
HETATM   19  O   UNK N   1      25.927  27.121  -2.494  0.00  0.00    -0.270 OA
HETATM   20  N   UNK N   1      25.368  27.524  -4.616  0.00  0.00    -0.325 N 
HETATM   21  H   UNK N   1      24.728  28.160  -5.009  0.00  0.00     0.169 HD
BRANCH  20  22
HETATM   22  C   UNK N   1      25.602  26.266  -5.221  0.00  0.00     0.035 A 
HETATM   23  C   UNK N   1      25.648  26.197  -6.608  0.00  0.00     0.048 A 
HETATM   24  C   UNK N   1      25.810  25.015  -7.318  0.00  0.00     0.083 A 
HETATM   25  C   UNK N   1      25.948  23.794  -6.553  0.00  0.00     0.118 A 
HETATM   26  C   UNK N   1      25.870  23.886  -5.140  0.00  0.00     0.039 A 
HETATM   27  C   UNK N   1      25.682  25.101  -4.477  0.00  0.00     0.032 A 
BRANCH  24  28
HETATM   28  C   UNK N   1      25.789  25.253  -8.826  0.00  0.00     0.419 C 
HETATM   29  F   UNK N   1      27.045  24.947  -9.325  0.00  0.00    -0.166 F 
HETATM   30  F   UNK N   1      25.476  26.506  -9.277  0.00  0.00    -0.166 F 
HETATM   31  F   UNK N   1      24.883  24.376  -9.397  0.00  0.00    -0.166 F 
ENDBRANCH  24  28
BRANCH  25  32
HETATM   32  N   UNK N   1      26.149  22.483  -7.102  0.00  0.00    -0.115 N 
HETATM   33  O   UNK N   1      27.330  22.047  -7.460  0.00  0.00    -0.532 OA
HETATM   34  O   UNK N   1      25.221  21.737  -7.191  0.00  0.00    -0.532 OA
ENDBRANCH  25  32
ENDBRANCH  20  22
ENDBRANCH   1  18
TORSDOF 9
ENDMDL
MODEL 6
REMARK VINA RESULT:      -7.2     11.564     14.529
REMARK  9 active torsions:
REMARK  status: ('A' for Active; 'I' for Inactive)
REMARK       I    between atoms: C_2  and  N_4 
REMARK    1  A    between atoms: N_4  and  C_5 
REMARK    2  A    between atoms: C_10  and  O_11 
REMARK    3  A    between atoms: O_11  and  C_12 
REMARK    4  A    between atoms: C_12  and  C_13 
REMARK    5  A    between atoms: C_13  and  O_14 
REMARK    6  A    between atoms: C_13  and  C_16 
REMARK       I    between atoms: C_16  and  N_18 
REMARK    7  A    between atoms: N_18  and  C_19 
REMARK    8  A    between atoms: C_23  and  N_24 
REMARK    9  A    between atoms: C_27  and  C_28 
ROOT
HETATM    1  C   UNK N   1      26.842  18.874   5.096  0.00  0.00     0.156 C 
HETATM    2  C   UNK N   1      27.163  19.862   3.982  0.00  0.00     0.059 C 
ENDROOT
BRANCH   1   3
HETATM    3  C   UNK N   1      28.008  17.932   5.278  0.00  0.00     0.223 C 
BRANCH   3   4
HETATM    4  O   UNK N   1      28.211  17.643   6.610  0.00  0.00    -0.348 OA
BRANCH   4   5
HETATM    5  C   UNK N   1      29.447  17.648   7.149  0.00  0.00     0.069 A 
HETATM    6  C   UNK N   1      30.508  17.069   6.448  0.00  0.00     0.039 A 
HETATM    7  C   UNK N   1      31.777  16.999   7.031  0.00  0.00     0.032 A 
HETATM    8  C   UNK N   1      31.997  17.515   8.315  0.00  0.00     0.034 A 
HETATM    9  C   UNK N   1      30.935  18.124   8.999  0.00  0.00     0.032 A 
HETATM   10  C   UNK N   1      29.673  18.189   8.424  0.00  0.00     0.039 A 
BRANCH   8  11
HETATM   11  N   UNK N   1      33.284  17.372   8.907  0.00  0.00    -0.328 N 
HETATM   12  C   UNK N   1      33.814  16.214   9.386  0.00  0.00     0.218 C 
HETATM   13  C   UNK N   1      35.195  16.220   9.938  0.00  0.00     0.117 C 
HETATM   14  O   UNK N   1      33.185  15.166   9.365  0.00  0.00    -0.274 OA
HETATM   15  H   UNK N   1      33.839  18.183   8.975  0.00  0.00     0.169 HD
ENDBRANCH   8  11
ENDBRANCH   4   5
ENDBRANCH   3   4
ENDBRANCH   1   3
BRANCH   1  16
HETATM   16  O   UNK N   1      26.607  19.588   6.275  0.00  0.00    -0.378 OA
HETATM   17  H   UNK N   1      26.277  20.417   6.654  0.00  0.00     0.211 HD
ENDBRANCH   1  16
BRANCH   1  18
HETATM   18  C   UNK N   1      25.620  18.095   4.700  0.00  0.00     0.258 C 
HETATM   19  O   UNK N   1      25.707  17.245   3.825  0.00  0.00    -0.270 OA
HETATM   20  N   UNK N   1      24.398  18.533   5.091  0.00  0.00    -0.325 N 
HETATM   21  H   UNK N   1      24.104  18.439   6.026  0.00  0.00     0.169 HD
BRANCH  20  22
HETATM   22  C   UNK N   1      23.553  19.127   4.124  0.00  0.00     0.035 A 
HETATM   23  C   UNK N   1      22.291  18.583   3.923  0.00  0.00     0.048 A 
HETATM   24  C   UNK N   1      21.396  19.037   2.963  0.00  0.00     0.083 A 
HETATM   25  C   UNK N   1      21.815  20.151   2.140  0.00  0.00     0.118 A 
HETATM   26  C   UNK N   1      23.118  20.672   2.344  0.00  0.00     0.039 A 
HETATM   27  C   UNK N   1      23.987  20.160   3.310  0.00  0.00     0.032 A 
BRANCH  24  28
HETATM   28  C   UNK N   1      20.106  18.220   2.961  0.00  0.00     0.419 C 
HETATM   29  F   UNK N   1      20.053  17.500   4.144  0.00  0.00    -0.166 F 
HETATM   30  F   UNK N   1      19.907  17.329   1.943  0.00  0.00    -0.166 F 
HETATM   31  F   UNK N   1      19.032  19.096   2.952  0.00  0.00    -0.166 F 
ENDBRANCH  24  28
BRANCH  25  32
HETATM   32  N   UNK N   1      21.025  20.777   1.117  0.00  0.00    -0.115 N 
HETATM   33  O   UNK N   1      20.435  21.931   1.296  0.00  0.00    -0.532 OA
HETATM   34  O   UNK N   1      20.940  20.258   0.044  0.00  0.00    -0.532 OA
ENDBRANCH  25  32
ENDBRANCH  20  22
ENDBRANCH   1  18
TORSDOF 9
ENDMDL
MODEL 7
REMARK VINA RESULT:      -7.1     20.722     23.709
REMARK  9 active torsions:
REMARK  status: ('A' for Active; 'I' for Inactive)
REMARK       I    between atoms: C_2  and  N_4 
REMARK    1  A    between atoms: N_4  and  C_5 
REMARK    2  A    between atoms: C_10  and  O_11 
REMARK    3  A    between atoms: O_11  and  C_12 
REMARK    4  A    between atoms: C_12  and  C_13 
REMARK    5  A    between atoms: C_13  and  O_14 
REMARK    6  A    between atoms: C_13  and  C_16 
REMARK       I    between atoms: C_16  and  N_18 
REMARK    7  A    between atoms: N_18  and  C_19 
REMARK    8  A    between atoms: C_23  and  N_24 
REMARK    9  A    between atoms: C_27  and  C_28 
ROOT
HETATM    1  C   UNK N   1      35.809  13.615  13.136  0.00  0.00     0.156 C 
HETATM    2  C   UNK N   1      36.822  12.642  12.546  0.00  0.00     0.059 C 
ENDROOT
BRANCH   1   3
HETATM    3  C   UNK N   1      36.035  14.987  12.547  0.00  0.00     0.223 C 
BRANCH   3   4
HETATM    4  O   UNK N   1      36.524  14.902  11.262  0.00  0.00    -0.348 OA
BRANCH   4   5
HETATM    5  C   UNK N   1      35.768  15.243  10.198  0.00  0.00     0.069 A 
HETATM    6  C   UNK N   1      35.012  16.417  10.238  0.00  0.00     0.039 A 
HETATM    7  C   UNK N   1      34.164  16.740   9.173  0.00  0.00     0.032 A 
HETATM    8  C   UNK N   1      34.074  15.896   8.058  0.00  0.00     0.034 A 
HETATM    9  C   UNK N   1      34.861  14.737   8.011  0.00  0.00     0.032 A 
HETATM   10  C   UNK N   1      35.699  14.412   9.069  0.00  0.00     0.039 A 
BRANCH   8  11
HETATM   11  N   UNK N   1      33.156  16.220   7.019  0.00  0.00    -0.328 N 
HETATM   12  C   UNK N   1      33.315  17.211   6.099  0.00  0.00     0.218 C 
HETATM   13  C   UNK N   1      32.282  17.397   5.046  0.00  0.00     0.117 C 
HETATM   14  O   UNK N   1      34.291  17.945   6.113  0.00  0.00    -0.274 OA
HETATM   15  H   UNK N   1      32.334  15.681   6.961  0.00  0.00     0.169 HD
ENDBRANCH   8  11
ENDBRANCH   4   5
ENDBRANCH   3   4
ENDBRANCH   1   3
BRANCH   1  16
HETATM   16  O   UNK N   1      34.522  13.162  12.830  0.00  0.00    -0.378 OA
HETATM   17  H   UNK N   1      34.001  12.519  12.325  0.00  0.00     0.211 HD
ENDBRANCH   1  16
BRANCH   1  18
HETATM   18  C   UNK N   1      36.011  13.664  14.624  0.00  0.00     0.258 C 
HETATM   19  O   UNK N   1      37.148  13.669  15.076  0.00  0.00    -0.270 OA
HETATM   20  N   UNK N   1      34.963  13.405  15.445  0.00  0.00    -0.325 N 
HETATM   21  H   UNK N   1      34.241  14.064  15.562  0.00  0.00     0.169 HD
BRANCH  20  22
HETATM   22  C   UNK N   1      34.933  12.168  16.129  0.00  0.00     0.035 A 
HETATM   23  C   UNK N   1      35.191  12.160  17.495  0.00  0.00     0.048 A 
HETATM   24  C   UNK N   1      35.250  11.005  18.264  0.00  0.00     0.083 A 
HETATM   25  C   UNK N   1      35.015   9.747  17.591  0.00  0.00     0.118 A 
HETATM   26  C   UNK N   1      34.781   9.777  16.192  0.00  0.00     0.039 A 
HETATM   27  C   UNK N   1      34.756  10.968  15.463  0.00  0.00     0.032 A 
BRANCH  24  28
HETATM   28  C   UNK N   1      35.583  11.314  19.722  0.00  0.00     0.419 C 
HETATM   29  F   UNK N   1      35.794  12.679  19.834  0.00  0.00    -0.166 F 
HETATM   30  F   UNK N   1      36.669  10.696  20.281  0.00  0.00    -0.166 F 
HETATM   31  F   UNK N   1      34.485  10.991  20.502  0.00  0.00    -0.166 F 
ENDBRANCH  24  28
BRANCH  25  32
HETATM   32  N   UNK N   1      35.007   8.454  18.216  0.00  0.00    -0.115 N 
HETATM   33  O   UNK N   1      36.019   7.629  18.131  0.00  0.00    -0.532 OA
HETATM   34  O   UNK N   1      34.069   8.131  18.882  0.00  0.00    -0.532 OA
ENDBRANCH  25  32
ENDBRANCH  20  22
ENDBRANCH   1  18
TORSDOF 9
ENDMDL
MODEL 8
REMARK VINA RESULT:      -7.1      2.521      6.969
REMARK  9 active torsions:
REMARK  status: ('A' for Active; 'I' for Inactive)
REMARK       I    between atoms: C_2  and  N_4 
REMARK    1  A    between atoms: N_4  and  C_5 
REMARK    2  A    between atoms: C_10  and  O_11 
REMARK    3  A    between atoms: O_11  and  C_12 
REMARK    4  A    between atoms: C_12  and  C_13 
REMARK    5  A    between atoms: C_13  and  O_14 
REMARK    6  A    between atoms: C_13  and  C_16 
REMARK       I    between atoms: C_16  and  N_18 
REMARK    7  A    between atoms: N_18  and  C_19 
REMARK    8  A    between atoms: C_23  and  N_24 
REMARK    9  A    between atoms: C_27  and  C_28 
ROOT
HETATM    1  C   UNK N   1      31.673  21.978  -3.151  0.00  0.00     0.156 C 
HETATM    2  C   UNK N   1      32.660  22.537  -4.168  0.00  0.00     0.059 C 
ENDROOT
BRANCH   1   3
HETATM    3  C   UNK N   1      30.699  21.063  -3.855  0.00  0.00     0.223 C 
BRANCH   3   4
HETATM    4  O   UNK N   1      30.958  21.006  -5.206  0.00  0.00    -0.348 OA
BRANCH   4   5
HETATM    5  C   UNK N   1      29.960  20.996  -6.113  0.00  0.00     0.069 A 
HETATM    6  C   UNK N   1      29.803  19.892  -6.954  0.00  0.00     0.039 A 
HETATM    7  C   UNK N   1      28.820  19.905  -7.950  0.00  0.00     0.032 A 
HETATM    8  C   UNK N   1      27.982  21.017  -8.105  0.00  0.00     0.034 A 
HETATM    9  C   UNK N   1      28.124  22.108  -7.235  0.00  0.00     0.032 A 
HETATM   10  C   UNK N   1      29.102  22.099  -6.250  0.00  0.00     0.039 A 
BRANCH   8  11
HETATM   11  N   UNK N   1      27.034  21.026  -9.166  0.00  0.00    -0.328 N 
HETATM   12  C   UNK N   1      27.268  21.456 -10.437  0.00  0.00     0.218 C 
HETATM   13  C   UNK N   1      26.181  21.361 -11.448  0.00  0.00     0.117 C 
HETATM   14  O   UNK N   1      28.352  21.911 -10.768  0.00  0.00    -0.274 OA
HETATM   15  H   UNK N   1      26.130  20.691  -8.965  0.00  0.00     0.169 HD
ENDBRANCH   8  11
ENDBRANCH   4   5
ENDBRANCH   3   4
ENDBRANCH   1   3
BRANCH   1  16
HETATM   16  O   UNK N   1      32.385  21.270  -2.177  0.00  0.00    -0.378 OA
HETATM   17  H   UNK N   1      32.318  20.704  -1.393  0.00  0.00     0.211 HD
ENDBRANCH   1  16
BRANCH   1  18
HETATM   18  C   UNK N   1      30.932  23.126  -2.530  0.00  0.00     0.258 C 
HETATM   19  O   UNK N   1      30.277  22.939  -1.513  0.00  0.00    -0.270 OA
HETATM   20  N   UNK N   1      30.751  24.265  -3.244  0.00  0.00    -0.325 N 
HETATM   21  H   UNK N   1      31.498  24.885  -3.400  0.00  0.00     0.169 HD
BRANCH  20  22
HETATM   22  C   UNK N   1      29.462  24.540  -3.758  0.00  0.00     0.035 A 
HETATM   23  C   UNK N   1      29.337  25.504  -4.750  0.00  0.00     0.048 A 
HETATM   24  C   UNK N   1      28.122  25.905  -5.291  0.00  0.00     0.083 A 
HETATM   25  C   UNK N   1      26.928  25.263  -4.788  0.00  0.00     0.118 A 
HETATM   26  C   UNK N   1      27.077  24.301  -3.756  0.00  0.00     0.039 A 
HETATM   27  C   UNK N   1      28.324  23.953  -3.232  0.00  0.00     0.032 A 
BRANCH  24  28
HETATM   28  C   UNK N   1      28.304  27.003  -6.337  0.00  0.00     0.419 C 
HETATM   29  F   UNK N   1      29.651  27.323  -6.393  0.00  0.00    -0.166 F 
HETATM   30  F   UNK N   1      27.622  28.177  -6.166  0.00  0.00    -0.166 F 
HETATM   31  F   UNK N   1      27.938  26.497  -7.573  0.00  0.00    -0.166 F 
ENDBRANCH  24  28
BRANCH  25  32
HETATM   32  N   UNK N   1      25.588  25.521  -5.238  0.00  0.00    -0.115 N 
HETATM   33  O   UNK N   1      25.051  26.713  -5.189  0.00  0.00    -0.532 OA
HETATM   34  O   UNK N   1      24.952  24.633  -5.721  0.00  0.00    -0.532 OA
ENDBRANCH  25  32
ENDBRANCH  20  22
ENDBRANCH   1  18
TORSDOF 9
ENDMDL
MODEL 9
REMARK VINA RESULT:      -7.0      2.022      2.553
REMARK  9 active torsions:
REMARK  status: ('A' for Active; 'I' for Inactive)
REMARK       I    between atoms: C_2  and  N_4 
REMARK    1  A    between atoms: N_4  and  C_5 
REMARK    2  A    between atoms: C_10  and  O_11 
REMARK    3  A    between atoms: O_11  and  C_12 
REMARK    4  A    between atoms: C_12  and  C_13 
REMARK    5  A    between atoms: C_13  and  O_14 
REMARK    6  A    between atoms: C_13  and  C_16 
REMARK       I    between atoms: C_16  and  N_18 
REMARK    7  A    between atoms: N_18  and  C_19 
REMARK    8  A    between atoms: C_23  and  N_24 
REMARK    9  A    between atoms: C_27  and  C_28 
ROOT
HETATM    1  C   UNK N   1      26.282  23.265  -8.970  0.00  0.00     0.156 C 
HETATM    2  C   UNK N   1      27.593  23.735  -9.587  0.00  0.00     0.059 C 
ENDROOT
BRANCH   1   3
HETATM    3  C   UNK N   1      25.561  24.450  -8.372  0.00  0.00     0.223 C 
BRANCH   3   4
HETATM    4  O   UNK N   1      26.302  25.603  -8.507  0.00  0.00    -0.348 OA
BRANCH   4   5
HETATM    5  C   UNK N   1      26.365  26.517  -7.516  0.00  0.00     0.069 A 
HETATM    6  C   UNK N   1      27.411  27.443  -7.498  0.00  0.00     0.039 A 
HETATM    7  C   UNK N   1      27.530  28.343  -6.434  0.00  0.00     0.032 A 
HETATM    8  C   UNK N   1      26.598  28.331  -5.387  0.00  0.00     0.034 A 
HETATM    9  C   UNK N   1      25.532  27.421  -5.430  0.00  0.00     0.032 A 
HETATM   10  C   UNK N   1      25.416  26.522  -6.482  0.00  0.00     0.039 A 
BRANCH   8  11
HETATM   11  N   UNK N   1      26.782  29.217  -4.288  0.00  0.00    -0.328 N 
HETATM   12  C   UNK N   1      27.688  29.061  -3.284  0.00  0.00     0.218 C 
HETATM   13  C   UNK N   1      27.786  30.101  -2.226  0.00  0.00     0.117 C 
HETATM   14  O   UNK N   1      28.428  28.090  -3.236  0.00  0.00    -0.274 OA
HETATM   15  H   UNK N   1      26.203  30.013  -4.251  0.00  0.00     0.169 HD
ENDBRANCH   8  11
ENDBRANCH   4   5
ENDBRANCH   3   4
ENDBRANCH   1   3
BRANCH   1  16
HETATM   16  O   UNK N   1      25.500  22.678  -9.970  0.00  0.00    -0.378 OA
HETATM   17  H   UNK N   1      25.288  22.669 -10.916  0.00  0.00     0.211 HD
ENDBRANCH   1  16
BRANCH   1  18
HETATM   18  C   UNK N   1      26.597  22.267  -7.893  0.00  0.00     0.258 C 
HETATM   19  O   UNK N   1      25.733  21.969  -7.080  0.00  0.00    -0.270 OA
HETATM   20  N   UNK N   1      27.889  21.937  -7.650  0.00  0.00    -0.325 N 
HETATM   21  H   UNK N   1      28.387  21.361  -8.274  0.00  0.00     0.169 HD
BRANCH  20  22
HETATM   22  C   UNK N   1      28.505  22.440  -6.481  0.00  0.00     0.035 A 
HETATM   23  C   UNK N   1      29.574  21.736  -5.940  0.00  0.00     0.048 A 
HETATM   24  C   UNK N   1      30.221  22.094  -4.765  0.00  0.00     0.083 A 
HETATM   25  C   UNK N   1      29.749  23.278  -4.081  0.00  0.00     0.118 A 
HETATM   26  C   UNK N   1      28.639  23.965  -4.636  0.00  0.00     0.039 A 
HETATM   27  C   UNK N   1      28.010  23.546  -5.811  0.00  0.00     0.032 A 
BRANCH  24  28
HETATM   28  C   UNK N   1      31.334  21.111  -4.410  0.00  0.00     0.419 C 
HETATM   29  F   UNK N   1      30.823  20.192  -3.508  0.00  0.00    -0.166 F 
HETATM   30  F   UNK N   1      32.485  21.608  -3.862  0.00  0.00    -0.166 F 
HETATM   31  F   UNK N   1      31.694  20.421  -5.556  0.00  0.00    -0.166 F 
ENDBRANCH  24  28
BRANCH  25  32
HETATM   32  N   UNK N   1      30.302  23.822  -2.873  0.00  0.00    -0.115 N 
HETATM   33  O   UNK N   1      30.439  23.110  -1.784  0.00  0.00    -0.532 OA
HETATM   34  O   UNK N   1      30.701  24.948  -2.866  0.00  0.00    -0.532 OA
ENDBRANCH  25  32
ENDBRANCH  20  22
ENDBRANCH   1  18
TORSDOF 9
ENDMDL
