MODEL 1
REMARK VINA RESULT:      -7.5      0.000      0.000
REMARK  5 active torsions:
REMARK  status: ('A' for Active; 'I' for Inactive)
REMARK    1  A    between atoms: C_6  and  C_7 
REMARK    2  A    between atoms: C_12  and  C_13 
REMARK    3  A    between atoms: C_13  and  C_14 
REMARK    4  A    between atoms: C_14  and  C_15 
REMARK    5  A    between atoms: C_15  and  C_16 
ROOT
HETATM    1  C   UNK N   1      35.381  10.393  10.591  0.00  0.00     0.006 C 
ENDROOT
BRANCH   1   2
HETATM    2  C   UNK N   1      34.819   9.469  11.676  0.00  0.00     0.038 C 
BRANCH   2   3
HETATM    3  C   UNK N   1      34.911  10.041  13.066  0.00  0.00    -0.058 A 
HETATM    4  C   UNK N   1      33.775  10.520  13.731  0.00  0.00     0.008 A 
HETATM    5  C   UNK N   1      33.873  11.036  15.021  0.00  0.00     0.013 A 
HETATM    6  C   UNK N   1      35.115  11.085  15.675  0.00  0.00    -0.026 A 
HETATM    7  C   UNK N   1      36.254  10.612  15.007  0.00  0.00     0.013 A 
HETATM    8  C   UNK N   1      36.155  10.091  13.710  0.00  0.00     0.008 A 
BRANCH   6   9
HETATM    9  C   UNK N   1      35.191  11.614  17.057  0.00  0.00    -0.026 A 
HETATM   10  C   UNK N   1      35.323  10.739  18.153  0.00  0.00     0.012 A 
HETATM   11  C   UNK N   1      35.377  11.246  19.455  0.00  0.00     0.001 A 
HETATM   12  C   UNK N   1      35.297  12.622  19.677  0.00  0.00     0.000 A 
HETATM   13  C   UNK N   1      35.166  13.498  18.597  0.00  0.00     0.001 A 
HETATM   14  C   UNK N   1      35.114  12.994  17.295  0.00  0.00     0.012 A 
ENDBRANCH   6   9
ENDBRANCH   2   3
ENDBRANCH   1   2
BRANCH   1  15
HETATM   15  C   UNK N   1      34.348  11.471  10.296  0.00  0.00     0.035 C 
BRANCH  15  16
HETATM   16  C   UNK N   1      34.912  12.856   9.989  0.00  0.00     0.260 C 
HETATM   17  S   UNK N   1      36.136  12.844   8.634  0.00  0.00     0.307 SA
HETATM   18  O   UNK N   1      35.516  12.348   7.319  0.00  0.00    -0.195 OA
HETATM   19  O   UNK N   1      37.659  12.059   8.742  0.00  0.00    -0.089 OA
HETATM   20  O   UNK N   1      36.483  14.289   8.246  0.00  0.00    -0.195 OA
HETATM   21  K   UNK N   1      38.925  13.122   7.014  0.00  0.00     0.000 K 
HETATM   22  K   UNK N   1      38.186  15.518  10.546  0.00  0.00     0.000 K 
HETATM   23  O   UNK N   1      35.922  15.412  11.244  0.00  0.00    -0.138 OA
HETATM   24  P   UNK N   1      35.558  13.733  11.505  0.00  0.00     0.403 P 
HETATM   25  K   UNK N   1      37.524  14.770  13.865  0.00  0.00     0.000 K 
HETATM   26  O   UNK N   1      34.445  13.775  12.585  0.00  0.00    -0.253 OA
HETATM   27  O   UNK N   1      36.913  13.043  12.341  0.00  0.00    -0.138 OA
ENDBRANCH  15  16
ENDBRANCH   1  15
TORSDOF 5
ENDMDL
MODEL 2
REMARK VINA RESULT:      -7.5     14.358     16.460
REMARK  5 active torsions:
REMARK  status: ('A' for Active; 'I' for Inactive)
REMARK    1  A    between atoms: C_6  and  C_7 
REMARK    2  A    between atoms: C_12  and  C_13 
REMARK    3  A    between atoms: C_13  and  C_14 
REMARK    4  A    between atoms: C_14  and  C_15 
REMARK    5  A    between atoms: C_15  and  C_16 
ROOT
HETATM    1  C   UNK N   1      23.507  18.612   3.602  0.00  0.00     0.006 C 
ENDROOT
BRANCH   1   2
HETATM    2  C   UNK N   1      24.441  19.769   3.968  0.00  0.00     0.038 C 
BRANCH   2   3
HETATM    3  C   UNK N   1      25.621  19.353   4.806  0.00  0.00    -0.058 A 
HETATM    4  C   UNK N   1      26.032  18.016   4.868  0.00  0.00     0.008 A 
HETATM    5  C   UNK N   1      27.132  17.647   5.638  0.00  0.00     0.013 A 
HETATM    6  C   UNK N   1      27.847  18.612   6.367  0.00  0.00    -0.026 A 
HETATM    7  C   UNK N   1      27.432  19.951   6.310  0.00  0.00     0.013 A 
HETATM    8  C   UNK N   1      26.326  20.322   5.533  0.00  0.00     0.008 A 
BRANCH   6   9
HETATM    9  C   UNK N   1      29.030  18.201   7.159  0.00  0.00    -0.026 A 
HETATM   10  C   UNK N   1      29.961  17.285   6.632  0.00  0.00     0.012 A 
HETATM   11  C   UNK N   1      31.065  16.888   7.393  0.00  0.00     0.001 A 
HETATM   12  C   UNK N   1      31.249  17.396   8.681  0.00  0.00     0.000 A 
HETATM   13  C   UNK N   1      30.331  18.305   9.212  0.00  0.00     0.001 A 
HETATM   14  C   UNK N   1      29.228  18.703   8.452  0.00  0.00     0.012 A 
ENDBRANCH   6   9
ENDBRANCH   2   3
ENDBRANCH   1   2
BRANCH   1  15
HETATM   15  C   UNK N   1      22.460  18.476   4.698  0.00  0.00     0.035 C 
BRANCH  15  16
HETATM   16  C   UNK N   1      21.058  18.099   4.225  0.00  0.00     0.260 C 
HETATM   17  S   UNK N   1      20.966  16.412   3.534  0.00  0.00     0.307 SA
HETATM   18  O   UNK N   1      21.349  15.353   4.578  0.00  0.00    -0.195 OA
HETATM   19  O   UNK N   1      21.766  15.937   2.091  0.00  0.00    -0.089 OA
HETATM   20  O   UNK N   1      19.497  16.039   3.290  0.00  0.00    -0.195 OA
HETATM   21  K   UNK N   1      20.573  13.966   1.450  0.00  0.00     0.000 K 
HETATM   22  K   UNK N   1      18.470  17.708   0.868  0.00  0.00     0.000 K 
HETATM   23  O   UNK N   1      18.620  19.124   2.765  0.00  0.00    -0.138 OA
HETATM   24  P   UNK N   1      20.311  19.367   3.075  0.00  0.00     0.403 P 
HETATM   25  K   UNK N   1      19.483  20.987   0.392  0.00  0.00     0.000 K 
HETATM   26  O   UNK N   1      20.352  20.761   3.755  0.00  0.00    -0.253 OA
HETATM   27  O   UNK N   1      21.076  19.638   1.541  0.00  0.00    -0.138 OA
ENDBRANCH  15  16
ENDBRANCH   1  15
TORSDOF 5
ENDMDL
MODEL 3
REMARK VINA RESULT:      -7.4      2.190      3.364
REMARK  5 active torsions:
REMARK  status: ('A' for Active; 'I' for Inactive)
REMARK    1  A    between atoms: C_6  and  C_7 
REMARK    2  A    between atoms: C_12  and  C_13 
REMARK    3  A    between atoms: C_13  and  C_14 
REMARK    4  A    between atoms: C_14  and  C_15 
REMARK    5  A    between atoms: C_15  and  C_16 
ROOT
HETATM    1  C   UNK N   1      34.668  11.731  10.309  0.00  0.00     0.006 C 
ENDROOT
BRANCH   1   2
HETATM    2  C   UNK N   1      35.567  10.787  11.112  0.00  0.00     0.038 C 
BRANCH   2   3
HETATM    3  C   UNK N   1      35.516  11.020  12.599  0.00  0.00    -0.058 A 
HETATM    4  C   UNK N   1      36.680  11.276  13.334  0.00  0.00     0.008 A 
HETATM    5  C   UNK N   1      36.617  11.500  14.707  0.00  0.00     0.013 A 
HETATM    6  C   UNK N   1      35.383  11.473  15.377  0.00  0.00    -0.026 A 
HETATM    7  C   UNK N   1      34.217  11.210  14.643  0.00  0.00     0.013 A 
HETATM    8  C   UNK N   1      34.281  10.986  13.261  0.00  0.00     0.008 A 
BRANCH   6   9
HETATM    9  C   UNK N   1      35.337  11.741  16.834  0.00  0.00    -0.026 A 
HETATM   10  C   UNK N   1      35.387  10.680  17.759  0.00  0.00     0.012 A 
HETATM   11  C   UNK N   1      35.324  10.940  19.132  0.00  0.00     0.001 A 
HETATM   12  C   UNK N   1      35.211  12.253  19.593  0.00  0.00     0.000 A 
HETATM   13  C   UNK N   1      35.162  13.312  18.684  0.00  0.00     0.001 A 
HETATM   14  C   UNK N   1      35.225  13.054  17.312  0.00  0.00     0.012 A 
ENDBRANCH   6   9
ENDBRANCH   2   3
ENDBRANCH   1   2
BRANCH   1  15
HETATM   15  C   UNK N   1      35.470  12.276   9.137  0.00  0.00     0.035 C 
BRANCH  15  16
HETATM   16  C   UNK N   1      35.749  13.776   9.170  0.00  0.00     0.260 C 
HETATM   17  S   UNK N   1      36.524  14.324  10.730  0.00  0.00     0.307 SA
HETATM   18  O   UNK N   1      37.884  13.645  10.952  0.00  0.00    -0.195 OA
HETATM   19  O   UNK N   1      35.732  14.263  12.252  0.00  0.00    -0.089 OA
HETATM   20  O   UNK N   1      36.967  15.787  10.594  0.00  0.00    -0.195 OA
HETATM   21  K   UNK N   1      36.996  15.809  13.568  0.00  0.00     0.000 K 
HETATM   22  K   UNK N   1      34.411  17.567  10.570  0.00  0.00     0.000 K 
HETATM   23  O   UNK N   1      34.610  16.485   8.468  0.00  0.00    -0.138 OA
HETATM   24  P   UNK N   1      34.253  14.806   8.735  0.00  0.00     0.403 P 
HETATM   25  K   UNK N   1      31.514  16.522   8.980  0.00  0.00     0.000 K 
HETATM   26  O   UNK N   1      33.692  14.340   7.366  0.00  0.00    -0.253 OA
HETATM   27  O   UNK N   1      32.874  14.740   9.786  0.00  0.00    -0.138 OA
ENDBRANCH  15  16
ENDBRANCH   1  15
TORSDOF 5
ENDMDL
MODEL 4
REMARK VINA RESULT:      -7.4      3.572      4.293
REMARK  5 active torsions:
REMARK  status: ('A' for Active; 'I' for Inactive)
REMARK    1  A    between atoms: C_6  and  C_7 
REMARK    2  A    between atoms: C_12  and  C_13 
REMARK    3  A    between atoms: C_13  and  C_14 
REMARK    4  A    between atoms: C_14  and  C_15 
REMARK    5  A    between atoms: C_15  and  C_16 
ROOT
HETATM    1  C   UNK N   1      36.771  13.885  10.907  0.00  0.00     0.006 C 
ENDROOT
BRANCH   1   2
HETATM    2  C   UNK N   1      35.879  14.660  11.881  0.00  0.00     0.038 C 
BRANCH   2   3
HETATM    3  C   UNK N   1      35.806  14.047  13.254  0.00  0.00    -0.058 A 
HETATM    4  C   UNK N   1      36.601  14.521  14.305  0.00  0.00     0.008 A 
HETATM    5  C   UNK N   1      36.515  13.952  15.573  0.00  0.00     0.013 A 
HETATM    6  C   UNK N   1      35.628  12.891  15.818  0.00  0.00    -0.026 A 
HETATM    7  C   UNK N   1      34.835  12.411  14.765  0.00  0.00     0.013 A 
HETATM    8  C   UNK N   1      34.921  12.986  13.489  0.00  0.00     0.008 A 
BRANCH   6   9
HETATM    9  C   UNK N   1      35.534  12.318  17.181  0.00  0.00    -0.026 A 
HETATM   10  C   UNK N   1      35.255  13.144  18.288  0.00  0.00     0.012 A 
HETATM   11  C   UNK N   1      35.186  12.598  19.573  0.00  0.00     0.001 A 
HETATM   12  C   UNK N   1      35.396  11.231  19.768  0.00  0.00     0.000 A 
HETATM   13  C   UNK N   1      35.673  10.404  18.677  0.00  0.00     0.001 A 
HETATM   14  C   UNK N   1      35.741  10.947  17.392  0.00  0.00     0.012 A 
ENDBRANCH   6   9
ENDBRANCH   2   3
ENDBRANCH   1   2
BRANCH   1  15
HETATM   15  C   UNK N   1      36.268  14.134   9.493  0.00  0.00     0.035 C 
BRANCH  15  16
HETATM   16  C   UNK N   1      34.779  14.450   9.370  0.00  0.00     0.260 C 
HETATM   17  S   UNK N   1      33.821  13.094   8.610  0.00  0.00     0.307 SA
HETATM   18  O   UNK N   1      33.904  11.808   9.446  0.00  0.00    -0.195 OA
HETATM   19  O   UNK N   1      34.024  12.590   6.981  0.00  0.00    -0.089 OA
HETATM   20  O   UNK N   1      32.321  13.400   8.726  0.00  0.00    -0.195 OA
HETATM   21  K   UNK N   1      31.988  11.421   6.533  0.00  0.00     0.000 K 
HETATM   22  K   UNK N   1      31.663  15.734   6.770  0.00  0.00     0.000 K 
HETATM   23  O   UNK N   1      32.796  16.615   8.659  0.00  0.00    -0.138 OA
HETATM   24  P   UNK N   1      34.447  16.089   8.540  0.00  0.00     0.403 P 
HETATM   25  K   UNK N   1      33.890  18.343   6.278  0.00  0.00     0.000 K 
HETATM   26  O   UNK N   1      35.230  17.205   9.282  0.00  0.00    -0.253 OA
HETATM   27  O   UNK N   1      34.927  16.285   6.884  0.00  0.00    -0.138 OA
ENDBRANCH  15  16
ENDBRANCH   1  15
TORSDOF 5
ENDMDL
MODEL 5
REMARK VINA RESULT:      -7.3      3.811      5.046
REMARK  5 active torsions:
REMARK  status: ('A' for Active; 'I' for Inactive)
REMARK    1  A    between atoms: C_6  and  C_7 
REMARK    2  A    between atoms: C_12  and  C_13 
REMARK    3  A    between atoms: C_13  and  C_14 
REMARK    4  A    between atoms: C_14  and  C_15 
REMARK    5  A    between atoms: C_15  and  C_16 
ROOT
HETATM    1  C   UNK N   1      36.119  13.323   9.455  0.00  0.00     0.006 C 
ENDROOT
BRANCH   1   2
HETATM    2  C   UNK N   1      37.108  13.916  10.461  0.00  0.00     0.038 C 
BRANCH   2   3
HETATM    3  C   UNK N   1      36.829  13.526  11.889  0.00  0.00    -0.058 A 
HETATM    4  C   UNK N   1      36.150  14.389  12.758  0.00  0.00     0.008 A 
HETATM    5  C   UNK N   1      35.888  14.012  14.072  0.00  0.00     0.013 A 
HETATM    6  C   UNK N   1      36.302  12.757  14.548  0.00  0.00    -0.026 A 
HETATM    7  C   UNK N   1      36.987  11.893  13.680  0.00  0.00     0.013 A 
HETATM    8  C   UNK N   1      37.249  12.274  12.356  0.00  0.00     0.008 A 
BRANCH   6   9
HETATM    9  C   UNK N   1      35.990  12.365  15.942  0.00  0.00    -0.026 A 
HETATM   10  C   UNK N   1      36.231  11.051  16.389  0.00  0.00     0.012 A 
HETATM   11  C   UNK N   1      35.917  10.685  17.701  0.00  0.00     0.001 A 
HETATM   12  C   UNK N   1      35.359  11.619  18.576  0.00  0.00     0.000 A 
HETATM   13  C   UNK N   1      35.116  12.925  18.143  0.00  0.00     0.001 A 
HETATM   14  C   UNK N   1      35.431  13.293  16.833  0.00  0.00     0.012 A 
ENDBRANCH   6   9
ENDBRANCH   2   3
ENDBRANCH   1   2
BRANCH   1  15
HETATM   15  C   UNK N   1      34.953  14.288   9.302  0.00  0.00     0.035 C 
BRANCH  15  16
HETATM   16  C   UNK N   1      35.043  15.246   8.116  0.00  0.00     0.260 C 
HETATM   17  S   UNK N   1      34.387  16.908   8.491  0.00  0.00     0.307 SA
HETATM   18  O   UNK N   1      35.172  17.581   9.627  0.00  0.00    -0.195 OA
HETATM   19  O   UNK N   1      32.734  17.218   8.835  0.00  0.00    -0.089 OA
HETATM   20  O   UNK N   1      34.715  17.860   7.331  0.00  0.00    -0.195 OA
HETATM   21  K   UNK N   1      32.539  19.565   8.426  0.00  0.00     0.000 K 
HETATM   22  K   UNK N   1      32.925  17.070   4.906  0.00  0.00     0.000 K 
HETATM   23  O   UNK N   1      34.662  15.470   5.128  0.00  0.00    -0.138 OA
HETATM   24  P   UNK N   1      34.306  14.541   6.552  0.00  0.00     0.403 P 
HETATM   25  K   UNK N   1      32.198  13.752   4.219  0.00  0.00     0.000 K 
HETATM   26  O   UNK N   1      34.962  13.167   6.253  0.00  0.00    -0.253 OA
HETATM   27  O   UNK N   1      32.606  14.198   6.524  0.00  0.00    -0.138 OA
ENDBRANCH  15  16
ENDBRANCH   1  15
TORSDOF 5
ENDMDL
MODEL 6
REMARK VINA RESULT:      -7.3     14.073     16.301
REMARK  5 active torsions:
REMARK  status: ('A' for Active; 'I' for Inactive)
REMARK    1  A    between atoms: C_6  and  C_7 
REMARK    2  A    between atoms: C_12  and  C_13 
REMARK    3  A    between atoms: C_13  and  C_14 
REMARK    4  A    between atoms: C_14  and  C_15 
REMARK    5  A    between atoms: C_15  and  C_16 
ROOT
HETATM    1  C   UNK N   1      24.489  18.621   4.549  0.00  0.00     0.006 C 
ENDROOT
BRANCH   1   2
HETATM    2  C   UNK N   1      25.067  17.255   4.928  0.00  0.00     0.038 C 
BRANCH   2   3
HETATM    3  C   UNK N   1      26.564  17.254   5.090  0.00  0.00    -0.058 A 
HETATM    4  C   UNK N   1      27.327  16.119   4.786  0.00  0.00     0.008 A 
HETATM    5  C   UNK N   1      28.712  16.136   4.930  0.00  0.00     0.013 A 
HETATM    6  C   UNK N   1      29.367  17.293   5.384  0.00  0.00    -0.026 A 
HETATM    7  C   UNK N   1      28.603  18.428   5.694  0.00  0.00     0.013 A 
HETATM    8  C   UNK N   1      27.209  18.411   5.547  0.00  0.00     0.008 A 
BRANCH   6   9
HETATM    9  C   UNK N   1      30.843  17.296   5.505  0.00  0.00    -0.026 A 
HETATM   10  C   UNK N   1      31.460  17.103   6.756  0.00  0.00     0.012 A 
HETATM   11  C   UNK N   1      32.854  17.126   6.865  0.00  0.00     0.001 A 
HETATM   12  C   UNK N   1      33.643  17.342   5.733  0.00  0.00     0.000 A 
HETATM   13  C   UNK N   1      33.041  17.534   4.487  0.00  0.00     0.001 A 
HETATM   14  C   UNK N   1      31.648  17.511   4.377  0.00  0.00     0.012 A 
ENDBRANCH   6   9
ENDBRANCH   2   3
ENDBRANCH   1   2
BRANCH   1  15
HETATM   15  C   UNK N   1      23.529  18.431   3.384  0.00  0.00     0.035 C 
BRANCH  15  16
HETATM   16  C   UNK N   1      22.053  18.659   3.703  0.00  0.00     0.260 C 
HETATM   17  S   UNK N   1      21.045  17.146   3.539  0.00  0.00     0.307 SA
HETATM   18  O   UNK N   1      21.513  16.049   4.507  0.00  0.00    -0.195 OA
HETATM   19  O   UNK N   1      20.775  16.347   2.044  0.00  0.00    -0.089 OA
HETATM   20  O   UNK N   1      19.634  17.410   4.085  0.00  0.00    -0.195 OA
HETATM   21  K   UNK N   1      18.827  15.035   2.490  0.00  0.00     0.000 K 
HETATM   22  K   UNK N   1      18.168  19.297   2.086  0.00  0.00     0.000 K 
HETATM   23  O   UNK N   1      19.743  20.568   3.322  0.00  0.00    -0.138 OA
HETATM   24  P   UNK N   1      21.317  20.094   2.762  0.00  0.00     0.403 P 
HETATM   25  K   UNK N   1      19.858  21.847   0.459  0.00  0.00     0.000 K 
HETATM   26  O   UNK N   1      22.179  21.361   3.007  0.00  0.00    -0.253 OA
HETATM   27  O   UNK N   1      21.232  19.986   1.032  0.00  0.00    -0.138 OA
ENDBRANCH  15  16
ENDBRANCH   1  15
TORSDOF 5
ENDMDL
MODEL 7
REMARK VINA RESULT:      -6.9      3.441      4.661
REMARK  5 active torsions:
REMARK  status: ('A' for Active; 'I' for Inactive)
REMARK    1  A    between atoms: C_6  and  C_7 
REMARK    2  A    between atoms: C_12  and  C_13 
REMARK    3  A    between atoms: C_13  and  C_14 
REMARK    4  A    between atoms: C_14  and  C_15 
REMARK    5  A    between atoms: C_15  and  C_16 
ROOT
HETATM    1  C   UNK N   1      35.854  13.813  10.879  0.00  0.00     0.006 C 
ENDROOT
BRANCH   1   2
HETATM    2  C   UNK N   1      36.024  14.812  12.027  0.00  0.00     0.038 C 
BRANCH   2   3
HETATM    3  C   UNK N   1      35.887  14.194  13.393  0.00  0.00    -0.058 A 
HETATM    4  C   UNK N   1      34.995  13.139  13.627  0.00  0.00     0.008 A 
HETATM    5  C   UNK N   1      34.886  12.570  14.892  0.00  0.00     0.013 A 
HETATM    6  C   UNK N   1      35.669  13.045  15.957  0.00  0.00    -0.026 A 
HETATM    7  C   UNK N   1      36.558  14.106  15.726  0.00  0.00     0.013 A 
HETATM    8  C   UNK N   1      36.669  14.677  14.451  0.00  0.00     0.008 A 
BRANCH   6   9
HETATM    9  C   UNK N   1      35.555  12.407  17.289  0.00  0.00    -0.026 A 
HETATM   10  C   UNK N   1      35.199  13.167  18.420  0.00  0.00     0.012 A 
HETATM   11  C   UNK N   1      35.112  12.561  19.677  0.00  0.00     0.001 A 
HETATM   12  C   UNK N   1      35.379  11.197  19.819  0.00  0.00     0.000 A 
HETATM   13  C   UNK N   1      35.733  10.434  18.703  0.00  0.00     0.001 A 
HETATM   14  C   UNK N   1      35.820  11.039  17.447  0.00  0.00     0.012 A 
ENDBRANCH   6   9
ENDBRANCH   2   3
ENDBRANCH   1   2
BRANCH   1  15
HETATM   15  C   UNK N   1      36.379  14.454   9.603  0.00  0.00     0.035 C 
BRANCH  15  16
HETATM   16  C   UNK N   1      35.333  14.724   8.523  0.00  0.00     0.260 C 
HETATM   17  S   UNK N   1      33.961  15.778   9.106  0.00  0.00     0.307 SA
HETATM   18  O   UNK N   1      34.461  17.160   9.551  0.00  0.00    -0.195 OA
HETATM   19  O   UNK N   1      32.840  15.290  10.312  0.00  0.00    -0.089 OA
HETATM   20  O   UNK N   1      33.081  16.176   7.913  0.00  0.00    -0.195 OA
HETATM   21  K   UNK N   1      30.997  16.770   9.950  0.00  0.00     0.000 K 
HETATM   22  K   UNK N   1      31.510  13.649   6.990  0.00  0.00     0.000 K 
HETATM   23  O   UNK N   1      33.764  13.452   6.277  0.00  0.00    -0.138 OA
HETATM   24  P   UNK N   1      34.715  13.165   7.701  0.00  0.00     0.403 P 
HETATM   25  K   UNK N   1      32.979  10.510   7.036  0.00  0.00     0.000 K 
HETATM   26  O   UNK N   1      35.926  12.357   7.163  0.00  0.00    -0.253 OA
HETATM   27  O   UNK N   1      33.851  12.012   8.668  0.00  0.00    -0.138 OA
ENDBRANCH  15  16
ENDBRANCH   1  15
TORSDOF 5
ENDMDL
MODEL 8
REMARK VINA RESULT:      -6.8      3.287      4.353
REMARK  5 active torsions:
REMARK  status: ('A' for Active; 'I' for Inactive)
REMARK    1  A    between atoms: C_6  and  C_7 
REMARK    2  A    between atoms: C_12  and  C_13 
REMARK    3  A    between atoms: C_13  and  C_14 
REMARK    4  A    between atoms: C_14  and  C_15 
REMARK    5  A    between atoms: C_15  and  C_16 
ROOT
HETATM    1  C   UNK N   1      35.577  13.645  11.735  0.00  0.00     0.006 C 
ENDROOT
BRANCH   1   2
HETATM    2  C   UNK N   1      34.940  12.289  12.052  0.00  0.00     0.038 C 
BRANCH   2   3
HETATM    3  C   UNK N   1      34.967  11.934  13.515  0.00  0.00    -0.058 A 
HETATM    4  C   UNK N   1      35.448  12.837  14.472  0.00  0.00     0.008 A 
HETATM    5  C   UNK N   1      35.457  12.501  15.823  0.00  0.00     0.013 A 
HETATM    6  C   UNK N   1      34.984  11.248  16.248  0.00  0.00    -0.026 A 
HETATM    7  C   UNK N   1      34.508  10.341  15.290  0.00  0.00     0.013 A 
HETATM    8  C   UNK N   1      34.498  10.681  13.930  0.00  0.00     0.008 A 
BRANCH   6   9
HETATM    9  C   UNK N   1      34.978  10.922  17.694  0.00  0.00    -0.026 A 
HETATM   10  C   UNK N   1      35.379  11.879  18.646  0.00  0.00     0.012 A 
HETATM   11  C   UNK N   1      35.388  11.557  20.006  0.00  0.00     0.001 A 
HETATM   12  C   UNK N   1      35.003  10.283  20.429  0.00  0.00     0.000 A 
HETATM   13  C   UNK N   1      34.604   9.327  19.493  0.00  0.00     0.001 A 
HETATM   14  C   UNK N   1      34.593   9.647  18.133  0.00  0.00     0.012 A 
ENDBRANCH   6   9
ENDBRANCH   2   3
ENDBRANCH   1   2
BRANCH   1  15
HETATM   15  C   UNK N   1      34.544  14.506  11.023  0.00  0.00     0.035 C 
BRANCH  15  16
HETATM   16  C   UNK N   1      34.848  14.824   9.561  0.00  0.00     0.260 C 
HETATM   17  S   UNK N   1      34.501  16.562   9.121  0.00  0.00     0.307 SA
HETATM   18  O   UNK N   1      35.360  17.533   9.943  0.00  0.00    -0.195 OA
HETATM   19  O   UNK N   1      32.923  17.240   9.120  0.00  0.00    -0.089 OA
HETATM   20  O   UNK N   1      35.035  16.849   7.711  0.00  0.00    -0.195 OA
HETATM   21  K   UNK N   1      33.181  19.173   7.736  0.00  0.00     0.000 K 
HETATM   22  K   UNK N   1      33.208  15.365   5.670  0.00  0.00     0.000 K 
HETATM   23  O   UNK N   1      34.610  13.777   6.737  0.00  0.00    -0.138 OA
HETATM   24  P   UNK N   1      34.043  13.629   8.372  0.00  0.00     0.403 P 
HETATM   25  K   UNK N   1      31.900  12.235   6.379  0.00  0.00     0.000 K 
HETATM   26  O   UNK N   1      34.441  12.180   8.757  0.00  0.00    -0.253 OA
HETATM   27  O   UNK N   1      32.310  13.574   8.308  0.00  0.00    -0.138 OA
ENDBRANCH  15  16
ENDBRANCH   1  15
TORSDOF 5
ENDMDL
MODEL 9
REMARK VINA RESULT:      -6.8      7.732     11.199
REMARK  5 active torsions:
REMARK  status: ('A' for Active; 'I' for Inactive)
REMARK    1  A    between atoms: C_6  and  C_7 
REMARK    2  A    between atoms: C_12  and  C_13 
REMARK    3  A    between atoms: C_13  and  C_14 
REMARK    4  A    between atoms: C_14  and  C_15 
REMARK    5  A    between atoms: C_15  and  C_16 
ROOT
HETATM    1  C   UNK N   1      32.257  17.530   8.594  0.00  0.00     0.006 C 
ENDROOT
BRANCH   1   2
HETATM    2  C   UNK N   1      31.282  16.501   8.016  0.00  0.00     0.038 C 
BRANCH   2   3
HETATM    3  C   UNK N   1      30.181  17.109   7.188  0.00  0.00    -0.058 A 
HETATM    4  C   UNK N   1      29.246  17.985   7.754  0.00  0.00     0.008 A 
HETATM    5  C   UNK N   1      28.239  18.548   6.975  0.00  0.00     0.013 A 
HETATM    6  C   UNK N   1      28.144  18.246   5.607  0.00  0.00    -0.026 A 
HETATM    7  C   UNK N   1      29.076  17.363   5.040  0.00  0.00     0.013 A 
HETATM    8  C   UNK N   1      30.091  16.798   5.824  0.00  0.00     0.008 A 
BRANCH   6   9
HETATM    9  C   UNK N   1      27.080  18.877   4.792  0.00  0.00    -0.026 A 
HETATM   10  C   UNK N   1      27.372  19.975   3.958  0.00  0.00     0.012 A 
HETATM   11  C   UNK N   1      26.359  20.576   3.206  0.00  0.00     0.001 A 
HETATM   12  C   UNK N   1      25.050  20.094   3.278  0.00  0.00     0.000 A 
HETATM   13  C   UNK N   1      24.751  19.006   4.101  0.00  0.00     0.001 A 
HETATM   14  C   UNK N   1      25.762  18.403   4.852  0.00  0.00     0.012 A 
ENDBRANCH   6   9
ENDBRANCH   2   3
ENDBRANCH   1   2
BRANCH   1  15
HETATM   15  C   UNK N   1      33.390  17.731   7.598  0.00  0.00     0.035 C 
BRANCH  15  16
HETATM   16  C   UNK N   1      34.564  16.765   7.732  0.00  0.00     0.260 C 
HETATM   17  S   UNK N   1      34.453  15.345   6.588  0.00  0.00     0.307 SA
HETATM   18  O   UNK N   1      34.458  15.801   5.122  0.00  0.00    -0.195 OA
HETATM   19  O   UNK N   1      33.230  14.144   6.687  0.00  0.00    -0.089 OA
HETATM   20  O   UNK N   1      35.766  14.551   6.632  0.00  0.00    -0.195 OA
HETATM   21  K   UNK N   1      34.181  12.321   5.468  0.00  0.00     0.000 K 
HETATM   22  K   UNK N   1      35.904  13.072   9.371  0.00  0.00     0.000 K 
HETATM   23  O   UNK N   1      36.362  15.373   9.720  0.00  0.00    -0.138 OA
HETATM   24  P   UNK N   1      34.864  16.221   9.493  0.00  0.00     0.403 P 
HETATM   25  K   UNK N   1      34.728  14.558  12.272  0.00  0.00     0.000 K 
HETATM   26  O   UNK N   1      35.024  17.473  10.394  0.00  0.00    -0.253 OA
HETATM   27  O   UNK N   1      33.630  15.298  10.291  0.00  0.00    -0.138 OA
ENDBRANCH  15  16
ENDBRANCH   1  15
TORSDOF 5
ENDMDL
