REMARK  8 active torsions:
REMARK  status: ('A' for Active; 'I' for Inactive)
REMARK    1  A    between atoms: C_2  and  O_1 
REMARK    2  A    between atoms: C_4  and  C_2 
REMARK    3  A    between atoms: O_5  and  C_4 
REMARK    4  A    between atoms: C_6  and  O_5 
REMARK    5  A    between atoms: C_14  and  C_10 
REMARK    6  A    between atoms: C_15  and  C_14 
REMARK    7  A    between atoms: C_18  and  C_17 
REMARK    8  A    between atoms: O_22  and  C_21 
ROOT
HETATM    1  C   UNK N   1       2.210   3.249   0.253  0.00  0.00     0.070 A 
HETATM    2  C   UNK N   1       1.095   3.648  -0.482  0.00  0.00     0.044 A 
HETATM    3  C   UNK N   1      -0.041   2.840  -0.552  0.00  0.00    -0.052 A 
HETATM    4  C   UNK N   1      -1.209   3.327  -1.343  0.00  0.00     0.049 C 
HETATM    5  C   UNK N   1      -0.082   1.606   0.133  0.00  0.00    -0.042 A 
HETATM    6  C   UNK N   1       1.045   1.211   0.898  0.00  0.00    -0.052 A 
HETATM    7  C   UNK N   1       2.177   2.028   0.943  0.00  0.00     0.044 A 
HETATM    8  C   UNK N   1       1.071  -0.061   1.677  0.00  0.00     0.049 C 
ENDROOT
BRANCH   5   9
HETATM    9  C   UNK N   1      -1.347   0.774   0.058  0.00  0.00     0.078 C 
BRANCH   9  10
HETATM   10  C   UNK N   1      -1.183  -0.697  -0.192  0.00  0.00    -0.053 A 
HETATM   11  C   UNK N   1      -0.169  -1.206  -1.015  0.00  0.00     0.010 A 
HETATM   12  C   UNK N   1      -0.015  -2.589  -1.155  0.00  0.00     0.037 A 
HETATM   13  C   UNK N   1      -0.878  -3.469  -0.492  0.00  0.00     0.072 A 
HETATM   14  C   UNK N   1      -1.924  -2.966   0.309  0.00  0.00    -0.021 A 
HETATM   15  C   UNK N   1      -2.053  -1.575   0.456  0.00  0.00     0.017 A 
BRANCH  13  16
HETATM   16  O   UNK N   1      -0.699  -4.795  -0.630  0.00  0.00    -0.360 OA
HETATM   17  H   UNK N   1      -1.436  -5.365  -0.726  0.00  0.00     0.217 HD
ENDBRANCH  13  16
BRANCH  14  18
HETATM   18  C   UNK N   1      -2.877  -3.909   1.016  0.00  0.00     0.013 C 
HETATM   19  C   UNK N   1      -3.923  -3.196   1.864  0.00  0.00     0.015 C 
HETATM   20  C   UNK N   1      -3.602  -4.800   0.023  0.00  0.00     0.015 C 
ENDBRANCH  14  18
ENDBRANCH   9  10
ENDBRANCH   5   9
BRANCH   1  21
HETATM   21  O   UNK N   1       3.301   4.051   0.278  0.00  0.00    -0.341 OA
BRANCH  21  22
HETATM   22  C   UNK N   1       4.495   3.690   0.864  0.00  0.00     0.285 C 
BRANCH  22  23
HETATM   23  C   UNK N   1       5.331   2.941  -0.123  0.00  0.00     0.164 C 
HETATM   24  O   UNK N   1       5.683   3.477  -1.159  0.00  0.00    -0.648 OA
BRANCH  23  25
HETATM   25  O   UNK N   1       5.685   1.666   0.129  0.00  0.00    -0.775 OA
HETATM   26  H   UNK N   1       5.040   1.010   0.304  0.00  0.00     0.167 HD
ENDBRANCH  23  25
ENDBRANCH  22  23
ENDBRANCH  21  22
ENDBRANCH   1  21
TORSDOF 8
