MODEL 1
REMARK VINA RESULT:      -7.2      0.000      0.000
REMARK  8 active torsions:
REMARK  status: ('A' for Active; 'I' for Inactive)
REMARK    1  A    between atoms: C_2  and  O_1 
REMARK    2  A    between atoms: C_4  and  C_2 
REMARK    3  A    between atoms: O_5  and  C_4 
REMARK    4  A    between atoms: C_6  and  O_5 
REMARK    5  A    between atoms: C_14  and  C_10 
REMARK    6  A    between atoms: C_15  and  C_14 
REMARK    7  A    between atoms: C_18  and  C_17 
REMARK    8  A    between atoms: O_22  and  C_21 
ROOT
HETATM    1  C   UNK N   1      26.365  18.266   4.368  0.00  0.00     0.070 A 
HETATM    2  C   UNK N   1      26.807  19.114   5.382  0.00  0.00     0.044 A 
HETATM    3  C   UNK N   1      27.660  18.646   6.384  0.00  0.00    -0.052 A 
HETATM    4  C   UNK N   1      28.111  19.605   7.434  0.00  0.00     0.049 C 
HETATM    5  C   UNK N   1      28.097  17.304   6.378  0.00  0.00    -0.042 A 
HETATM    6  C   UNK N   1      27.664  16.447   5.335  0.00  0.00    -0.052 A 
HETATM    7  C   UNK N   1      26.799  16.932   4.350  0.00  0.00     0.044 A 
HETATM    8  C   UNK N   1      28.105  15.026   5.238  0.00  0.00     0.049 C 
ENDROOT
BRANCH   5   9
HETATM    9  C   UNK N   1      29.049  16.845   7.466  0.00  0.00     0.078 C 
BRANCH   9  10
HETATM   10  C   UNK N   1      30.496  17.213   7.307  0.00  0.00    -0.053 A 
HETATM   11  C   UNK N   1      31.259  17.716   8.369  0.00  0.00     0.010 A 
HETATM   12  C   UNK N   1      32.622  17.973   8.186  0.00  0.00     0.037 A 
HETATM   13  C   UNK N   1      33.225  17.747   6.944  0.00  0.00     0.072 A 
HETATM   14  C   UNK N   1      32.457  17.275   5.859  0.00  0.00    -0.021 A 
HETATM   15  C   UNK N   1      31.095  17.003   6.064  0.00  0.00     0.017 A 
BRANCH  13  16
HETATM   16  O   UNK N   1      34.541  17.986   6.798  0.00  0.00    -0.360 OA
HETATM   17  H   UNK N   1      35.149  17.703   7.451  0.00  0.00     0.217 HD
ENDBRANCH  13  16
BRANCH  14  18
HETATM   18  C   UNK N   1      33.096  17.046   4.503  0.00  0.00     0.013 C 
HETATM   19  C   UNK N   1      33.705  15.658   4.344  0.00  0.00     0.015 C 
HETATM   20  C   UNK N   1      32.091  17.251   3.384  0.00  0.00     0.015 C 
ENDBRANCH  14  18
ENDBRANCH   9  10
ENDBRANCH   5   9
BRANCH   1  21
HETATM   21  O   UNK N   1      25.521  18.752   3.427  0.00  0.00    -0.341 OA
BRANCH  21  22
HETATM   22  C   UNK N   1      24.326  19.371   3.726  0.00  0.00     0.285 C 
BRANCH  22  23
HETATM   23  C   UNK N   1      24.161  20.582   2.866  0.00  0.00     0.164 C 
HETATM   24  O   UNK N   1      23.149  21.256   2.945  0.00  0.00    -0.648 OA
BRANCH  23  25
HETATM   25  O   UNK N   1      25.129  20.921   1.992  0.00  0.00    -0.775 OA
HETATM   26  H   UNK N   1      25.879  21.409   2.266  0.00  0.00     0.167 HD
ENDBRANCH  23  25
ENDBRANCH  22  23
ENDBRANCH  21  22
ENDBRANCH   1  21
TORSDOF 8
ENDMDL
MODEL 2
REMARK VINA RESULT:      -6.9      2.256      4.268
REMARK  8 active torsions:
REMARK  status: ('A' for Active; 'I' for Inactive)
REMARK    1  A    between atoms: C_2  and  O_1 
REMARK    2  A    between atoms: C_4  and  C_2 
REMARK    3  A    between atoms: O_5  and  C_4 
REMARK    4  A    between atoms: C_6  and  O_5 
REMARK    5  A    between atoms: C_14  and  C_10 
REMARK    6  A    between atoms: C_15  and  C_14 
REMARK    7  A    between atoms: C_18  and  C_17 
REMARK    8  A    between atoms: O_22  and  C_21 
ROOT
HETATM    1  C   UNK N   1      22.973  19.624   3.500  0.00  0.00     0.070 A 
HETATM    2  C   UNK N   1      23.216  18.331   3.962  0.00  0.00     0.044 A 
HETATM    3  C   UNK N   1      24.518  17.833   4.040  0.00  0.00    -0.052 A 
HETATM    4  C   UNK N   1      24.716  16.447   4.556  0.00  0.00     0.049 C 
HETATM    5  C   UNK N   1      25.614  18.639   3.661  0.00  0.00    -0.042 A 
HETATM    6  C   UNK N   1      25.367  19.961   3.212  0.00  0.00    -0.052 A 
HETATM    7  C   UNK N   1      24.056  20.435   3.128  0.00  0.00     0.044 A 
HETATM    8  C   UNK N   1      26.470  20.888   2.824  0.00  0.00     0.049 C 
ENDROOT
BRANCH   5   9
HETATM    9  C   UNK N   1      27.013  18.072   3.792  0.00  0.00     0.078 C 
BRANCH   9  10
HETATM   10  C   UNK N   1      27.702  18.250   5.114  0.00  0.00    -0.053 A 
HETATM   11  C   UNK N   1      27.293  19.216   6.045  0.00  0.00     0.010 A 
HETATM   12  C   UNK N   1      27.921  19.291   7.292  0.00  0.00     0.037 A 
HETATM   13  C   UNK N   1      28.968  18.419   7.611  0.00  0.00     0.072 A 
HETATM   14  C   UNK N   1      29.411  17.468   6.668  0.00  0.00    -0.021 A 
HETATM   15  C   UNK N   1      28.756  17.392   5.428  0.00  0.00     0.017 A 
BRANCH  13  16
HETATM   16  O   UNK N   1      29.546  18.500   8.823  0.00  0.00    -0.360 OA
HETATM   17  H   UNK N   1      29.718  19.335   9.211  0.00  0.00     0.217 HD
ENDBRANCH  13  16
BRANCH  14  18
HETATM   18  C   UNK N   1      30.557  16.532   6.996  0.00  0.00     0.013 C 
HETATM   19  C   UNK N   1      30.580  15.273   6.138  0.00  0.00     0.015 C 
HETATM   20  C   UNK N   1      31.896  17.231   6.843  0.00  0.00     0.015 C 
ENDBRANCH  14  18
ENDBRANCH   9  10
ENDBRANCH   5   9
BRANCH   1  21
HETATM   21  O   UNK N   1      21.695  20.062   3.419  0.00  0.00    -0.341 OA
BRANCH  21  22
HETATM   22  C   UNK N   1      20.778  19.565   2.518  0.00  0.00     0.285 C 
BRANCH  22  23
HETATM   23  C   UNK N   1      20.802  20.390   1.272  0.00  0.00     0.164 C 
HETATM   24  O   UNK N   1      20.961  21.596   1.339  0.00  0.00    -0.648 OA
BRANCH  23  25
HETATM   25  O   UNK N   1      20.636  19.798   0.073  0.00  0.00    -0.775 OA
HETATM   26  H   UNK N   1      21.222  19.131  -0.223  0.00  0.00     0.167 HD
ENDBRANCH  23  25
ENDBRANCH  22  23
ENDBRANCH  21  22
ENDBRANCH   1  21
TORSDOF 8
ENDMDL
MODEL 3
REMARK VINA RESULT:      -6.9      3.230      5.095
REMARK  8 active torsions:
REMARK  status: ('A' for Active; 'I' for Inactive)
REMARK    1  A    between atoms: C_2  and  O_1 
REMARK    2  A    between atoms: C_4  and  C_2 
REMARK    3  A    between atoms: O_5  and  C_4 
REMARK    4  A    between atoms: C_6  and  O_5 
REMARK    5  A    between atoms: C_14  and  C_10 
REMARK    6  A    between atoms: C_15  and  C_14 
REMARK    7  A    between atoms: C_18  and  C_17 
REMARK    8  A    between atoms: O_22  and  C_21 
ROOT
HETATM    1  C   UNK N   1      22.966  20.307   3.121  0.00  0.00     0.070 A 
HETATM    2  C   UNK N   1      24.311  20.658   3.020  0.00  0.00     0.044 A 
HETATM    3  C   UNK N   1      25.301  19.865   3.602  0.00  0.00    -0.052 A 
HETATM    4  C   UNK N   1      26.725  20.284   3.449  0.00  0.00     0.049 C 
HETATM    5  C   UNK N   1      24.954  18.685   4.295  0.00  0.00    -0.042 A 
HETATM    6  C   UNK N   1      23.587  18.318   4.378  0.00  0.00    -0.052 A 
HETATM    7  C   UNK N   1      22.611  19.133   3.801  0.00  0.00     0.044 A 
HETATM    8  C   UNK N   1      23.138  17.071   5.064  0.00  0.00     0.049 C 
ENDROOT
BRANCH   5   9
HETATM    9  C   UNK N   1      26.062  17.834   4.884  0.00  0.00     0.078 C 
BRANCH   9  10
HETATM   10  C   UNK N   1      26.726  16.848   3.969  0.00  0.00    -0.053 A 
HETATM   11  C   UNK N   1      26.043  16.236   2.909  0.00  0.00     0.010 A 
HETATM   12  C   UNK N   1      26.729  15.380   2.041  0.00  0.00     0.037 A 
HETATM   13  C   UNK N   1      28.089  15.116   2.233  0.00  0.00     0.072 A 
HETATM   14  C   UNK N   1      28.777  15.698   3.318  0.00  0.00    -0.021 A 
HETATM   15  C   UNK N   1      28.079  16.571   4.170  0.00  0.00     0.017 A 
BRANCH  13  16
HETATM   16  O   UNK N   1      28.730  14.303   1.375  0.00  0.00    -0.360 OA
HETATM   17  H   UNK N   1      28.724  14.484   0.456  0.00  0.00     0.217 HD
ENDBRANCH  13  16
BRANCH  14  18
HETATM   18  C   UNK N   1      30.246  15.405   3.549  0.00  0.00     0.013 C 
HETATM   19  C   UNK N   1      31.171  16.525   3.091  0.00  0.00     0.015 C 
HETATM   20  C   UNK N   1      30.526  15.132   5.016  0.00  0.00     0.015 C 
ENDBRANCH  14  18
ENDBRANCH   9  10
ENDBRANCH   5   9
BRANCH   1  21
HETATM   21  O   UNK N   1      22.033  21.115   2.561  0.00  0.00    -0.341 OA
BRANCH  21  22
HETATM   22  C   UNK N   1      20.803  20.668   2.129  0.00  0.00     0.285 C 
BRANCH  22  23
HETATM   23  C   UNK N   1      20.872  20.342   0.672  0.00  0.00     0.164 C 
HETATM   24  O   UNK N   1      21.274  21.173  -0.123  0.00  0.00    -0.648 OA
BRANCH  23  25
HETATM   25  O   UNK N   1      20.475  19.131   0.236  0.00  0.00    -0.775 OA
HETATM   26  H   UNK N   1      19.963  18.565   0.779  0.00  0.00     0.167 HD
ENDBRANCH  23  25
ENDBRANCH  22  23
ENDBRANCH  21  22
ENDBRANCH   1  21
TORSDOF 8
ENDMDL
MODEL 4
REMARK VINA RESULT:      -6.8      2.046      3.230
REMARK  8 active torsions:
REMARK  status: ('A' for Active; 'I' for Inactive)
REMARK    1  A    between atoms: C_2  and  O_1 
REMARK    2  A    between atoms: C_4  and  C_2 
REMARK    3  A    between atoms: O_5  and  C_4 
REMARK    4  A    between atoms: C_6  and  O_5 
REMARK    5  A    between atoms: C_14  and  C_10 
REMARK    6  A    between atoms: C_15  and  C_14 
REMARK    7  A    between atoms: C_18  and  C_17 
REMARK    8  A    between atoms: O_22  and  C_21 
ROOT
HETATM    1  C   UNK N   1      23.628  19.038   4.087  0.00  0.00     0.070 A 
HETATM    2  C   UNK N   1      24.685  19.887   3.763  0.00  0.00     0.044 A 
HETATM    3  C   UNK N   1      26.008  19.457   3.876  0.00  0.00    -0.052 A 
HETATM    4  C   UNK N   1      27.096  20.407   3.501  0.00  0.00     0.049 C 
HETATM    5  C   UNK N   1      26.297  18.145   4.310  0.00  0.00    -0.042 A 
HETATM    6  C   UNK N   1      25.220  17.274   4.619  0.00  0.00    -0.052 A 
HETATM    7  C   UNK N   1      23.904  17.730   4.513  0.00  0.00     0.044 A 
HETATM    8  C   UNK N   1      25.438  15.864   5.053  0.00  0.00     0.049 C 
ENDROOT
BRANCH   5   9
HETATM    9  C   UNK N   1      27.746  17.707   4.387  0.00  0.00     0.078 C 
BRANCH   9  10
HETATM   10  C   UNK N   1      28.432  17.845   5.715  0.00  0.00    -0.053 A 
HETATM   11  C   UNK N   1      27.826  18.484   6.805  0.00  0.00     0.010 A 
HETATM   12  C   UNK N   1      28.479  18.520   8.042  0.00  0.00     0.037 A 
HETATM   13  C   UNK N   1      29.742  17.937   8.193  0.00  0.00     0.072 A 
HETATM   14  C   UNK N   1      30.376  17.324   7.093  0.00  0.00    -0.021 A 
HETATM   15  C   UNK N   1      29.698  17.278   5.863  0.00  0.00     0.017 A 
BRANCH  13  16
HETATM   16  O   UNK N   1      30.342  17.971   9.396  0.00  0.00    -0.360 OA
HETATM   17  H   UNK N   1      29.869  18.254  10.154  0.00  0.00     0.217 HD
ENDBRANCH  13  16
BRANCH  14  18
HETATM   18  C   UNK N   1      31.752  16.707   7.240  0.00  0.00     0.013 C 
HETATM   19  C   UNK N   1      31.766  15.195   7.048  0.00  0.00     0.015 C 
HETATM   20  C   UNK N   1      32.733  17.316   6.254  0.00  0.00     0.015 C 
ENDBRANCH  14  18
ENDBRANCH   9  10
ENDBRANCH   5   9
BRANCH   1  21
HETATM   21  O   UNK N   1      22.359  19.500   3.986  0.00  0.00    -0.341 OA
BRANCH  21  22
HETATM   22  C   UNK N   1      21.565  19.301   2.877  0.00  0.00     0.285 C 
BRANCH  22  23
HETATM   23  C   UNK N   1      21.507  20.559   2.071  0.00  0.00     0.164 C 
HETATM   24  O   UNK N   1      21.400  20.505   0.859  0.00  0.00    -0.648 OA
BRANCH  23  25
HETATM   25  O   UNK N   1      21.586  21.754   2.687  0.00  0.00    -0.775 OA
HETATM   26  H   UNK N   1      22.405  22.087   2.995  0.00  0.00     0.167 HD
ENDBRANCH  23  25
ENDBRANCH  22  23
ENDBRANCH  21  22
ENDBRANCH   1  21
TORSDOF 8
ENDMDL
MODEL 5
REMARK VINA RESULT:      -6.6      4.025      9.452
REMARK  8 active torsions:
REMARK  status: ('A' for Active; 'I' for Inactive)
REMARK    1  A    between atoms: C_2  and  O_1 
REMARK    2  A    between atoms: C_4  and  C_2 
REMARK    3  A    between atoms: O_5  and  C_4 
REMARK    4  A    between atoms: C_6  and  O_5 
REMARK    5  A    between atoms: C_14  and  C_10 
REMARK    6  A    between atoms: C_15  and  C_14 
REMARK    7  A    between atoms: C_18  and  C_17 
REMARK    8  A    between atoms: O_22  and  C_21 
ROOT
HETATM    1  C   UNK N   1      35.132  15.739  10.682  0.00  0.00     0.070 A 
HETATM    2  C   UNK N   1      35.253  16.961  10.023  0.00  0.00     0.044 A 
HETATM    3  C   UNK N   1      34.417  17.281   8.953  0.00  0.00    -0.052 A 
HETATM    4  C   UNK N   1      34.584  18.611   8.296  0.00  0.00     0.049 C 
HETATM    5  C   UNK N   1      33.424  16.372   8.526  0.00  0.00    -0.042 A 
HETATM    6  C   UNK N   1      33.288  15.138   9.210  0.00  0.00    -0.052 A 
HETATM    7  C   UNK N   1      34.144  14.831  10.271  0.00  0.00     0.044 A 
HETATM    8  C   UNK N   1      32.245  14.136   8.844  0.00  0.00     0.049 C 
ENDROOT
BRANCH   5   9
HETATM    9  C   UNK N   1      32.515  16.772   7.380  0.00  0.00     0.078 C 
BRANCH   9  10
HETATM   10  C   UNK N   1      31.180  17.355   7.740  0.00  0.00    -0.053 A 
HETATM   11  C   UNK N   1      30.968  18.056   8.935  0.00  0.00     0.010 A 
HETATM   12  C   UNK N   1      29.724  18.642   9.187  0.00  0.00     0.037 A 
HETATM   13  C   UNK N   1      28.682  18.519   8.261  0.00  0.00     0.072 A 
HETATM   14  C   UNK N   1      28.874  17.786   7.072  0.00  0.00    -0.021 A 
HETATM   15  C   UNK N   1      30.135  17.220   6.824  0.00  0.00     0.017 A 
BRANCH  13  16
HETATM   16  O   UNK N   1      27.499  19.106   8.519  0.00  0.00    -0.360 OA
HETATM   17  H   UNK N   1      27.468  19.974   8.871  0.00  0.00     0.217 HD
ENDBRANCH  13  16
BRANCH  14  18
HETATM   18  C   UNK N   1      27.747  17.629   6.071  0.00  0.00     0.013 C 
HETATM   19  C   UNK N   1      28.118  18.072   4.661  0.00  0.00     0.015 C 
HETATM   20  C   UNK N   1      27.271  16.189   6.003  0.00  0.00     0.015 C 
ENDBRANCH  14  18
ENDBRANCH   9  10
ENDBRANCH   5   9
BRANCH   1  21
HETATM   21  O   UNK N   1      35.976  15.457  11.702  0.00  0.00    -0.341 OA
BRANCH  21  22
HETATM   22  C   UNK N   1      35.715  14.504  12.663  0.00  0.00     0.285 C 
BRANCH  22  23
HETATM   23  C   UNK N   1      36.751  13.429  12.598  0.00  0.00     0.164 C 
HETATM   24  O   UNK N   1      36.747  12.523  13.413  0.00  0.00    -0.648 OA
BRANCH  23  25
HETATM   25  O   UNK N   1      37.700  13.469  11.642  0.00  0.00    -0.775 OA
HETATM   26  H   UNK N   1      37.726  14.164  11.014  0.00  0.00     0.167 HD
ENDBRANCH  23  25
ENDBRANCH  22  23
ENDBRANCH  21  22
ENDBRANCH   1  21
TORSDOF 8
ENDMDL
MODEL 6
REMARK VINA RESULT:      -6.6     13.229     16.760
REMARK  8 active torsions:
REMARK  status: ('A' for Active; 'I' for Inactive)
REMARK    1  A    between atoms: C_2  and  O_1 
REMARK    2  A    between atoms: C_4  and  C_2 
REMARK    3  A    between atoms: O_5  and  C_4 
REMARK    4  A    between atoms: C_6  and  O_5 
REMARK    5  A    between atoms: C_14  and  C_10 
REMARK    6  A    between atoms: C_15  and  C_14 
REMARK    7  A    between atoms: C_18  and  C_17 
REMARK    8  A    between atoms: O_22  and  C_21 
ROOT
HETATM    1  C   UNK N   1      35.538  12.942  16.105  0.00  0.00     0.070 A 
HETATM    2  C   UNK N   1      35.188  13.410  17.370  0.00  0.00     0.044 A 
HETATM    3  C   UNK N   1      35.226  12.565  18.480  0.00  0.00    -0.052 A 
HETATM    4  C   UNK N   1      34.852  13.126  19.811  0.00  0.00     0.049 C 
HETATM    5  C   UNK N   1      35.632  11.220  18.339  0.00  0.00    -0.042 A 
HETATM    6  C   UNK N   1      36.009  10.751  17.055  0.00  0.00    -0.052 A 
HETATM    7  C   UNK N   1      35.950  11.610  15.955  0.00  0.00     0.044 A 
HETATM    8  C   UNK N   1      36.481   9.354  16.825  0.00  0.00     0.049 C 
ENDROOT
BRANCH   5   9
HETATM    9  C   UNK N   1      35.691  10.344  19.575  0.00  0.00     0.078 C 
BRANCH   9  10
HETATM   10  C   UNK N   1      34.419   9.665  19.992  0.00  0.00    -0.053 A 
HETATM   11  C   UNK N   1      33.682   8.857  19.115  0.00  0.00     0.010 A 
HETATM   12  C   UNK N   1      32.544   8.188  19.577  0.00  0.00     0.037 A 
HETATM   13  C   UNK N   1      32.125   8.334  20.904  0.00  0.00     0.072 A 
HETATM   14  C   UNK N   1      32.838   9.174  21.783  0.00  0.00    -0.021 A 
HETATM   15  C   UNK N   1      33.991   9.823  21.311  0.00  0.00     0.017 A 
BRANCH  13  16
HETATM   16  O   UNK N   1      31.036   7.667  21.327  0.00  0.00    -0.360 OA
HETATM   17  H   UNK N   1      30.250   7.672  20.818  0.00  0.00     0.217 HD
ENDBRANCH  13  16
BRANCH  14  18
HETATM   18  C   UNK N   1      32.383   9.355  23.218  0.00  0.00     0.013 C 
HETATM   19  C   UNK N   1      32.839   8.238  24.148  0.00  0.00     0.015 C 
HETATM   20  C   UNK N   1      32.877  10.674  23.786  0.00  0.00     0.015 C 
ENDBRANCH  14  18
ENDBRANCH   9  10
ENDBRANCH   5   9
BRANCH   1  21
HETATM   21  O   UNK N   1      35.467  13.788  15.049  0.00  0.00    -0.341 OA
BRANCH  21  22
HETATM   22  C   UNK N   1      36.396  13.811  14.031  0.00  0.00     0.285 C 
BRANCH  22  23
HETATM   23  C   UNK N   1      35.694  13.891  12.714  0.00  0.00     0.164 C 
HETATM   24  O   UNK N   1      36.248  14.397  11.755  0.00  0.00    -0.648 OA
BRANCH  23  25
HETATM   25  O   UNK N   1      34.441  13.412  12.593  0.00  0.00    -0.775 OA
HETATM   26  H   UNK N   1      33.739  13.960  12.302  0.00  0.00     0.167 HD
ENDBRANCH  23  25
ENDBRANCH  22  23
ENDBRANCH  21  22
ENDBRANCH   1  21
TORSDOF 8
ENDMDL
MODEL 7
REMARK VINA RESULT:      -6.5      3.910      9.275
REMARK  8 active torsions:
REMARK  status: ('A' for Active; 'I' for Inactive)
REMARK    1  A    between atoms: C_2  and  O_1 
REMARK    2  A    between atoms: C_4  and  C_2 
REMARK    3  A    between atoms: O_5  and  C_4 
REMARK    4  A    between atoms: C_6  and  O_5 
REMARK    5  A    between atoms: C_14  and  C_10 
REMARK    6  A    between atoms: C_15  and  C_14 
REMARK    7  A    between atoms: C_18  and  C_17 
REMARK    8  A    between atoms: O_22  and  C_21 
ROOT
HETATM    1  C   UNK N   1      34.219  15.288  10.387  0.00  0.00     0.070 A 
HETATM    2  C   UNK N   1      34.527  16.582   9.970  0.00  0.00     0.044 A 
HETATM    3  C   UNK N   1      34.176  17.024   8.694  0.00  0.00    -0.052 A 
HETATM    4  C   UNK N   1      34.520  18.424   8.309  0.00  0.00     0.049 C 
HETATM    5  C   UNK N   1      33.491  16.167   7.805  0.00  0.00    -0.042 A 
HETATM    6  C   UNK N   1      33.159  14.857   8.238  0.00  0.00    -0.052 A 
HETATM    7  C   UNK N   1      33.532  14.431   9.515  0.00  0.00     0.044 A 
HETATM    8  C   UNK N   1      32.408  13.901   7.374  0.00  0.00     0.049 C 
ENDROOT
BRANCH   5   9
HETATM    9  C   UNK N   1      33.099  16.697   6.440  0.00  0.00     0.078 C 
BRANCH   9  10
HETATM   10  C   UNK N   1      31.676  17.143   6.264  0.00  0.00    -0.053 A 
HETATM   11  C   UNK N   1      31.052  17.168   5.009  0.00  0.00     0.010 A 
HETATM   12  C   UNK N   1      29.702  17.522   4.911  0.00  0.00     0.037 A 
HETATM   13  C   UNK N   1      28.975  17.869   6.055  0.00  0.00     0.072 A 
HETATM   14  C   UNK N   1      29.604  17.882   7.317  0.00  0.00    -0.021 A 
HETATM   15  C   UNK N   1      30.955  17.504   7.402  0.00  0.00     0.017 A 
BRANCH  13  16
HETATM   16  O   UNK N   1      27.674  18.190   5.936  0.00  0.00    -0.360 OA
HETATM   17  H   UNK N   1      27.420  19.064   5.716  0.00  0.00     0.217 HD
ENDBRANCH  13  16
BRANCH  14  18
HETATM   18  C   UNK N   1      28.832  18.275   8.561  0.00  0.00     0.013 C 
HETATM   19  C   UNK N   1      27.967  17.153   9.120  0.00  0.00     0.015 C 
HETATM   20  C   UNK N   1      29.768  18.742   9.661  0.00  0.00     0.015 C 
ENDBRANCH  14  18
ENDBRANCH   9  10
ENDBRANCH   5   9
BRANCH   1  21
HETATM   21  O   UNK N   1      34.596  14.890  11.625  0.00  0.00    -0.341 OA
BRANCH  21  22
HETATM   22  C   UNK N   1      35.910  14.833  12.037  0.00  0.00     0.285 C 
BRANCH  22  23
HETATM   23  C   UNK N   1      35.973  14.336  13.445  0.00  0.00     0.164 C 
HETATM   24  O   UNK N   1      35.104  13.597  13.873  0.00  0.00    -0.648 OA
BRANCH  23  25
HETATM   25  O   UNK N   1      36.987  14.717  14.246  0.00  0.00    -0.775 OA
HETATM   26  H   UNK N   1      37.641  15.317  13.947  0.00  0.00     0.167 HD
ENDBRANCH  23  25
ENDBRANCH  22  23
ENDBRANCH  21  22
ENDBRANCH   1  21
TORSDOF 8
ENDMDL
MODEL 8
REMARK VINA RESULT:      -6.5      2.357      3.758
REMARK  8 active torsions:
REMARK  status: ('A' for Active; 'I' for Inactive)
REMARK    1  A    between atoms: C_2  and  O_1 
REMARK    2  A    between atoms: C_4  and  C_2 
REMARK    3  A    between atoms: O_5  and  C_4 
REMARK    4  A    between atoms: C_6  and  O_5 
REMARK    5  A    between atoms: C_14  and  C_10 
REMARK    6  A    between atoms: C_15  and  C_14 
REMARK    7  A    between atoms: C_18  and  C_17 
REMARK    8  A    between atoms: O_22  and  C_21 
ROOT
HETATM    1  C   UNK N   1      23.850  18.153   3.912  0.00  0.00     0.070 A 
HETATM    2  C   UNK N   1      24.443  16.979   4.372  0.00  0.00     0.044 A 
HETATM    3  C   UNK N   1      25.820  16.910   4.587  0.00  0.00    -0.052 A 
HETATM    4  C   UNK N   1      26.395  15.630   5.093  0.00  0.00     0.049 C 
HETATM    5  C   UNK N   1      26.636  18.039   4.351  0.00  0.00    -0.042 A 
HETATM    6  C   UNK N   1      26.028  19.240   3.904  0.00  0.00    -0.052 A 
HETATM    7  C   UNK N   1      24.650  19.282   3.682  0.00  0.00     0.044 A 
HETATM    8  C   UNK N   1      26.813  20.485   3.662  0.00  0.00     0.049 C 
ENDROOT
BRANCH   5   9
HETATM    9  C   UNK N   1      28.122  17.932   4.628  0.00  0.00     0.078 C 
BRANCH   9  10
HETATM   10  C   UNK N   1      28.568  18.130   6.048  0.00  0.00    -0.053 A 
HETATM   11  C   UNK N   1      27.836  18.902   6.960  0.00  0.00     0.010 A 
HETATM   12  C   UNK N   1      28.257  18.993   8.290  0.00  0.00     0.037 A 
HETATM   13  C   UNK N   1      29.415  18.332   8.714  0.00  0.00     0.072 A 
HETATM   14  C   UNK N   1      30.179  17.583   7.795  0.00  0.00    -0.021 A 
HETATM   15  C   UNK N   1      29.732  17.484   6.467  0.00  0.00     0.017 A 
BRANCH  13  16
HETATM   16  O   UNK N   1      29.790  18.422  10.003  0.00  0.00    -0.360 OA
HETATM   17  H   UNK N   1      30.119  17.670  10.454  0.00  0.00     0.217 HD
ENDBRANCH  13  16
BRANCH  14  18
HETATM   18  C   UNK N   1      31.446  16.878   8.238  0.00  0.00     0.013 C 
HETATM   19  C   UNK N   1      31.747  15.612   7.447  0.00  0.00     0.015 C 
HETATM   20  C   UNK N   1      32.649  17.799   8.132  0.00  0.00     0.015 C 
ENDBRANCH  14  18
ENDBRANCH   9  10
ENDBRANCH   5   9
BRANCH   1  21
HETATM   21  O   UNK N   1      22.513  18.173   3.695  0.00  0.00    -0.341 OA
BRANCH  21  22
HETATM   22  C   UNK N   1      21.680  19.159   4.177  0.00  0.00     0.285 C 
BRANCH  22  23
HETATM   23  C   UNK N   1      21.102  19.929   3.034  0.00  0.00     0.164 C 
HETATM   24  O   UNK N   1      20.951  19.394   1.949  0.00  0.00    -0.648 OA
BRANCH  23  25
HETATM   25  O   UNK N   1      20.759  21.221   3.200  0.00  0.00    -0.775 OA
HETATM   26  H   UNK N   1      20.436  21.534   4.022  0.00  0.00     0.167 HD
ENDBRANCH  23  25
ENDBRANCH  22  23
ENDBRANCH  21  22
ENDBRANCH   1  21
TORSDOF 8
ENDMDL
MODEL 9
REMARK VINA RESULT:      -6.4      3.078      7.949
REMARK  8 active torsions:
REMARK  status: ('A' for Active; 'I' for Inactive)
REMARK    1  A    between atoms: C_2  and  O_1 
REMARK    2  A    between atoms: C_4  and  C_2 
REMARK    3  A    between atoms: O_5  and  C_4 
REMARK    4  A    between atoms: C_6  and  O_5 
REMARK    5  A    between atoms: C_14  and  C_10 
REMARK    6  A    between atoms: C_15  and  C_14 
REMARK    7  A    between atoms: C_18  and  C_17 
REMARK    8  A    between atoms: O_22  and  C_21 
ROOT
HETATM    1  C   UNK N   1      28.588  18.937   7.507  0.00  0.00     0.070 A 
HETATM    2  C   UNK N   1      27.837  20.101   7.352  0.00  0.00     0.044 A 
HETATM    3  C   UNK N   1      27.259  20.419   6.122  0.00  0.00    -0.052 A 
HETATM    4  C   UNK N   1      26.454  21.671   6.021  0.00  0.00     0.049 C 
HETATM    5  C   UNK N   1      27.416  19.556   5.015  0.00  0.00    -0.042 A 
HETATM    6  C   UNK N   1      28.163  18.362   5.180  0.00  0.00    -0.052 A 
HETATM    7  C   UNK N   1      28.745  18.070   6.415  0.00  0.00     0.044 A 
HETATM    8  C   UNK N   1      28.350  17.382   4.071  0.00  0.00     0.049 C 
ENDROOT
BRANCH   5   9
HETATM    9  C   UNK N   1      26.744  19.922   3.707  0.00  0.00     0.078 C 
BRANCH   9  10
HETATM   10  C   UNK N   1      25.260  19.716   3.620  0.00  0.00    -0.053 A 
HETATM   11  C   UNK N   1      24.404  20.675   3.060  0.00  0.00     0.010 A 
HETATM   12  C   UNK N   1      23.038  20.401   2.938  0.00  0.00     0.037 A 
HETATM   13  C   UNK N   1      22.516  19.182   3.386  0.00  0.00     0.072 A 
HETATM   14  C   UNK N   1      23.363  18.226   3.984  0.00  0.00    -0.021 A 
HETATM   15  C   UNK N   1      24.736  18.508   4.082  0.00  0.00     0.017 A 
BRANCH  13  16
HETATM   16  O   UNK N   1      21.202  18.936   3.242  0.00  0.00    -0.360 OA
HETATM   17  H   UNK N   1      20.568  19.554   3.549  0.00  0.00     0.217 HD
ENDBRANCH  13  16
BRANCH  14  18
HETATM   18  C   UNK N   1      22.806  16.911   4.492  0.00  0.00     0.013 C 
HETATM   19  C   UNK N   1      22.815  15.802   3.447  0.00  0.00     0.015 C 
HETATM   20  C   UNK N   1      23.577  16.422   5.705  0.00  0.00     0.015 C 
ENDBRANCH  14  18
ENDBRANCH   9  10
ENDBRANCH   5   9
BRANCH   1  21
HETATM   21  O   UNK N   1      29.152  18.675   8.710  0.00  0.00    -0.341 OA
BRANCH  21  22
HETATM   22  C   UNK N   1      29.751  17.474   9.022  0.00  0.00     0.285 C 
BRANCH  22  23
HETATM   23  C   UNK N   1      28.991  16.805  10.122  0.00  0.00     0.164 C 
HETATM   24  O   UNK N   1      27.779  16.702  10.053  0.00  0.00    -0.648 OA
BRANCH  23  25
HETATM   25  O   UNK N   1      29.647  16.328  11.197  0.00  0.00    -0.775 OA
HETATM   26  H   UNK N   1      30.510  15.973  11.119  0.00  0.00     0.167 HD
ENDBRANCH  23  25
ENDBRANCH  22  23
ENDBRANCH  21  22
ENDBRANCH   1  21
TORSDOF 8
ENDMDL
