REMARK  12 active torsions:
REMARK  status: ('A' for Active; 'I' for Inactive)
REMARK    1  A    between atoms: C_6  and  C_7 
REMARK    2  A    between atoms: C_12  and  C_13 
REMARK    3  A    between atoms: C_18  and  O_19 
REMARK    4  A    between atoms: O_19  and  C_20 
REMARK    5  A    between atoms: C_20  and  C_21 
REMARK    6  A    between atoms: C_21  and  P_22 
REMARK    7  A    between atoms: C_21  and  O_30 
REMARK    8  A    between atoms: C_21  and  P_26 
REMARK    9  A    between atoms: P_22  and  O_25 
REMARK   10  A    between atoms: P_22  and  O_23 
REMARK   11  A    between atoms: P_26  and  O_29 
REMARK   12  A    between atoms: P_26  and  O_27 
ROOT
HETATM    1  C   UNK N   1      -1.002  -0.049   0.096  0.00  0.00    -0.023 A 
HETATM    2  C   UNK N   1      -0.030  -0.902  -0.440  0.00  0.00     0.049 A 
HETATM    3  C   UNK N   1      -0.654   1.275   0.411  0.00  0.00     0.012 A 
HETATM    4  C   UNK N   1       0.651   1.728   0.223  0.00  0.00     0.004 A 
HETATM    5  C   UNK N   1       1.610   0.875  -0.321  0.00  0.00     0.037 A 
HETATM    6  C   UNK N   1       1.274  -0.436  -0.665  0.00  0.00     0.069 A 
ENDROOT
BRANCH   6   7
HETATM    7  O   UNK N   1       2.221  -1.223  -1.221  0.00  0.00    -0.347 OA
BRANCH   7   8
HETATM    8  C   UNK N   1       2.003  -2.512  -1.658  0.00  0.00     0.239 C 
BRANCH   8   9
HETATM    9  C   UNK N   1       2.636  -3.551  -0.728  0.00  0.00     0.274 C 
BRANCH   9  10
HETATM   10  P   UNK N   1       1.301  -4.322   0.320  0.00  0.00     0.286 P 
HETATM   11  O   UNK N   1       1.900  -5.424   1.233  0.00  0.00    -0.651 OA
BRANCH  10  12
HETATM   12  O   UNK N   1       0.487  -3.258   1.422  0.00  0.00    -0.327 OA
HETATM   13  H   UNK N   1       0.774  -2.567   2.039  0.00  0.00     0.220 HD
ENDBRANCH  10  12
BRANCH  10  14
HETATM   14  O   UNK N   1       0.071  -5.154  -0.579  0.00  0.00    -0.327 OA
HETATM   15  H   UNK N   1      -0.675  -4.791  -1.082  0.00  0.00     0.220 HD
ENDBRANCH  10  14
ENDBRANCH   9  10
BRANCH   9  16
HETATM   16  O   UNK N   1       3.215  -4.546  -1.513  0.00  0.00    -0.366 OA
HETATM   17  H   UNK N   1       2.816  -5.242  -2.060  0.00  0.00     0.212 HD
ENDBRANCH   9  16
BRANCH   9  18
HETATM   18  P   UNK N   1       3.953  -2.805   0.380  0.00  0.00     0.286 P 
HETATM   19  O   UNK N   1       4.619  -3.884   1.273  0.00  0.00    -0.651 OA
BRANCH  18  20
HETATM   20  O   UNK N   1       3.363  -1.623   1.507  0.00  0.00    -0.327 OA
HETATM   21  H   UNK N   1       3.771  -1.007   2.136  0.00  0.00     0.220 HD
ENDBRANCH  18  20
BRANCH  18  22
HETATM   22  O   UNK N   1       5.276  -2.067  -0.467  0.00  0.00    -0.327 OA
HETATM   23  H   UNK N   1       6.003  -2.501  -0.940  0.00  0.00     0.220 HD
ENDBRANCH  18  22
ENDBRANCH   9  18
ENDBRANCH   8   9
ENDBRANCH   7   8
ENDBRANCH   6   7
BRANCH   1  24
HETATM   24  C   UNK N   1      -2.400  -0.502   0.230  0.00  0.00    -0.025 A 
HETATM   25  C   UNK N   1      -3.415   0.453   0.317  0.00  0.00     0.024 A 
HETATM   26  C   UNK N   1      -4.762   0.083   0.314  0.00  0.00    -0.025 A 
HETATM   27  C   UNK N   1      -5.095  -1.281   0.265  0.00  0.00     0.012 A 
HETATM   28  C   UNK N   1      -4.086  -2.250   0.206  0.00  0.00     0.002 A 
HETATM   29  C   UNK N   1      -2.743  -1.861   0.158  0.00  0.00     0.012 A 
BRANCH  26  30
HETATM   30  C   UNK N   1      -5.802   1.134   0.246  0.00  0.00    -0.026 A 
HETATM   31  C   UNK N   1      -7.158   0.797   0.110  0.00  0.00     0.012 A 
HETATM   32  C   UNK N   1      -8.123   1.799  -0.030  0.00  0.00     0.001 A 
HETATM   33  C   UNK N   1      -7.742   3.143  -0.039  0.00  0.00     0.000 A 
HETATM   34  C   UNK N   1      -6.397   3.490   0.099  0.00  0.00     0.001 A 
HETATM   35  C   UNK N   1      -5.432   2.491   0.236  0.00  0.00     0.012 A 
ENDBRANCH  26  30
ENDBRANCH   1  24
TORSDOF 12
