MODEL 1
REMARK VINA RESULT:      -8.7      0.000      0.000
REMARK  12 active torsions:
REMARK  status: ('A' for Active; 'I' for Inactive)
REMARK    1  A    between atoms: C_6  and  C_7 
REMARK    2  A    between atoms: C_12  and  C_13 
REMARK    3  A    between atoms: C_18  and  O_19 
REMARK    4  A    between atoms: O_19  and  C_20 
REMARK    5  A    between atoms: C_20  and  C_21 
REMARK    6  A    between atoms: C_21  and  P_22 
REMARK    7  A    between atoms: C_21  and  O_30 
REMARK    8  A    between atoms: C_21  and  P_26 
REMARK    9  A    between atoms: P_22  and  O_25 
REMARK   10  A    between atoms: P_22  and  O_23 
REMARK   11  A    between atoms: P_26  and  O_29 
REMARK   12  A    between atoms: P_26  and  O_27 
ROOT
HETATM    1  C   UNK N   1      36.338  12.724  11.934  0.00  0.00    -0.023 A 
HETATM    2  C   UNK N   1      35.873  13.962  11.473  0.00  0.00     0.049 A 
HETATM    3  C   UNK N   1      37.597  12.265  11.514  0.00  0.00     0.012 A 
HETATM    4  C   UNK N   1      38.364  13.015  10.624  0.00  0.00     0.004 A 
HETATM    5  C   UNK N   1      37.898  14.251  10.178  0.00  0.00     0.037 A 
HETATM    6  C   UNK N   1      36.660  14.735  10.607  0.00  0.00     0.069 A 
ENDROOT
BRANCH   6   7
HETATM    7  O   UNK N   1      36.257  15.952  10.181  0.00  0.00    -0.347 OA
BRANCH   7   8
HETATM    8  C   UNK N   1      34.942  16.364  10.135  0.00  0.00     0.239 C 
BRANCH   8   9
HETATM    9  C   UNK N   1      34.336  16.204   8.738  0.00  0.00     0.274 C 
BRANCH   9  10
HETATM   10  P   UNK N   1      34.161  17.887   7.955  0.00  0.00     0.286 P 
HETATM   11  O   UNK N   1      32.750  18.468   8.235  0.00  0.00    -0.651 OA
BRANCH  10  12
HETATM   12  O   UNK N   1      35.243  19.113   8.533  0.00  0.00    -0.327 OA
HETATM   13  H   UNK N   1      35.603  19.934   8.162  0.00  0.00     0.220 HD
ENDBRANCH  10  12
BRANCH  10  14
HETATM   14  O   UNK N   1      34.273  17.890   6.223  0.00  0.00    -0.327 OA
HETATM   15  H   UNK N   1      34.009  18.577   5.591  0.00  0.00     0.220 HD
ENDBRANCH  10  14
ENDBRANCH   9  10
BRANCH   9  16
HETATM   16  O   UNK N   1      35.212  15.444   7.965  0.00  0.00    -0.366 OA
HETATM   17  H   UNK N   1      35.056  14.883   7.188  0.00  0.00     0.212 HD
ENDBRANCH   9  16
BRANCH   9  18
HETATM   18  P   UNK N   1      32.665  15.353   8.781  0.00  0.00     0.286 P 
HETATM   19  O   UNK N   1      32.128  15.087   7.350  0.00  0.00    -0.651 OA
BRANCH  18  20
HETATM   20  O   UNK N   1      31.406  16.274   9.544  0.00  0.00    -0.327 OA
HETATM   21  H   UNK N   1      31.344  16.834  10.334  0.00  0.00     0.220 HD
ENDBRANCH  18  20
BRANCH  18  22
HETATM   22  O   UNK N   1      32.669  13.792   9.539  0.00  0.00    -0.327 OA
HETATM   23  H   UNK N   1      33.159  12.998   9.276  0.00  0.00     0.220 HD
ENDBRANCH  18  22
ENDBRANCH   9  18
ENDBRANCH   8   9
ENDBRANCH   7   8
ENDBRANCH   6   7
BRANCH   1  24
HETATM   24  C   UNK N   1      35.562  11.960  12.931  0.00  0.00    -0.025 A 
HETATM   25  C   UNK N   1      35.780  12.204  14.288  0.00  0.00     0.024 A 
HETATM   26  C   UNK N   1      34.985  11.607  15.269  0.00  0.00    -0.025 A 
HETATM   27  C   UNK N   1      33.976  10.711  14.878  0.00  0.00     0.012 A 
HETATM   28  C   UNK N   1      33.766  10.436  13.521  0.00  0.00     0.002 A 
HETATM   29  C   UNK N   1      34.537  11.082  12.549  0.00  0.00     0.012 A 
BRANCH  26  30
HETATM   30  C   UNK N   1      35.147  12.017  16.682  0.00  0.00    -0.026 A 
HETATM   31  C   UNK N   1      35.281  11.059  17.699  0.00  0.00     0.012 A 
HETATM   32  C   UNK N   1      35.356  11.456  19.038  0.00  0.00     0.001 A 
HETATM   33  C   UNK N   1      35.296  12.812  19.371  0.00  0.00     0.000 A 
HETATM   34  C   UNK N   1      35.167  13.774  18.367  0.00  0.00     0.001 A 
HETATM   35  C   UNK N   1      35.088  13.378  17.031  0.00  0.00     0.012 A 
ENDBRANCH  26  30
ENDBRANCH   1  24
TORSDOF 12
ENDMDL
MODEL 2
REMARK VINA RESULT:      -8.3      0.909      2.683
REMARK  12 active torsions:
REMARK  status: ('A' for Active; 'I' for Inactive)
REMARK    1  A    between atoms: C_6  and  C_7 
REMARK    2  A    between atoms: C_12  and  C_13 
REMARK    3  A    between atoms: C_18  and  O_19 
REMARK    4  A    between atoms: O_19  and  C_20 
REMARK    5  A    between atoms: C_20  and  C_21 
REMARK    6  A    between atoms: C_21  and  P_22 
REMARK    7  A    between atoms: C_21  and  O_30 
REMARK    8  A    between atoms: C_21  and  P_26 
REMARK    9  A    between atoms: P_22  and  O_25 
REMARK   10  A    between atoms: P_22  and  O_23 
REMARK   11  A    between atoms: P_26  and  O_29 
REMARK   12  A    between atoms: P_26  and  O_27 
ROOT
HETATM    1  C   UNK N   1      36.446  12.042  11.876  0.00  0.00    -0.023 A 
HETATM    2  C   UNK N   1      35.512  12.616  11.006  0.00  0.00     0.049 A 
HETATM    3  C   UNK N   1      37.810  12.334  11.709  0.00  0.00     0.012 A 
HETATM    4  C   UNK N   1      38.234  13.161  10.670  0.00  0.00     0.004 A 
HETATM    5  C   UNK N   1      37.297  13.737   9.814  0.00  0.00     0.037 A 
HETATM    6  C   UNK N   1      35.935  13.479   9.983  0.00  0.00     0.069 A 
ENDROOT
BRANCH   6   7
HETATM    7  O   UNK N   1      35.054  14.082   9.156  0.00  0.00    -0.347 OA
BRANCH   7   8
HETATM    8  C   UNK N   1      35.231  15.336   8.611  0.00  0.00     0.239 C 
BRANCH   8   9
HETATM    9  C   UNK N   1      34.132  16.312   9.042  0.00  0.00     0.274 C 
BRANCH   9  10
HETATM   10  P   UNK N   1      32.475  15.473   8.878  0.00  0.00     0.286 P 
HETATM   11  O   UNK N   1      32.128  15.250   7.383  0.00  0.00    -0.651 OA
BRANCH  10  12
HETATM   12  O   UNK N   1      32.348  13.892   9.580  0.00  0.00    -0.327 OA
HETATM   13  H   UNK N   1      32.904  13.364  10.175  0.00  0.00     0.220 HD
ENDBRANCH  10  12
BRANCH  10  14
HETATM   14  O   UNK N   1      31.137  16.401   9.479  0.00  0.00    -0.327 OA
HETATM   15  H   UNK N   1      31.118  17.070  10.181  0.00  0.00     0.220 HD
ENDBRANCH  10  14
ENDBRANCH   9  10
BRANCH   9  16
HETATM   16  O   UNK N   1      34.336  16.636  10.382  0.00  0.00    -0.366 OA
HETATM   17  H   UNK N   1      34.139  16.145  11.195  0.00  0.00     0.212 HD
ENDBRANCH   9  16
BRANCH   9  18
HETATM   18  P   UNK N   1      34.142  17.888   8.025  0.00  0.00     0.286 P 
HETATM   19  O   UNK N   1      32.768  18.604   8.076  0.00  0.00    -0.651 OA
BRANCH  18  20
HETATM   20  O   UNK N   1      34.437  17.651   6.330  0.00  0.00    -0.327 OA
HETATM   21  H   UNK N   1      34.141  18.082   5.512  0.00  0.00     0.220 HD
ENDBRANCH  18  20
BRANCH  18  22
HETATM   22  O   UNK N   1      35.275  19.087   8.563  0.00  0.00    -0.327 OA
HETATM   23  H   UNK N   1      35.099  20.002   8.834  0.00  0.00     0.220 HD
ENDBRANCH  18  22
ENDBRANCH   9  18
ENDBRANCH   8   9
ENDBRANCH   7   8
ENDBRANCH   6   7
BRANCH   1  24
HETATM   24  C   UNK N   1      35.996  11.224  13.019  0.00  0.00    -0.025 A 
HETATM   25  C   UNK N   1      35.991  11.791  14.296  0.00  0.00     0.024 A 
HETATM   26  C   UNK N   1      35.454  11.109  15.390  0.00  0.00    -0.025 A 
HETATM   27  C   UNK N   1      34.949   9.811  15.205  0.00  0.00     0.012 A 
HETATM   28  C   UNK N   1      34.974   9.221  13.936  0.00  0.00     0.002 A 
HETATM   29  C   UNK N   1      35.468   9.936  12.840  0.00  0.00     0.012 A 
BRANCH  26  30
HETATM   30  C   UNK N   1      35.325  11.809  16.688  0.00  0.00    -0.026 A 
HETATM   31  C   UNK N   1      35.273  13.211  16.747  0.00  0.00     0.012 A 
HETATM   32  C   UNK N   1      35.228  13.863  17.983  0.00  0.00     0.001 A 
HETATM   33  C   UNK N   1      35.239  13.122  19.168  0.00  0.00     0.000 A 
HETATM   34  C   UNK N   1      35.288  11.728  19.121  0.00  0.00     0.001 A 
HETATM   35  C   UNK N   1      35.335  11.075  17.888  0.00  0.00     0.012 A 
ENDBRANCH  26  30
ENDBRANCH   1  24
TORSDOF 12
ENDMDL
MODEL 3
REMARK VINA RESULT:      -8.1      1.343      2.529
REMARK  12 active torsions:
REMARK  status: ('A' for Active; 'I' for Inactive)
REMARK    1  A    between atoms: C_6  and  C_7 
REMARK    2  A    between atoms: C_12  and  C_13 
REMARK    3  A    between atoms: C_18  and  O_19 
REMARK    4  A    between atoms: O_19  and  C_20 
REMARK    5  A    between atoms: C_20  and  C_21 
REMARK    6  A    between atoms: C_21  and  P_22 
REMARK    7  A    between atoms: C_21  and  O_30 
REMARK    8  A    between atoms: C_21  and  P_26 
REMARK    9  A    between atoms: P_22  and  O_25 
REMARK   10  A    between atoms: P_22  and  O_23 
REMARK   11  A    between atoms: P_26  and  O_29 
REMARK   12  A    between atoms: P_26  and  O_27 
ROOT
HETATM    1  C   UNK N   1      36.551  13.794  13.262  0.00  0.00    -0.023 A 
HETATM    2  C   UNK N   1      36.226  14.808  12.354  0.00  0.00     0.049 A 
HETATM    3  C   UNK N   1      37.097  12.592  12.782  0.00  0.00     0.012 A 
HETATM    4  C   UNK N   1      37.285  12.396  11.414  0.00  0.00     0.004 A 
HETATM    5  C   UNK N   1      36.968  13.415  10.518  0.00  0.00     0.037 A 
HETATM    6  C   UNK N   1      36.450  14.627  10.981  0.00  0.00     0.069 A 
ENDROOT
BRANCH   6   7
HETATM    7  O   UNK N   1      36.187  15.603  10.085  0.00  0.00    -0.347 OA
BRANCH   7   8
HETATM    8  C   UNK N   1      35.002  16.306  10.026  0.00  0.00     0.239 C 
BRANCH   8   9
HETATM    9  C   UNK N   1      34.321  16.174   8.661  0.00  0.00     0.274 C 
BRANCH   9  10
HETATM   10  P   UNK N   1      34.062  17.875   7.944  0.00  0.00     0.286 P 
HETATM   11  O   UNK N   1      34.252  17.846   6.405  0.00  0.00    -0.651 OA
BRANCH  10  12
HETATM   12  O   UNK N   1      32.484  18.562   8.161  0.00  0.00    -0.327 OA
HETATM   13  H   UNK N   1      31.586  18.303   7.902  0.00  0.00     0.220 HD
ENDBRANCH  10  12
BRANCH  10  14
HETATM   14  O   UNK N   1      35.208  19.063   8.480  0.00  0.00    -0.327 OA
HETATM   15  H   UNK N   1      36.177  19.047   8.435  0.00  0.00     0.220 HD
ENDBRANCH  10  14
ENDBRANCH   9  10
BRANCH   9  16
HETATM   16  O   UNK N   1      35.168  15.459   7.817  0.00  0.00    -0.366 OA
HETATM   17  H   UNK N   1      35.864  14.811   8.009  0.00  0.00     0.212 HD
ENDBRANCH   9  16
BRANCH   9  18
HETATM   18  P   UNK N   1      32.675  15.281   8.772  0.00  0.00     0.286 P 
HETATM   19  O   UNK N   1      31.606  15.951   7.870  0.00  0.00    -0.651 OA
BRANCH  18  20
HETATM   20  O   UNK N   1      31.958  15.281  10.354  0.00  0.00    -0.327 OA
HETATM   21  H   UNK N   1      31.239  15.770  10.784  0.00  0.00     0.220 HD
ENDBRANCH  18  20
BRANCH  18  22
HETATM   22  O   UNK N   1      32.713  13.628   8.244  0.00  0.00    -0.327 OA
HETATM   23  H   UNK N   1      32.681  12.824   8.785  0.00  0.00     0.220 HD
ENDBRANCH  18  22
ENDBRANCH   9  18
ENDBRANCH   8   9
ENDBRANCH   7   8
ENDBRANCH   6   7
BRANCH   1  24
HETATM   24  C   UNK N   1      36.422  14.023  14.714  0.00  0.00    -0.025 A 
HETATM   25  C   UNK N   1      35.848  13.028  15.508  0.00  0.00     0.024 A 
HETATM   26  C   UNK N   1      35.819  13.136  16.900  0.00  0.00    -0.025 A 
HETATM   27  C   UNK N   1      36.340  14.292  17.506  0.00  0.00     0.012 A 
HETATM   28  C   UNK N   1      36.893  15.310  16.720  0.00  0.00     0.002 A 
HETATM   29  C   UNK N   1      36.961  15.163  15.330  0.00  0.00     0.012 A 
BRANCH  26  30
HETATM   30  C   UNK N   1      35.347  11.988  17.707  0.00  0.00    -0.026 A 
HETATM   31  C   UNK N   1      35.314  12.058  19.108  0.00  0.00     0.012 A 
HETATM   32  C   UNK N   1      34.939  10.942  19.862  0.00  0.00     0.001 A 
HETATM   33  C   UNK N   1      34.599   9.747  19.223  0.00  0.00     0.000 A 
HETATM   34  C   UNK N   1      34.624   9.667  17.829  0.00  0.00     0.001 A 
HETATM   35  C   UNK N   1      35.001  10.780  17.076  0.00  0.00     0.012 A 
ENDBRANCH  26  30
ENDBRANCH   1  24
TORSDOF 12
ENDMDL
MODEL 4
REMARK VINA RESULT:      -8.0      5.165      9.805
REMARK  12 active torsions:
REMARK  status: ('A' for Active; 'I' for Inactive)
REMARK    1  A    between atoms: C_6  and  C_7 
REMARK    2  A    between atoms: C_12  and  C_13 
REMARK    3  A    between atoms: C_18  and  O_19 
REMARK    4  A    between atoms: O_19  and  C_20 
REMARK    5  A    between atoms: C_20  and  C_21 
REMARK    6  A    between atoms: C_21  and  P_22 
REMARK    7  A    between atoms: C_21  and  O_30 
REMARK    8  A    between atoms: C_21  and  P_26 
REMARK    9  A    between atoms: P_22  and  O_25 
REMARK   10  A    between atoms: P_22  and  O_23 
REMARK   11  A    between atoms: P_26  and  O_29 
REMARK   12  A    between atoms: P_26  and  O_27 
ROOT
HETATM    1  C   UNK N   1      32.127  17.001   7.687  0.00  0.00    -0.023 A 
HETATM    2  C   UNK N   1      32.932  16.279   8.576  0.00  0.00     0.049 A 
HETATM    3  C   UNK N   1      32.571  17.203   6.370  0.00  0.00     0.012 A 
HETATM    4  C   UNK N   1      33.811  16.718   5.958  0.00  0.00     0.004 A 
HETATM    5  C   UNK N   1      34.601  15.990   6.846  0.00  0.00     0.037 A 
HETATM    6  C   UNK N   1      34.163  15.757   8.152  0.00  0.00     0.069 A 
ENDROOT
BRANCH   6   7
HETATM    7  O   UNK N   1      34.941  15.019   8.974  0.00  0.00    -0.347 OA
BRANCH   7   8
HETATM    8  C   UNK N   1      34.507  13.909   9.666  0.00  0.00     0.239 C 
BRANCH   8   9
HETATM    9  C   UNK N   1      35.167  13.794  11.043  0.00  0.00     0.274 C 
BRANCH   9  10
HETATM   10  P   UNK N   1      35.898  15.444  11.507  0.00  0.00     0.286 P 
HETATM   11  O   UNK N   1      36.341  15.440  12.993  0.00  0.00    -0.651 OA
BRANCH  10  12
HETATM   12  O   UNK N   1      37.326  15.916  10.642  0.00  0.00    -0.327 OA
HETATM   13  H   UNK N   1      37.504  16.243   9.747  0.00  0.00     0.220 HD
ENDBRANCH  10  12
BRANCH  10  14
HETATM   14  O   UNK N   1      34.788  16.776  11.410  0.00  0.00    -0.327 OA
HETATM   15  H   UNK N   1      34.318  17.237  12.123  0.00  0.00     0.220 HD
ENDBRANCH  10  14
ENDBRANCH   9  10
BRANCH   9  16
HETATM   16  O   UNK N   1      34.183  13.466  11.973  0.00  0.00    -0.366 OA
HETATM   17  H   UNK N   1      34.248  13.169  12.896  0.00  0.00     0.212 HD
ENDBRANCH   9  16
BRANCH   9  18
HETATM   18  P   UNK N   1      36.505  12.480  11.083  0.00  0.00     0.286 P 
HETATM   19  O   UNK N   1      36.761  11.890   9.671  0.00  0.00    -0.651 OA
BRANCH  18  20
HETATM   20  O   UNK N   1      36.128  11.096  12.061  0.00  0.00    -0.327 OA
HETATM   21  H   UNK N   1      35.356  10.801  12.569  0.00  0.00     0.220 HD
ENDBRANCH  18  20
BRANCH  18  22
HETATM   22  O   UNK N   1      38.060  13.048  11.603  0.00  0.00    -0.327 OA
HETATM   23  H   UNK N   1      38.935  12.695  11.378  0.00  0.00     0.220 HD
ENDBRANCH  18  22
ENDBRANCH   9  18
ENDBRANCH   8   9
ENDBRANCH   7   8
ENDBRANCH   6   7
BRANCH   1  24
HETATM   24  C   UNK N   1      30.784  17.455   8.097  0.00  0.00    -0.025 A 
HETATM   25  C   UNK N   1      30.028  18.220   7.207  0.00  0.00     0.024 A 
HETATM   26  C   UNK N   1      28.704  18.565   7.490  0.00  0.00    -0.025 A 
HETATM   27  C   UNK N   1      28.142  18.167   8.714  0.00  0.00     0.012 A 
HETATM   28  C   UNK N   1      28.898  17.423   9.628  0.00  0.00     0.002 A 
HETATM   29  C   UNK N   1      30.206  17.042   9.308  0.00  0.00     0.012 A 
BRANCH  26  30
HETATM   30  C   UNK N   1      27.893  19.238   6.451  0.00  0.00    -0.026 A 
HETATM   31  C   UNK N   1      27.896  18.778   5.125  0.00  0.00     0.012 A 
HETATM   32  C   UNK N   1      27.186  19.467   4.137  0.00  0.00     0.001 A 
HETATM   33  C   UNK N   1      26.472  20.623   4.464  0.00  0.00     0.000 A 
HETATM   34  C   UNK N   1      26.460  21.088   5.780  0.00  0.00     0.001 A 
HETATM   35  C   UNK N   1      27.170  20.403   6.767  0.00  0.00     0.012 A 
ENDBRANCH  26  30
ENDBRANCH   1  24
TORSDOF 12
ENDMDL
MODEL 5
REMARK VINA RESULT:      -8.0      3.717      6.076
REMARK  12 active torsions:
REMARK  status: ('A' for Active; 'I' for Inactive)
REMARK    1  A    between atoms: C_6  and  C_7 
REMARK    2  A    between atoms: C_12  and  C_13 
REMARK    3  A    between atoms: C_18  and  O_19 
REMARK    4  A    between atoms: O_19  and  C_20 
REMARK    5  A    between atoms: C_20  and  C_21 
REMARK    6  A    between atoms: C_21  and  P_22 
REMARK    7  A    between atoms: C_21  and  O_30 
REMARK    8  A    between atoms: C_21  and  P_26 
REMARK    9  A    between atoms: P_22  and  O_25 
REMARK   10  A    between atoms: P_22  and  O_23 
REMARK   11  A    between atoms: P_26  and  O_29 
REMARK   12  A    between atoms: P_26  and  O_27 
ROOT
HETATM    1  C   UNK N   1      35.735  11.288  17.368  0.00  0.00    -0.023 A 
HETATM    2  C   UNK N   1      36.269  11.662  16.129  0.00  0.00     0.049 A 
HETATM    3  C   UNK N   1      35.194  12.276  18.208  0.00  0.00     0.012 A 
HETATM    4  C   UNK N   1      35.217  13.617  17.829  0.00  0.00     0.004 A 
HETATM    5  C   UNK N   1      35.742  13.980  16.590  0.00  0.00     0.037 A 
HETATM    6  C   UNK N   1      36.259  13.007  15.731  0.00  0.00     0.069 A 
ENDROOT
BRANCH   6   7
HETATM    7  O   UNK N   1      36.728  13.392  14.524  0.00  0.00    -0.347 OA
BRANCH   7   8
HETATM    8  C   UNK N   1      36.096  14.293  13.695  0.00  0.00     0.239 C 
BRANCH   8   9
HETATM    9  C   UNK N   1      35.540  13.625  12.434  0.00  0.00     0.274 C 
BRANCH   9  10
HETATM   10  P   UNK N   1      36.872  12.570  11.668  0.00  0.00     0.286 P 
HETATM   11  O   UNK N   1      36.319  11.818  10.428  0.00  0.00    -0.651 OA
BRANCH  10  12
HETATM   12  O   UNK N   1      38.261  13.415  11.064  0.00  0.00    -0.327 OA
HETATM   13  H   UNK N   1      38.852  13.299  10.304  0.00  0.00     0.220 HD
ENDBRANCH  10  12
BRANCH  10  14
HETATM   14  O   UNK N   1      37.461  11.299  12.693  0.00  0.00    -0.327 OA
HETATM   15  H   UNK N   1      36.965  10.630  13.191  0.00  0.00     0.220 HD
ENDBRANCH  10  14
ENDBRANCH   9  10
BRANCH   9  16
HETATM   16  O   UNK N   1      34.479  12.801  12.807  0.00  0.00    -0.366 OA
HETATM   17  H   UNK N   1      33.677  12.986  13.321  0.00  0.00     0.212 HD
ENDBRANCH   9  16
BRANCH   9  18
HETATM   18  P   UNK N   1      34.928  14.876  11.177  0.00  0.00     0.286 P 
HETATM   19  O   UNK N   1      35.381  16.313  11.542  0.00  0.00    -0.651 OA
BRANCH  18  20
HETATM   20  O   UNK N   1      33.199  14.991  11.057  0.00  0.00    -0.327 OA
HETATM   21  H   UNK N   1      32.489  15.315  11.633  0.00  0.00     0.220 HD
ENDBRANCH  18  20
BRANCH  18  22
HETATM   22  O   UNK N   1      35.523  14.630   9.565  0.00  0.00    -0.327 OA
HETATM   23  H   UNK N   1      35.361  15.171   8.777  0.00  0.00     0.220 HD
ENDBRANCH  18  22
ENDBRANCH   9  18
ENDBRANCH   8   9
ENDBRANCH   7   8
ENDBRANCH   6   7
BRANCH   1  24
HETATM   24  C   UNK N   1      35.643   9.863  17.741  0.00  0.00    -0.025 A 
HETATM   25  C   UNK N   1      34.526   9.421  18.452  0.00  0.00     0.024 A 
HETATM   26  C   UNK N   1      34.325   8.064  18.717  0.00  0.00    -0.025 A 
HETATM   27  C   UNK N   1      35.291   7.136  18.295  0.00  0.00     0.012 A 
HETATM   28  C   UNK N   1      36.431   7.570  17.607  0.00  0.00     0.002 A 
HETATM   29  C   UNK N   1      36.592   8.926  17.304  0.00  0.00     0.012 A 
BRANCH  26  30
HETATM   30  C   UNK N   1      33.051   7.626  19.331  0.00  0.00    -0.026 A 
HETATM   31  C   UNK N   1      32.154   8.561  19.871  0.00  0.00     0.012 A 
HETATM   32  C   UNK N   1      30.990   8.131  20.516  0.00  0.00     0.001 A 
HETATM   33  C   UNK N   1      30.715   6.766  20.629  0.00  0.00     0.000 A 
HETATM   34  C   UNK N   1      31.598   5.827  20.092  0.00  0.00     0.001 A 
HETATM   35  C   UNK N   1      32.762   6.255  19.450  0.00  0.00     0.012 A 
ENDBRANCH  26  30
ENDBRANCH   1  24
TORSDOF 12
ENDMDL
MODEL 6
REMARK VINA RESULT:      -7.9      1.916      4.373
REMARK  12 active torsions:
REMARK  status: ('A' for Active; 'I' for Inactive)
REMARK    1  A    between atoms: C_6  and  C_7 
REMARK    2  A    between atoms: C_12  and  C_13 
REMARK    3  A    between atoms: C_18  and  O_19 
REMARK    4  A    between atoms: O_19  and  C_20 
REMARK    5  A    between atoms: C_20  and  C_21 
REMARK    6  A    between atoms: C_21  and  P_22 
REMARK    7  A    between atoms: C_21  and  O_30 
REMARK    8  A    between atoms: C_21  and  P_26 
REMARK    9  A    between atoms: P_22  and  O_25 
REMARK   10  A    between atoms: P_22  and  O_23 
REMARK   11  A    between atoms: P_26  and  O_29 
REMARK   12  A    between atoms: P_26  and  O_27 
ROOT
HETATM    1  C   UNK N   1      34.669  11.754  15.059  0.00  0.00    -0.023 A 
HETATM    2  C   UNK N   1      35.105  12.559  14.000  0.00  0.00     0.049 A 
HETATM    3  C   UNK N   1      34.161  10.473  14.783  0.00  0.00     0.012 A 
HETATM    4  C   UNK N   1      34.061  10.019  13.469  0.00  0.00     0.004 A 
HETATM    5  C   UNK N   1      34.507  10.823  12.421  0.00  0.00     0.037 A 
HETATM    6  C   UNK N   1      35.039  12.088  12.680  0.00  0.00     0.069 A 
ENDROOT
BRANCH   6   7
HETATM    7  O   UNK N   1      35.492  12.825  11.642  0.00  0.00    -0.347 OA
BRANCH   7   8
HETATM    8  C   UNK N   1      34.748  13.132  10.523  0.00  0.00     0.239 C 
BRANCH   8   9
HETATM    9  C   UNK N   1      34.484  14.636  10.401  0.00  0.00     0.274 C 
BRANCH   9  10
HETATM   10  P   UNK N   1      34.086  15.041   8.626  0.00  0.00     0.286 P 
HETATM   11  O   UNK N   1      34.844  14.084   7.670  0.00  0.00    -0.651 OA
BRANCH  10  12
HETATM   12  O   UNK N   1      32.423  14.872   8.160  0.00  0.00    -0.327 OA
HETATM   13  H   UNK N   1      31.650  15.457   8.173  0.00  0.00     0.220 HD
ENDBRANCH  10  12
BRANCH  10  14
HETATM   14  O   UNK N   1      34.594  16.621   8.117  0.00  0.00    -0.327 OA
HETATM   15  H   UNK N   1      35.373  16.880   7.601  0.00  0.00     0.220 HD
ENDBRANCH  10  14
ENDBRANCH   9  10
BRANCH   9  16
HETATM   16  O   UNK N   1      33.379  14.951  11.188  0.00  0.00    -0.366 OA
HETATM   17  H   UNK N   1      32.469  14.610  11.180  0.00  0.00     0.212 HD
ENDBRANCH   9  16
BRANCH   9  18
HETATM   18  P   UNK N   1      35.948  15.663  10.967  0.00  0.00     0.286 P 
HETATM   19  O   UNK N   1      35.736  17.168  10.660  0.00  0.00    -0.651 OA
BRANCH  18  20
HETATM   20  O   UNK N   1      37.448  15.275  10.184  0.00  0.00    -0.327 OA
HETATM   21  H   UNK N   1      38.226  14.741  10.411  0.00  0.00     0.220 HD
ENDBRANCH  18  20
BRANCH  18  22
HETATM   22  O   UNK N   1      36.251  15.609  12.676  0.00  0.00    -0.327 OA
HETATM   23  H   UNK N   1      36.510  14.845  13.215  0.00  0.00     0.220 HD
ENDBRANCH  18  22
ENDBRANCH   9  18
ENDBRANCH   8   9
ENDBRANCH   7   8
ENDBRANCH   6   7
BRANCH   1  24
HETATM   24  C   UNK N   1      34.839  12.201  16.455  0.00  0.00    -0.025 A 
HETATM   25  C   UNK N   1      35.026  11.244  17.454  0.00  0.00     0.024 A 
HETATM   26  C   UNK N   1      35.321  11.614  18.768  0.00  0.00    -0.025 A 
HETATM   27  C   UNK N   1      35.387  12.979  19.094  0.00  0.00     0.012 A 
HETATM   28  C   UNK N   1      35.174  13.949  18.107  0.00  0.00     0.002 A 
HETATM   29  C   UNK N   1      34.930  13.562  16.785  0.00  0.00     0.012 A 
BRANCH  26  30
HETATM   30  C   UNK N   1      35.668  10.568  19.755  0.00  0.00    -0.026 A 
HETATM   31  C   UNK N   1      34.731  10.137  20.707  0.00  0.00     0.012 A 
HETATM   32  C   UNK N   1      35.094   9.203  21.683  0.00  0.00     0.001 A 
HETATM   33  C   UNK N   1      36.396   8.696  21.717  0.00  0.00     0.000 A 
HETATM   34  C   UNK N   1      37.335   9.115  20.774  0.00  0.00     0.001 A 
HETATM   35  C   UNK N   1      36.975  10.049  19.801  0.00  0.00     0.012 A 
ENDBRANCH  26  30
ENDBRANCH   1  24
TORSDOF 12
ENDMDL
MODEL 7
REMARK VINA RESULT:      -7.9      5.233     10.051
REMARK  12 active torsions:
REMARK  status: ('A' for Active; 'I' for Inactive)
REMARK    1  A    between atoms: C_6  and  C_7 
REMARK    2  A    between atoms: C_12  and  C_13 
REMARK    3  A    between atoms: C_18  and  O_19 
REMARK    4  A    between atoms: O_19  and  C_20 
REMARK    5  A    between atoms: C_20  and  C_21 
REMARK    6  A    between atoms: C_21  and  P_22 
REMARK    7  A    between atoms: C_21  and  O_30 
REMARK    8  A    between atoms: C_21  and  P_26 
REMARK    9  A    between atoms: P_22  and  O_25 
REMARK   10  A    between atoms: P_22  and  O_23 
REMARK   11  A    between atoms: P_26  and  O_29 
REMARK   12  A    between atoms: P_26  and  O_27 
ROOT
HETATM    1  C   UNK N   1      32.142  16.708   7.625  0.00  0.00    -0.023 A 
HETATM    2  C   UNK N   1      32.579  15.691   8.482  0.00  0.00     0.049 A 
HETATM    3  C   UNK N   1      32.922  17.867   7.482  0.00  0.00     0.012 A 
HETATM    4  C   UNK N   1      34.102  18.021   8.209  0.00  0.00     0.004 A 
HETATM    5  C   UNK N   1      34.535  16.999   9.053  0.00  0.00     0.037 A 
HETATM    6  C   UNK N   1      33.785  15.828   9.185  0.00  0.00     0.069 A 
ENDROOT
BRANCH   6   7
HETATM    7  O   UNK N   1      34.254  14.846   9.986  0.00  0.00    -0.347 OA
BRANCH   7   8
HETATM    8  C   UNK N   1      34.585  15.016  11.313  0.00  0.00     0.239 C 
BRANCH   8   9
HETATM    9  C   UNK N   1      36.057  14.692  11.586  0.00  0.00     0.274 C 
BRANCH   9  10
HETATM   10  P   UNK N   1      36.652  13.458  10.322  0.00  0.00     0.286 P 
HETATM   11  O   UNK N   1      38.060  12.931  10.702  0.00  0.00    -0.651 OA
BRANCH  10  12
HETATM   12  O   UNK N   1      35.696  12.020  10.151  0.00  0.00    -0.327 OA
HETATM   13  H   UNK N   1      35.664  11.296   9.507  0.00  0.00     0.220 HD
ENDBRANCH  10  12
BRANCH  10  14
HETATM   14  O   UNK N   1      36.871  14.109   8.728  0.00  0.00    -0.327 OA
HETATM   15  H   UNK N   1      37.594  14.656   8.381  0.00  0.00     0.220 HD
ENDBRANCH  10  14
ENDBRANCH   9  10
BRANCH   9  16
HETATM   16  O   UNK N   1      36.797  15.864  11.445  0.00  0.00    -0.366 OA
HETATM   17  H   UNK N   1      36.814  16.528  10.736  0.00  0.00     0.212 HD
ENDBRANCH   9  16
BRANCH   9  18
HETATM   18  P   UNK N   1      36.326  14.005  13.310  0.00  0.00     0.286 P 
HETATM   19  O   UNK N   1      34.990  13.550  13.953  0.00  0.00    -0.651 OA
BRANCH  18  20
HETATM   20  O   UNK N   1      36.980  15.144  14.446  0.00  0.00    -0.327 OA
HETATM   21  H   UNK N   1      37.690  15.805  14.428  0.00  0.00     0.220 HD
ENDBRANCH  18  20
BRANCH  18  22
HETATM   22  O   UNK N   1      37.340  12.598  13.377  0.00  0.00    -0.327 OA
HETATM   23  H   UNK N   1      38.110  12.386  12.827  0.00  0.00     0.220 HD
ENDBRANCH  18  22
ENDBRANCH   9  18
ENDBRANCH   8   9
ENDBRANCH   7   8
ENDBRANCH   6   7
BRANCH   1  24
HETATM   24  C   UNK N   1      30.933  16.520   6.800  0.00  0.00    -0.025 A 
HETATM   25  C   UNK N   1      30.055  17.593   6.633  0.00  0.00     0.024 A 
HETATM   26  C   UNK N   1      28.967  17.512   5.761  0.00  0.00    -0.025 A 
HETATM   27  C   UNK N   1      28.732  16.309   5.074  0.00  0.00     0.012 A 
HETATM   28  C   UNK N   1      29.588  15.216   5.254  0.00  0.00     0.002 A 
HETATM   29  C   UNK N   1      30.703  15.331   6.092  0.00  0.00     0.012 A 
BRANCH  26  30
HETATM   30  C   UNK N   1      28.159  18.723   5.495  0.00  0.00    -0.026 A 
HETATM   31  C   UNK N   1      27.830  19.611   6.532  0.00  0.00     0.012 A 
HETATM   32  C   UNK N   1      27.003  20.710   6.283  0.00  0.00     0.001 A 
HETATM   33  C   UNK N   1      26.496  20.930   5.000  0.00  0.00     0.000 A 
HETATM   34  C   UNK N   1      26.819  20.056   3.960  0.00  0.00     0.001 A 
HETATM   35  C   UNK N   1      27.642  18.956   4.208  0.00  0.00     0.012 A 
ENDBRANCH  26  30
ENDBRANCH   1  24
TORSDOF 12
ENDMDL
MODEL 8
REMARK VINA RESULT:      -7.9      5.285     10.000
REMARK  12 active torsions:
REMARK  status: ('A' for Active; 'I' for Inactive)
REMARK    1  A    between atoms: C_6  and  C_7 
REMARK    2  A    between atoms: C_12  and  C_13 
REMARK    3  A    between atoms: C_18  and  O_19 
REMARK    4  A    between atoms: O_19  and  C_20 
REMARK    5  A    between atoms: C_20  and  C_21 
REMARK    6  A    between atoms: C_21  and  P_22 
REMARK    7  A    between atoms: C_21  and  O_30 
REMARK    8  A    between atoms: C_21  and  P_26 
REMARK    9  A    between atoms: P_22  and  O_25 
REMARK   10  A    between atoms: P_22  and  O_23 
REMARK   11  A    between atoms: P_26  and  O_29 
REMARK   12  A    between atoms: P_26  and  O_27 
ROOT
HETATM    1  C   UNK N   1      31.514  16.145   7.353  0.00  0.00    -0.023 A 
HETATM    2  C   UNK N   1      32.539  15.756   8.224  0.00  0.00     0.049 A 
HETATM    3  C   UNK N   1      31.449  15.574   6.072  0.00  0.00     0.012 A 
HETATM    4  C   UNK N   1      32.410  14.653   5.658  0.00  0.00     0.004 A 
HETATM    5  C   UNK N   1      33.421  14.262   6.535  0.00  0.00     0.037 A 
HETATM    6  C   UNK N   1      33.485  14.801   7.822  0.00  0.00     0.069 A 
ENDROOT
BRANCH   6   7
HETATM    7  O   UNK N   1      34.458  14.374   8.655  0.00  0.00    -0.347 OA
BRANCH   7   8
HETATM    8  C   UNK N   1      35.676  15.001   8.815  0.00  0.00     0.239 C 
BRANCH   8   9
HETATM    9  C   UNK N   1      36.270  14.760  10.206  0.00  0.00     0.274 C 
BRANCH   9  10
HETATM   10  P   UNK N   1      37.666  13.533  10.066  0.00  0.00     0.286 P 
HETATM   11  O   UNK N   1      37.157  12.204   9.449  0.00  0.00    -0.651 OA
BRANCH  10  12
HETATM   12  O   UNK N   1      38.987  13.995   9.042  0.00  0.00    -0.327 OA
HETATM   13  H   UNK N   1      39.477  14.818   8.891  0.00  0.00     0.220 HD
ENDBRANCH  10  12
BRANCH  10  14
HETATM   14  O   UNK N   1      38.351  13.047  11.585  0.00  0.00    -0.327 OA
HETATM   15  H   UNK N   1      37.919  12.642  12.354  0.00  0.00     0.220 HD
ENDBRANCH  10  14
ENDBRANCH   9  10
BRANCH   9  16
HETATM   16  O   UNK N   1      36.784  15.966  10.677  0.00  0.00    -0.366 OA
HETATM   17  H   UNK N   1      36.374  16.841  10.775  0.00  0.00     0.212 HD
ENDBRANCH   9  16
BRANCH   9  18
HETATM   18  P   UNK N   1      34.993  14.124  11.424  0.00  0.00     0.286 P 
HETATM   19  O   UNK N   1      35.524  14.179  12.880  0.00  0.00    -0.651 OA
BRANCH  18  20
HETATM   20  O   UNK N   1      34.542  12.463  11.196  0.00  0.00    -0.327 OA
HETATM   21  H   UNK N   1      34.312  11.725  11.782  0.00  0.00     0.220 HD
ENDBRANCH  18  20
BRANCH  18  22
HETATM   22  O   UNK N   1      33.518  15.038  11.467  0.00  0.00    -0.327 OA
HETATM   23  H   UNK N   1      33.102  15.541  10.749  0.00  0.00     0.220 HD
ENDBRANCH  18  22
ENDBRANCH   9  18
ENDBRANCH   8   9
ENDBRANCH   7   8
ENDBRANCH   6   7
BRANCH   1  24
HETATM   24  C   UNK N   1      30.455  17.065   7.812  0.00  0.00    -0.025 A 
HETATM   25  C   UNK N   1      29.741  17.800   6.864  0.00  0.00     0.024 A 
HETATM   26  C   UNK N   1      28.645  18.585   7.229  0.00  0.00    -0.025 A 
HETATM   27  C   UNK N   1      28.284  18.665   8.585  0.00  0.00     0.012 A 
HETATM   28  C   UNK N   1      29.010  17.955   9.549  0.00  0.00     0.002 A 
HETATM   29  C   UNK N   1      30.074  17.133   9.161  0.00  0.00     0.012 A 
BRANCH  26  30
HETATM   30  C   UNK N   1      27.822  19.217   6.174  0.00  0.00    -0.026 A 
HETATM   31  C   UNK N   1      27.825  18.717   4.862  0.00  0.00     0.012 A 
HETATM   32  C   UNK N   1      27.104  19.368   3.857  0.00  0.00     0.001 A 
HETATM   33  C   UNK N   1      26.378  20.525   4.152  0.00  0.00     0.000 A 
HETATM   34  C   UNK N   1      26.365  21.030   5.453  0.00  0.00     0.001 A 
HETATM   35  C   UNK N   1      27.087  20.383   6.457  0.00  0.00     0.012 A 
ENDBRANCH  26  30
ENDBRANCH   1  24
TORSDOF 12
ENDMDL
MODEL 9
REMARK VINA RESULT:      -7.9     10.255     13.547
REMARK  12 active torsions:
REMARK  status: ('A' for Active; 'I' for Inactive)
REMARK    1  A    between atoms: C_6  and  C_7 
REMARK    2  A    between atoms: C_12  and  C_13 
REMARK    3  A    between atoms: C_18  and  O_19 
REMARK    4  A    between atoms: O_19  and  C_20 
REMARK    5  A    between atoms: C_20  and  C_21 
REMARK    6  A    between atoms: C_21  and  P_22 
REMARK    7  A    between atoms: C_21  and  O_30 
REMARK    8  A    between atoms: C_21  and  P_26 
REMARK    9  A    between atoms: P_22  and  O_25 
REMARK   10  A    between atoms: P_22  and  O_23 
REMARK   11  A    between atoms: P_26  and  O_29 
REMARK   12  A    between atoms: P_26  and  O_27 
ROOT
HETATM    1  C   UNK N   1      27.130  19.074   5.172  0.00  0.00    -0.023 A 
HETATM    2  C   UNK N   1      25.788  18.675   5.167  0.00  0.00     0.049 A 
HETATM    3  C   UNK N   1      27.564  20.034   4.243  0.00  0.00     0.012 A 
HETATM    4  C   UNK N   1      26.678  20.562   3.304  0.00  0.00     0.004 A 
HETATM    5  C   UNK N   1      25.342  20.167   3.313  0.00  0.00     0.037 A 
HETATM    6  C   UNK N   1      24.887  19.234   4.248  0.00  0.00     0.069 A 
ENDROOT
BRANCH   6   7
HETATM    7  O   UNK N   1      23.578  18.901   4.247  0.00  0.00    -0.347 OA
BRANCH   7   8
HETATM    8  C   UNK N   1      22.646  19.410   3.368  0.00  0.00     0.239 C 
BRANCH   8   9
HETATM    9  C   UNK N   1      21.221  18.981   3.727  0.00  0.00     0.274 C 
BRANCH   9  10
HETATM   10  P   UNK N   1      21.298  17.563   4.934  0.00  0.00     0.286 P 
HETATM   11  O   UNK N   1      19.891  16.940   5.126  0.00  0.00    -0.651 OA
BRANCH  10  12
HETATM   12  O   UNK N   1      22.294  16.221   4.471  0.00  0.00    -0.327 OA
HETATM   13  H   UNK N   1      22.877  16.033   3.719  0.00  0.00     0.220 HD
ENDBRANCH  10  12
BRANCH  10  14
HETATM   14  O   UNK N   1      21.774  18.013   6.542  0.00  0.00    -0.327 OA
HETATM   15  H   UNK N   1      21.662  17.528   7.375  0.00  0.00     0.220 HD
ENDBRANCH  10  14
ENDBRANCH   9  10
BRANCH   9  16
HETATM   16  O   UNK N   1      20.582  20.056   4.343  0.00  0.00    -0.366 OA
HETATM   17  H   UNK N   1      20.436  20.969   4.046  0.00  0.00     0.212 HD
ENDBRANCH   9  16
BRANCH   9  18
HETATM   18  P   UNK N   1      20.231  18.469   2.218  0.00  0.00     0.286 P 
HETATM   19  O   UNK N   1      20.521  16.997   1.825  0.00  0.00    -0.651 OA
BRANCH  18  20
HETATM   20  O   UNK N   1      20.590  19.373   0.779  0.00  0.00    -0.327 OA
HETATM   21  H   UNK N   1      21.119  19.216  -0.019  0.00  0.00     0.220 HD
ENDBRANCH  18  20
BRANCH  18  22
HETATM   22  O   UNK N   1      18.510  18.531   2.428  0.00  0.00    -0.327 OA
HETATM   23  H   UNK N   1      17.821  18.514   1.745  0.00  0.00     0.220 HD
ENDBRANCH  18  22
ENDBRANCH   9  18
ENDBRANCH   8   9
ENDBRANCH   7   8
ENDBRANCH   6   7
BRANCH   1  24
HETATM   24  C   UNK N   1      28.053  18.572   6.208  0.00  0.00    -0.025 A 
HETATM   25  C   UNK N   1      29.223  17.920   5.813  0.00  0.00     0.024 A 
HETATM   26  C   UNK N   1      30.193  17.541   6.744  0.00  0.00    -0.025 A 
HETATM   27  C   UNK N   1      29.961  17.784   8.108  0.00  0.00     0.012 A 
HETATM   28  C   UNK N   1      28.779  18.412   8.520  0.00  0.00     0.002 A 
HETATM   29  C   UNK N   1      27.841  18.832   7.571  0.00  0.00     0.012 A 
BRANCH  26  30
HETATM   30  C   UNK N   1      31.484  16.999   6.266  0.00  0.00    -0.026 A 
HETATM   31  C   UNK N   1      32.686  17.322   6.916  0.00  0.00     0.012 A 
HETATM   32  C   UNK N   1      33.907  16.867   6.409  0.00  0.00     0.001 A 
HETATM   33  C   UNK N   1      33.938  16.089   5.249  0.00  0.00     0.000 A 
HETATM   34  C   UNK N   1      32.749  15.759   4.596  0.00  0.00     0.001 A 
HETATM   35  C   UNK N   1      31.530  16.215   5.099  0.00  0.00     0.012 A 
ENDBRANCH  26  30
ENDBRANCH   1  24
TORSDOF 12
ENDMDL
