MODEL 1
REMARK VINA RESULT:      -5.6      0.000      0.000
REMARK  4 active torsions:
REMARK  status: ('A' for Active; 'I' for Inactive)
REMARK    1  A    between atoms: C_4  and  O_10 
REMARK    2  A    between atoms: C_5  and  O_8 
REMARK    3  A    between atoms: O_10  and  C_11 
REMARK    4  A    between atoms: C_11  and  C_12 
ROOT
HETATM    1  C   UNK N   1      35.213  12.858  19.260  0.00  0.00     0.048 C 
HETATM    2  C   UNK N   1      35.174  12.290  17.888  0.00  0.00    -0.059 A 
HETATM    3  C   UNK N   1      35.138  13.142  16.790  0.00  0.00     0.046 A 
HETATM    4  C   UNK N   1      35.103  12.637  15.487  0.00  0.00     0.103 A 
HETATM    5  C   UNK N   1      35.102  11.231  15.285  0.00  0.00     0.101 A 
HETATM    6  C   UNK N   1      35.139  10.381  16.406  0.00  0.00     0.040 A 
HETATM    7  C   UNK N   1      35.176  10.908  17.699  0.00  0.00     0.009 A 
ENDROOT
BRANCH   4   8
HETATM    8  O   UNK N   1      35.072  13.539  14.480  0.00  0.00    -0.342 OA
BRANCH   8   9
HETATM    9  C   UNK N   1      36.151  14.151  13.888  0.00  0.00     0.232 C 
BRANCH   9  10
HETATM   10  C   UNK N   1      35.805  14.490  12.478  0.00  0.00     0.033 A 
HETATM   11  N   UNK N   1      36.358  15.583  11.878  0.00  0.00    -0.367 N 
HETATM   12  C   UNK N   1      36.061  15.921  10.597  0.00  0.00     0.088 A 
ATOM     13  HN  UNK N   1      37.011  16.162  12.406  1.00  0.00     0.165 HD
HETATM   14  C   UNK N   1      35.169  15.142   9.859  0.00  0.00     0.017 A 
HETATM   15  C   UNK N   1      34.592  14.018  10.452  0.00  0.00     0.003 A 
HETATM   16  C   UNK N   1      34.909  13.686  11.770  0.00  0.00     0.027 A 
ENDBRANCH   9  10
ENDBRANCH   8   9
ENDBRANCH   4   8
BRANCH   5  17
HETATM   17  O   UNK N   1      35.068  10.718  14.029  0.00  0.00    -0.353 OA
HETATM   18  C   UNK N   1      33.902  10.433  13.355  0.00  0.00     0.210 C 
ENDBRANCH   5  17
TORSDOF 4
ENDMDL
MODEL 2
REMARK VINA RESULT:      -5.5     15.257     16.695
REMARK  4 active torsions:
REMARK  status: ('A' for Active; 'I' for Inactive)
REMARK    1  A    between atoms: C_4  and  O_10 
REMARK    2  A    between atoms: C_5  and  O_8 
REMARK    3  A    between atoms: O_10  and  C_11 
REMARK    4  A    between atoms: C_11  and  C_12 
ROOT
HETATM    1  C   UNK N   1      20.660  12.374  11.427  0.00  0.00     0.048 C 
HETATM    2  C   UNK N   1      20.981  13.009  10.123  0.00  0.00    -0.059 A 
HETATM    3  C   UNK N   1      20.210  14.072   9.665  0.00  0.00     0.046 A 
HETATM    4  C   UNK N   1      20.490  14.690   8.443  0.00  0.00     0.103 A 
HETATM    5  C   UNK N   1      21.577  14.223   7.658  0.00  0.00     0.101 A 
HETATM    6  C   UNK N   1      22.348  13.146   8.134  0.00  0.00     0.040 A 
HETATM    7  C   UNK N   1      22.052  12.545   9.360  0.00  0.00     0.009 A 
ENDROOT
BRANCH   4   8
HETATM    8  O   UNK N   1      19.689  15.718   8.078  0.00  0.00    -0.342 OA
BRANCH   8   9
HETATM    9  C   UNK N   1      19.994  17.057   8.127  0.00  0.00     0.232 C 
BRANCH   9  10
HETATM   10  C   UNK N   1      19.113  17.720   9.131  0.00  0.00     0.033 A 
HETATM   11  N   UNK N   1      17.859  17.239   9.369  0.00  0.00    -0.367 N 
HETATM   12  C   UNK N   1      17.030  17.822  10.273  0.00  0.00     0.088 A 
ATOM     13  HN  UNK N   1      17.535  16.421   8.853  1.00  0.00     0.165 HD
HETATM   14  C   UNK N   1      17.456  18.942  10.988  0.00  0.00     0.017 A 
HETATM   15  C   UNK N   1      18.736  19.451  10.762  0.00  0.00     0.003 A 
HETATM   16  C   UNK N   1      19.573  18.839   9.828  0.00  0.00     0.027 A 
ENDBRANCH   9  10
ENDBRANCH   8   9
ENDBRANCH   4   8
BRANCH   5  17
HETATM   17  O   UNK N   1      21.866  14.808   6.468  0.00  0.00    -0.353 OA
HETATM   18  C   UNK N   1      22.853  15.752   6.304  0.00  0.00     0.210 C 
ENDBRANCH   5  17
TORSDOF 4
ENDMDL
MODEL 3
REMARK VINA RESULT:      -5.5     21.663     24.063
REMARK  4 active torsions:
REMARK  status: ('A' for Active; 'I' for Inactive)
REMARK    1  A    between atoms: C_4  and  O_10 
REMARK    2  A    between atoms: C_5  and  O_8 
REMARK    3  A    between atoms: O_10  and  C_11 
REMARK    4  A    between atoms: C_11  and  C_12 
ROOT
HETATM    1  C   UNK N   1      29.455  19.859  -8.139  0.00  0.00     0.048 C 
HETATM    2  C   UNK N   1      29.389  20.905  -7.087  0.00  0.00    -0.059 A 
HETATM    3  C   UNK N   1      28.465  21.938  -7.199  0.00  0.00     0.046 A 
HETATM    4  C   UNK N   1      28.378  22.936  -6.224  0.00  0.00     0.103 A 
HETATM    5  C   UNK N   1      29.250  22.893  -5.104  0.00  0.00     0.101 A 
HETATM    6  C   UNK N   1      30.180  21.842  -5.004  0.00  0.00     0.040 A 
HETATM    7  C   UNK N   1      30.248  20.855  -5.989  0.00  0.00     0.009 A 
ENDROOT
BRANCH   4   8
HETATM    8  O   UNK N   1      27.449  23.900  -6.414  0.00  0.00    -0.342 OA
BRANCH   8   9
HETATM    9  C   UNK N   1      26.184  23.942  -5.877  0.00  0.00     0.232 C 
BRANCH   9  10
HETATM   10  C   UNK N   1      25.994  25.249  -5.183  0.00  0.00     0.033 A 
HETATM   11  N   UNK N   1      26.560  25.467  -3.962  0.00  0.00    -0.367 N 
HETATM   12  C   UNK N   1      26.402  26.644  -3.302  0.00  0.00     0.088 A 
ATOM     13  HN  UNK N   1      27.115  24.727  -3.533  1.00  0.00     0.165 HD
HETATM   14  C   UNK N   1      25.645  27.667  -3.874  0.00  0.00     0.017 A 
HETATM   15  C   UNK N   1      25.057  27.467  -5.123  0.00  0.00     0.003 A 
HETATM   16  C   UNK N   1      25.230  26.250  -5.786  0.00  0.00     0.027 A 
ENDBRANCH   9  10
ENDBRANCH   8   9
ENDBRANCH   4   8
BRANCH   5  17
HETATM   17  O   UNK N   1      29.184  23.853  -4.146  0.00  0.00    -0.353 OA
HETATM   18  C   UNK N   1      30.089  23.962  -3.115  0.00  0.00     0.210 C 
ENDBRANCH   5  17
TORSDOF 4
ENDMDL
MODEL 4
REMARK VINA RESULT:      -5.4     24.620     26.244
REMARK  4 active torsions:
REMARK  status: ('A' for Active; 'I' for Inactive)
REMARK    1  A    between atoms: C_4  and  O_10 
REMARK    2  A    between atoms: C_5  and  O_8 
REMARK    3  A    between atoms: O_10  and  C_11 
REMARK    4  A    between atoms: C_11  and  C_12 
ROOT
HETATM    1  C   UNK N   1      28.544  27.680  -8.986  0.00  0.00     0.048 C 
HETATM    2  C   UNK N   1      27.745  27.641  -7.735  0.00  0.00    -0.059 A 
HETATM    3  C   UNK N   1      26.926  26.548  -7.474  0.00  0.00     0.046 A 
HETATM    4  C   UNK N   1      26.163  26.482  -6.304  0.00  0.00     0.103 A 
HETATM    5  C   UNK N   1      26.226  27.550  -5.370  0.00  0.00     0.101 A 
HETATM    6  C   UNK N   1      27.059  28.650  -5.648  0.00  0.00     0.040 A 
HETATM    7  C   UNK N   1      27.814  28.693  -6.822  0.00  0.00     0.009 A 
ENDROOT
BRANCH   4   8
HETATM    8  O   UNK N   1      25.397  25.380  -6.132  0.00  0.00    -0.342 OA
BRANCH   8   9
HETATM    9  C   UNK N   1      25.736  24.242  -5.441  0.00  0.00     0.232 C 
BRANCH   9  10
HETATM   10  C   UNK N   1      25.889  23.115  -6.406  0.00  0.00     0.033 A 
HETATM   11  N   UNK N   1      24.803  22.381  -6.783  0.00  0.00    -0.367 N 
HETATM   12  C   UNK N   1      24.909  21.346  -7.657  0.00  0.00     0.088 A 
ATOM     13  HN  UNK N   1      23.888  22.614  -6.398  1.00  0.00     0.165 HD
HETATM   14  C   UNK N   1      26.153  21.011  -8.193  0.00  0.00     0.017 A 
HETATM   15  C   UNK N   1      27.279  21.749  -7.822  0.00  0.00     0.003 A 
HETATM   16  C   UNK N   1      27.149  22.809  -6.922  0.00  0.00     0.027 A 
ENDBRANCH   9  10
ENDBRANCH   8   9
ENDBRANCH   4   8
BRANCH   5  17
HETATM   17  O   UNK N   1      25.494  27.508  -4.228  0.00  0.00    -0.353 OA
HETATM   18  C   UNK N   1      26.039  27.299  -2.982  0.00  0.00     0.210 C 
ENDBRANCH   5  17
TORSDOF 4
ENDMDL
MODEL 5
REMARK VINA RESULT:      -5.4     10.228     12.925
REMARK  4 active torsions:
REMARK  status: ('A' for Active; 'I' for Inactive)
REMARK    1  A    between atoms: C_4  and  O_10 
REMARK    2  A    between atoms: C_5  and  O_8 
REMARK    3  A    between atoms: O_10  and  C_11 
REMARK    4  A    between atoms: C_11  and  C_12 
ROOT
HETATM    1  C   UNK N   1      25.695  20.401   3.174  0.00  0.00     0.048 C 
HETATM    2  C   UNK N   1      26.470  20.002   4.377  0.00  0.00    -0.059 A 
HETATM    3  C   UNK N   1      27.048  18.739   4.438  0.00  0.00     0.046 A 
HETATM    4  C   UNK N   1      27.784  18.336   5.556  0.00  0.00     0.103 A 
HETATM    5  C   UNK N   1      27.941  19.232   6.646  0.00  0.00     0.101 A 
HETATM    6  C   UNK N   1      27.350  20.507   6.571  0.00  0.00     0.040 A 
HETATM    7  C   UNK N   1      26.621  20.889   5.443  0.00  0.00     0.009 A 
ENDROOT
BRANCH   4   8
HETATM    8  O   UNK N   1      28.312  17.091   5.527  0.00  0.00    -0.342 OA
BRANCH   8   9
HETATM    9  C   UNK N   1      29.086  16.548   4.529  0.00  0.00     0.232 C 
BRANCH   9  10
HETATM   10  C   UNK N   1      30.515  16.894   4.780  0.00  0.00     0.033 A 
HETATM   11  N   UNK N   1      31.296  17.364   3.766  0.00  0.00    -0.367 N 
HETATM   12  C   UNK N   1      32.602  17.684   3.960  0.00  0.00     0.088 A 
ATOM     13  HN  UNK N   1      30.890  17.477   2.837  1.00  0.00     0.165 HD
HETATM   14  C   UNK N   1      33.176  17.535   5.223  0.00  0.00     0.017 A 
HETATM   15  C   UNK N   1      32.395  17.057   6.277  0.00  0.00     0.003 A 
HETATM   16  C   UNK N   1      31.055  16.733   6.058  0.00  0.00     0.027 A 
ENDBRANCH   9  10
ENDBRANCH   8   9
ENDBRANCH   4   8
BRANCH   5  17
HETATM   17  O   UNK N   1      28.651  18.862   7.743  0.00  0.00    -0.353 OA
HETATM   18  C   UNK N   1      28.108  18.176   8.805  0.00  0.00     0.210 C 
ENDBRANCH   5  17
TORSDOF 4
ENDMDL
MODEL 6
REMARK VINA RESULT:      -5.4     20.420     23.651
REMARK  4 active torsions:
REMARK  status: ('A' for Active; 'I' for Inactive)
REMARK    1  A    between atoms: C_4  and  O_10 
REMARK    2  A    between atoms: C_5  and  O_8 
REMARK    3  A    between atoms: O_10  and  C_11 
REMARK    4  A    between atoms: C_11  and  C_12 
ROOT
HETATM    1  C   UNK N   1      26.268  29.211  -3.960  0.00  0.00     0.048 C 
HETATM    2  C   UNK N   1      26.182  27.778  -4.340  0.00  0.00    -0.059 A 
HETATM    3  C   UNK N   1      27.091  26.868  -3.811  0.00  0.00     0.046 A 
HETATM    4  C   UNK N   1      27.033  25.513  -4.148  0.00  0.00     0.103 A 
HETATM    5  C   UNK N   1      26.031  25.061  -5.047  0.00  0.00     0.101 A 
HETATM    6  C   UNK N   1      25.118  25.992  -5.575  0.00  0.00     0.040 A 
HETATM    7  C   UNK N   1      25.193  27.342  -5.222  0.00  0.00     0.009 A 
ENDROOT
BRANCH   4   8
HETATM    8  O   UNK N   1      27.956  24.700  -3.584  0.00  0.00    -0.342 OA
BRANCH   8   9
HETATM    9  C   UNK N   1      29.322  24.829  -3.659  0.00  0.00     0.232 C 
BRANCH   9  10
HETATM   10  C   UNK N   1      29.932  23.474  -3.786  0.00  0.00     0.033 A 
HETATM   11  N   UNK N   1      29.600  22.668  -4.835  0.00  0.00    -0.367 N 
HETATM   12  C   UNK N   1      30.135  21.427  -4.978  0.00  0.00     0.088 A 
ATOM     13  HN  UNK N   1      28.933  23.004  -5.529  1.00  0.00     0.165 HD
HETATM   14  C   UNK N   1      31.048  20.949  -4.038  0.00  0.00     0.017 A 
HETATM   15  C   UNK N   1      31.403  21.757  -2.957  0.00  0.00     0.003 A 
HETATM   16  C   UNK N   1      30.843  23.029  -2.827  0.00  0.00     0.027 A 
ENDBRANCH   9  10
ENDBRANCH   8   9
ENDBRANCH   4   8
BRANCH   5  17
HETATM   17  O   UNK N   1      25.957  23.749  -5.389  0.00  0.00    -0.353 OA
HETATM   18  C   UNK N   1      25.904  23.304  -6.691  0.00  0.00     0.210 C 
ENDBRANCH   5  17
TORSDOF 4
ENDMDL
MODEL 7
REMARK VINA RESULT:      -5.3     22.621     25.167
REMARK  4 active torsions:
REMARK  status: ('A' for Active; 'I' for Inactive)
REMARK    1  A    between atoms: C_4  and  O_10 
REMARK    2  A    between atoms: C_5  and  O_8 
REMARK    3  A    between atoms: O_10  and  C_11 
REMARK    4  A    between atoms: C_11  and  C_12 
ROOT
HETATM    1  C   UNK N   1      29.832  24.244  -3.581  0.00  0.00     0.048 C 
HETATM    2  C   UNK N   1      28.674  24.085  -4.497  0.00  0.00    -0.059 A 
HETATM    3  C   UNK N   1      27.561  24.906  -4.350  0.00  0.00     0.046 A 
HETATM    4  C   UNK N   1      26.457  24.782  -5.198  0.00  0.00     0.103 A 
HETATM    5  C   UNK N   1      26.473  23.800  -6.223  0.00  0.00     0.101 A 
HETATM    6  C   UNK N   1      27.605  22.975  -6.360  0.00  0.00     0.040 A 
HETATM    7  C   UNK N   1      28.698  23.119  -5.503  0.00  0.00     0.009 A 
ENDROOT
BRANCH   4   8
HETATM    8  O   UNK N   1      25.420  25.624  -4.983  0.00  0.00    -0.342 OA
BRANCH   8   9
HETATM    9  C   UNK N   1      25.089  26.730  -5.730  0.00  0.00     0.232 C 
BRANCH   9  10
HETATM   10  C   UNK N   1      25.897  27.893  -5.262  0.00  0.00     0.033 A 
HETATM   11  N   UNK N   1      25.576  28.529  -4.100  0.00  0.00    -0.367 N 
HETATM   12  C   UNK N   1      26.289  29.593  -3.647  0.00  0.00     0.088 A 
ATOM     13  HN  UNK N   1      24.779  28.198  -3.556  1.00  0.00     0.165 HD
HETATM   14  C   UNK N   1      27.382  30.061  -4.378  0.00  0.00     0.017 A 
HETATM   15  C   UNK N   1      27.730  29.424  -5.570  0.00  0.00     0.003 A 
HETATM   16  C   UNK N   1      26.985  28.332  -6.018  0.00  0.00     0.027 A 
ENDBRANCH   9  10
ENDBRANCH   8   9
ENDBRANCH   4   8
BRANCH   5  17
HETATM   17  O   UNK N   1      25.411  23.660  -7.058  0.00  0.00    -0.353 OA
HETATM   18  C   UNK N   1      25.460  23.938  -8.405  0.00  0.00     0.210 C 
ENDBRANCH   5  17
TORSDOF 4
ENDMDL
MODEL 8
REMARK VINA RESULT:      -5.2     22.482     25.811
REMARK  4 active torsions:
REMARK  status: ('A' for Active; 'I' for Inactive)
REMARK    1  A    between atoms: C_4  and  O_10 
REMARK    2  A    between atoms: C_5  and  O_8 
REMARK    3  A    between atoms: O_10  and  C_11 
REMARK    4  A    between atoms: C_11  and  C_12 
ROOT
HETATM    1  C   UNK N   1      29.054  28.190  -8.847  0.00  0.00     0.048 C 
HETATM    2  C   UNK N   1      28.122  28.116  -7.693  0.00  0.00    -0.059 A 
HETATM    3  C   UNK N   1      27.239  27.047  -7.587  0.00  0.00     0.046 A 
HETATM    4  C   UNK N   1      26.351  26.949  -6.511  0.00  0.00     0.103 A 
HETATM    5  C   UNK N   1      26.352  27.960  -5.514  0.00  0.00     0.101 A 
HETATM    6  C   UNK N   1      27.251  29.036  -5.634  0.00  0.00     0.040 A 
HETATM    7  C   UNK N   1      28.130  29.112  -6.716  0.00  0.00     0.009 A 
ENDROOT
BRANCH   4   8
HETATM    8  O   UNK N   1      25.530  25.875  -6.489  0.00  0.00    -0.342 OA
BRANCH   8   9
HETATM    9  C   UNK N   1      25.902  24.553  -6.550  0.00  0.00     0.232 C 
BRANCH   9  10
HETATM   10  C   UNK N   1      26.821  24.254  -5.413  0.00  0.00     0.033 A 
HETATM   11  N   UNK N   1      26.379  24.357  -4.127  0.00  0.00    -0.367 N 
HETATM   12  C   UNK N   1      27.191  24.096  -3.071  0.00  0.00     0.088 A 
ATOM     13  HN  UNK N   1      25.414  24.639  -3.955  1.00  0.00     0.165 HD
HETATM   14  C   UNK N   1      28.515  23.710  -3.287  0.00  0.00     0.017 A 
HETATM   15  C   UNK N   1      28.988  23.596  -4.595  0.00  0.00     0.003 A 
HETATM   16  C   UNK N   1      28.139  23.869  -5.668  0.00  0.00     0.027 A 
ENDBRANCH   9  10
ENDBRANCH   8   9
ENDBRANCH   4   8
BRANCH   5  17
HETATM   17  O   UNK N   1      25.498  27.886  -4.461  0.00  0.00    -0.353 OA
HETATM   18  C   UNK N   1      25.904  27.650  -3.167  0.00  0.00     0.210 C 
ENDBRANCH   5  17
TORSDOF 4
ENDMDL
MODEL 9
REMARK VINA RESULT:      -5.0      9.801     12.552
REMARK  4 active torsions:
REMARK  status: ('A' for Active; 'I' for Inactive)
REMARK    1  A    between atoms: C_4  and  O_10 
REMARK    2  A    between atoms: C_5  and  O_8 
REMARK    3  A    between atoms: O_10  and  C_11 
REMARK    4  A    between atoms: C_11  and  C_12 
ROOT
HETATM    1  C   UNK N   1      29.210  17.921   9.807  0.00  0.00     0.048 C 
HETATM    2  C   UNK N   1      29.777  17.695   8.453  0.00  0.00    -0.059 A 
HETATM    3  C   UNK N   1      28.964  17.829   7.333  0.00  0.00     0.046 A 
HETATM    4  C   UNK N   1      29.469  17.624   6.046  0.00  0.00     0.103 A 
HETATM    5  C   UNK N   1      30.835  17.271   5.883  0.00  0.00     0.101 A 
HETATM    6  C   UNK N   1      31.646  17.139   7.025  0.00  0.00     0.040 A 
HETATM    7  C   UNK N   1      31.120  17.350   8.301  0.00  0.00     0.009 A 
ENDROOT
BRANCH   4   8
HETATM    8  O   UNK N   1      28.607  17.779   5.016  0.00  0.00    -0.342 OA
BRANCH   8   9
HETATM    9  C   UNK N   1      27.305  17.340   4.959  0.00  0.00     0.232 C 
BRANCH   9  10
HETATM   10  C   UNK N   1      26.461  18.402   4.338  0.00  0.00     0.033 A 
HETATM   11  N   UNK N   1      25.104  18.276   4.317  0.00  0.00    -0.367 N 
HETATM   12  C   UNK N   1      24.307  19.222   3.757  0.00  0.00     0.088 A 
ATOM     13  HN  UNK N   1      24.675  17.449   4.733  1.00  0.00     0.165 HD
HETATM   14  C   UNK N   1      24.875  20.361   3.183  0.00  0.00     0.017 A 
HETATM   15  C   UNK N   1      26.263  20.512   3.194  0.00  0.00     0.003 A 
HETATM   16  C   UNK N   1      27.065  19.528   3.775  0.00  0.00     0.027 A 
ENDBRANCH   9  10
ENDBRANCH   8   9
ENDBRANCH   4   8
BRANCH   5  17
HETATM   17  O   UNK N   1      31.348  17.066   4.643  0.00  0.00    -0.353 OA
HETATM   18  C   UNK N   1      32.632  17.408   4.284  0.00  0.00     0.210 C 
ENDBRANCH   5  17
TORSDOF 4
ENDMDL
