MODEL 1
REMARK VINA RESULT:      -5.9      0.000      0.000
REMARK  4 active torsions:
REMARK  status: ('A' for Active; 'I' for Inactive)
REMARK    1  A    between atoms: C_3  and  O_10 
REMARK    2  A    between atoms: C_5  and  O_8 
REMARK    3  A    between atoms: O_10  and  C_11 
REMARK    4  A    between atoms: C_11  and  C_12 
ROOT
HETATM    1  C   UNK N   1      25.832  23.760  -6.029  0.00  0.00     0.051 C 
HETATM    2  C   UNK N   1      25.872  25.032  -5.254  0.00  0.00    -0.028 A 
HETATM    3  C   UNK N   1      26.616  25.194  -4.048  0.00  0.00     0.077 A 
HETATM    4  C   UNK N   1      26.592  26.437  -3.403  0.00  0.00     0.074 A 
HETATM    5  C   UNK N   1      25.850  27.506  -3.912  0.00  0.00     0.070 A 
HETATM    6  C   UNK N   1      25.117  27.333  -5.096  0.00  0.00     0.037 A 
HETATM    7  C   UNK N   1      25.135  26.107  -5.758  0.00  0.00     0.012 A 
ENDROOT
BRANCH   3   8
HETATM    8  O   UNK N   1      27.356  24.208  -3.468  0.00  0.00    -0.346 OA
BRANCH   8   9
HETATM    9  C   UNK N   1      28.724  24.221  -3.301  0.00  0.00     0.214 C 
BRANCH   9  10
HETATM   10  C   UNK N   1      29.384  23.048  -3.953  0.00  0.00    -0.032 A 
HETATM   11  C   UNK N   1      30.086  22.143  -3.154  0.00  0.00     0.026 A 
HETATM   12  C   UNK N   1      30.682  21.025  -3.741  0.00  0.00     0.088 A 
HETATM   13  N   UNK N   1      30.583  20.824  -5.082  0.00  0.00    -0.375 N 
HETATM   14  C   UNK N   1      29.912  21.696  -5.883  0.00  0.00     0.088 A 
ATOM     15  HN  UNK N   1      31.022  20.002  -5.497  1.00  0.00     0.164 HD
HETATM   16  C   UNK N   1      29.296  22.823  -5.332  0.00  0.00     0.026 A 
ENDBRANCH   9  10
ENDBRANCH   8   9
ENDBRANCH   3   8
BRANCH   5  17
HETATM   17  O   UNK N   1      25.849  28.683  -3.244  0.00  0.00    -0.356 OA
HETATM   18  C   UNK N   1      26.457  29.822  -3.722  0.00  0.00     0.210 C 
ENDBRANCH   5  17
TORSDOF 4
ENDMDL
MODEL 2
REMARK VINA RESULT:      -5.6     10.133     12.132
REMARK  4 active torsions:
REMARK  status: ('A' for Active; 'I' for Inactive)
REMARK    1  A    between atoms: C_3  and  O_10 
REMARK    2  A    between atoms: C_5  and  O_8 
REMARK    3  A    between atoms: O_10  and  C_11 
REMARK    4  A    between atoms: C_11  and  C_12 
ROOT
HETATM    1  C   UNK N   1      28.305  18.883   8.228  0.00  0.00     0.051 C 
HETATM    2  C   UNK N   1      27.883  19.276   6.853  0.00  0.00    -0.028 A 
HETATM    3  C   UNK N   1      28.113  18.467   5.702  0.00  0.00     0.077 A 
HETATM    4  C   UNK N   1      27.666  18.926   4.456  0.00  0.00     0.074 A 
HETATM    5  C   UNK N   1      27.016  20.157   4.325  0.00  0.00     0.070 A 
HETATM    6  C   UNK N   1      26.802  20.946   5.465  0.00  0.00     0.037 A 
HETATM    7  C   UNK N   1      27.230  20.504   6.715  0.00  0.00     0.012 A 
ENDROOT
BRANCH   3   8
HETATM    8  O   UNK N   1      28.748  17.263   5.727  0.00  0.00    -0.346 OA
BRANCH   8   9
HETATM    9  C   UNK N   1      29.770  16.873   4.888  0.00  0.00     0.214 C 
BRANCH   9  10
HETATM   10  C   UNK N   1      31.117  17.092   5.498  0.00  0.00    -0.032 A 
HETATM   11  C   UNK N   1      32.209  17.310   4.655  0.00  0.00     0.026 A 
HETATM   12  C   UNK N   1      33.468  17.548   5.208  0.00  0.00     0.088 A 
HETATM   13  N   UNK N   1      33.630  17.562   6.558  0.00  0.00    -0.375 N 
HETATM   14  C   UNK N   1      32.584  17.344   7.401  0.00  0.00     0.088 A 
ATOM     15  HN  UNK N   1      34.556  17.738   6.948  1.00  0.00     0.164 HD
HETATM   16  C   UNK N   1      31.306  17.109   6.886  0.00  0.00     0.026 A 
ENDBRANCH   9  10
ENDBRANCH   8   9
ENDBRANCH   3   8
BRANCH   5  17
HETATM   17  O   UNK N   1      26.617  20.562   3.097  0.00  0.00    -0.356 OA
HETATM   18  C   UNK N   1      25.312  20.482   2.664  0.00  0.00     0.210 C 
ENDBRANCH   5  17
TORSDOF 4
ENDMDL
MODEL 3
REMARK VINA RESULT:      -5.6     11.982     13.767
REMARK  4 active torsions:
REMARK  status: ('A' for Active; 'I' for Inactive)
REMARK    1  A    between atoms: C_3  and  O_10 
REMARK    2  A    between atoms: C_5  and  O_8 
REMARK    3  A    between atoms: O_10  and  C_11 
REMARK    4  A    between atoms: C_11  and  C_12 
ROOT
HETATM    1  C   UNK N   1      29.913  16.434   3.308  0.00  0.00     0.051 C 
HETATM    2  C   UNK N   1      31.042  16.813   4.205  0.00  0.00    -0.028 A 
HETATM    3  C   UNK N   1      30.964  16.763   5.628  0.00  0.00     0.077 A 
HETATM    4  C   UNK N   1      32.089  17.131   6.377  0.00  0.00     0.074 A 
HETATM    5  C   UNK N   1      33.269  17.553   5.758  0.00  0.00     0.070 A 
HETATM    6  C   UNK N   1      33.330  17.604   4.358  0.00  0.00     0.037 A 
HETATM    7  C   UNK N   1      32.227  17.233   3.593  0.00  0.00     0.012 A 
ENDROOT
BRANCH   3   8
HETATM    8  O   UNK N   1      29.856  16.379   6.320  0.00  0.00    -0.346 OA
BRANCH   8   9
HETATM    9  C   UNK N   1      29.242  17.100   7.321  0.00  0.00     0.214 C 
BRANCH   9  10
HETATM   10  C   UNK N   1      28.208  18.040   6.789  0.00  0.00    -0.032 A 
HETATM   11  C   UNK N   1      28.115  19.319   7.342  0.00  0.00     0.026 A 
HETATM   12  C   UNK N   1      27.176  20.220   6.836  0.00  0.00     0.088 A 
HETATM   13  N   UNK N   1      26.357  19.852   5.816  0.00  0.00    -0.375 N 
HETATM   14  C   UNK N   1      26.423  18.609   5.266  0.00  0.00     0.088 A 
ATOM     15  HN  UNK N   1      25.677  20.522   5.456  1.00  0.00     0.164 HD
HETATM   16  C   UNK N   1      27.353  17.681   5.740  0.00  0.00     0.026 A 
ENDBRANCH   9  10
ENDBRANCH   8   9
ENDBRANCH   3   8
BRANCH   5  17
HETATM   17  O   UNK N   1      34.323  17.912   6.528  0.00  0.00    -0.356 OA
HETATM   18  C   UNK N   1      34.241  18.063   7.894  0.00  0.00     0.210 C 
ENDBRANCH   5  17
TORSDOF 4
ENDMDL
MODEL 4
REMARK VINA RESULT:      -5.4      2.060      3.219
REMARK  4 active torsions:
REMARK  status: ('A' for Active; 'I' for Inactive)
REMARK    1  A    between atoms: C_3  and  O_10 
REMARK    2  A    between atoms: C_5  and  O_8 
REMARK    3  A    between atoms: O_10  and  C_11 
REMARK    4  A    between atoms: C_11  and  C_12 
ROOT
HETATM    1  C   UNK N   1      27.045  26.752  -7.764  0.00  0.00     0.051 C 
HETATM    2  C   UNK N   1      26.823  27.510  -6.500  0.00  0.00    -0.028 A 
HETATM    3  C   UNK N   1      25.941  27.074  -5.468  0.00  0.00     0.077 A 
HETATM    4  C   UNK N   1      25.814  27.858  -4.314  0.00  0.00     0.074 A 
HETATM    5  C   UNK N   1      26.522  29.054  -4.166  0.00  0.00     0.070 A 
HETATM    6  C   UNK N   1      27.381  29.476  -5.191  0.00  0.00     0.037 A 
HETATM    7  C   UNK N   1      27.530  28.706  -6.343  0.00  0.00     0.012 A 
ENDROOT
BRANCH   3   8
HETATM    8  O   UNK N   1      25.200  25.933  -5.527  0.00  0.00    -0.346 OA
BRANCH   8   9
HETATM    9  C   UNK N   1      25.460  24.767  -4.839  0.00  0.00     0.214 C 
BRANCH   9  10
HETATM   10  C   UNK N   1      26.422  23.883  -5.566  0.00  0.00    -0.032 A 
HETATM   11  C   UNK N   1      25.956  23.125  -6.641  0.00  0.00     0.026 A 
HETATM   12  C   UNK N   1      26.847  22.318  -7.352  0.00  0.00     0.088 A 
HETATM   13  N   UNK N   1      28.158  22.269  -6.994  0.00  0.00    -0.375 N 
HETATM   14  C   UNK N   1      28.635  22.993  -5.944  0.00  0.00     0.088 A 
ATOM     15  HN  UNK N   1      28.798  21.676  -7.523  1.00  0.00     0.164 HD
HETATM   16  C   UNK N   1      27.775  23.817  -5.213  0.00  0.00     0.026 A 
ENDBRANCH   9  10
ENDBRANCH   8   9
ENDBRANCH   3   8
BRANCH   5  17
HETATM   17  O   UNK N   1      26.352  29.783  -3.038  0.00  0.00    -0.356 OA
HETATM   18  C   UNK N   1      27.200  30.802  -2.664  0.00  0.00     0.210 C 
ENDBRANCH   5  17
TORSDOF 4
ENDMDL
MODEL 5
REMARK VINA RESULT:      -5.3      1.947      2.829
REMARK  4 active torsions:
REMARK  status: ('A' for Active; 'I' for Inactive)
REMARK    1  A    between atoms: C_3  and  O_10 
REMARK    2  A    between atoms: C_5  and  O_8 
REMARK    3  A    between atoms: O_10  and  C_11 
REMARK    4  A    between atoms: C_11  and  C_12 
ROOT
HETATM    1  C   UNK N   1      27.259  26.563  -8.102  0.00  0.00     0.051 C 
HETATM    2  C   UNK N   1      26.942  27.327  -6.862  0.00  0.00    -0.028 A 
HETATM    3  C   UNK N   1      25.988  26.892  -5.895  0.00  0.00     0.077 A 
HETATM    4  C   UNK N   1      25.772  27.682  -4.759  0.00  0.00     0.074 A 
HETATM    5  C   UNK N   1      26.462  28.882  -4.566  0.00  0.00     0.070 A 
HETATM    6  C   UNK N   1      27.393  29.302  -5.528  0.00  0.00     0.037 A 
HETATM    7  C   UNK N   1      27.629  28.527  -6.661  0.00  0.00     0.012 A 
ENDROOT
BRANCH   3   8
HETATM    8  O   UNK N   1      25.258  25.747  -6.002  0.00  0.00    -0.346 OA
BRANCH   8   9
HETATM    9  C   UNK N   1      25.361  24.647  -5.178  0.00  0.00     0.214 C 
BRANCH   9  10
HETATM   10  C   UNK N   1      26.736  24.059  -5.188  0.00  0.00    -0.032 A 
HETATM   11  C   UNK N   1      27.542  24.218  -4.059  0.00  0.00     0.026 A 
HETATM   12  C   UNK N   1      28.816  23.648  -4.038  0.00  0.00     0.088 A 
HETATM   13  N   UNK N   1      29.269  22.948  -5.112  0.00  0.00    -0.375 N 
HETATM   14  C   UNK N   1      28.506  22.786  -6.227  0.00  0.00     0.088 A 
ATOM     15  HN  UNK N   1      30.202  22.537  -5.083  1.00  0.00     0.164 HD
HETATM   16  C   UNK N   1      27.222  23.336  -6.284  0.00  0.00     0.026 A 
ENDBRANCH   9  10
ENDBRANCH   8   9
ENDBRANCH   3   8
BRANCH   5  17
HETATM   17  O   UNK N   1      26.207  29.617  -3.458  0.00  0.00    -0.356 OA
HETATM   18  C   UNK N   1      26.961  30.707  -3.086  0.00  0.00     0.210 C 
ENDBRANCH   5  17
TORSDOF 4
ENDMDL
MODEL 6
REMARK VINA RESULT:      -5.3     21.390     24.401
REMARK  4 active torsions:
REMARK  status: ('A' for Active; 'I' for Inactive)
REMARK    1  A    between atoms: C_3  and  O_10 
REMARK    2  A    between atoms: C_5  and  O_8 
REMARK    3  A    between atoms: O_10  and  C_11 
REMARK    4  A    between atoms: C_11  and  C_12 
ROOT
HETATM    1  C   UNK N   1      34.098  10.585  13.702  0.00  0.00     0.051 C 
HETATM    2  C   UNK N   1      34.506  10.970  15.084  0.00  0.00    -0.028 A 
HETATM    3  C   UNK N   1      34.885  12.296  15.449  0.00  0.00     0.077 A 
HETATM    4  C   UNK N   1      35.241  12.552  16.779  0.00  0.00     0.074 A 
HETATM    5  C   UNK N   1      35.242  11.537  17.740  0.00  0.00     0.070 A 
HETATM    6  C   UNK N   1      34.873  10.236  17.367  0.00  0.00     0.037 A 
HETATM    7  C   UNK N   1      34.506   9.962  16.051  0.00  0.00     0.012 A 
ENDROOT
BRANCH   3   8
HETATM    8  O   UNK N   1      34.928  13.345  14.582  0.00  0.00    -0.346 OA
BRANCH   8   9
HETATM    9  C   UNK N   1      36.046  14.091  14.275  0.00  0.00     0.214 C 
BRANCH   9  10
HETATM   10  C   UNK N   1      36.283  14.175  12.801  0.00  0.00    -0.032 A 
HETATM   11  C   UNK N   1      36.880  13.091  12.154  0.00  0.00     0.026 A 
HETATM   12  C   UNK N   1      37.080  13.139  10.773  0.00  0.00     0.088 A 
HETATM   13  N   UNK N   1      36.699  14.236  10.066  0.00  0.00    -0.375 N 
HETATM   14  C   UNK N   1      36.122  15.308  10.674  0.00  0.00     0.088 A 
ATOM     15  HN  UNK N   1      36.850  14.257   9.057  1.00  0.00     0.164 HD
HETATM   16  C   UNK N   1      35.900  15.295  12.054  0.00  0.00     0.026 A 
ENDBRANCH   9  10
ENDBRANCH   8   9
ENDBRANCH   3   8
BRANCH   5  17
HETATM   17  O   UNK N   1      35.608  11.834  19.009  0.00  0.00    -0.356 OA
HETATM   18  C   UNK N   1      35.248  11.069  20.096  0.00  0.00     0.210 C 
ENDBRANCH   5  17
TORSDOF 4
ENDMDL
MODEL 7
REMARK VINA RESULT:      -5.3     21.675     24.595
REMARK  4 active torsions:
REMARK  status: ('A' for Active; 'I' for Inactive)
REMARK    1  A    between atoms: C_3  and  O_10 
REMARK    2  A    between atoms: C_5  and  O_8 
REMARK    3  A    between atoms: O_10  and  C_11 
REMARK    4  A    between atoms: C_11  and  C_12 
ROOT
HETATM    1  C   UNK N   1      37.878  11.054  14.328  0.00  0.00     0.051 C 
HETATM    2  C   UNK N   1      37.314  12.109  13.439  0.00  0.00    -0.028 A 
HETATM    3  C   UNK N   1      36.560  13.220  13.921  0.00  0.00     0.077 A 
HETATM    4  C   UNK N   1      36.083  14.161  12.999  0.00  0.00     0.074 A 
HETATM    5  C   UNK N   1      36.324  14.024  11.629  0.00  0.00     0.070 A 
HETATM    6  C   UNK N   1      37.062  12.924  11.168  0.00  0.00     0.037 A 
HETATM    7  C   UNK N   1      37.553  11.981  12.068  0.00  0.00     0.012 A 
ENDROOT
BRANCH   3   8
HETATM    8  O   UNK N   1      36.262  13.431  15.233  0.00  0.00    -0.346 OA
BRANCH   8   9
HETATM    9  C   UNK N   1      35.073  13.110  15.852  0.00  0.00     0.214 C 
BRANCH   9  10
HETATM   10  C   UNK N   1      35.285  12.492  17.197  0.00  0.00    -0.032 A 
HETATM   11  C   UNK N   1      35.098  13.281  18.334  0.00  0.00     0.026 A 
HETATM   12  C   UNK N   1      35.260  12.713  19.599  0.00  0.00     0.088 A 
HETATM   13  N   UNK N   1      35.603  11.403  19.721  0.00  0.00    -0.375 N 
HETATM   14  C   UNK N   1      35.799  10.616  18.628  0.00  0.00     0.088 A 
ATOM     15  HN  UNK N   1      35.716  11.001  20.652  1.00  0.00     0.164 HD
HETATM   16  C   UNK N   1      35.639  11.146  17.345  0.00  0.00     0.026 A 
ENDBRANCH   9  10
ENDBRANCH   8   9
ENDBRANCH   3   8
BRANCH   5  17
HETATM   17  O   UNK N   1      35.829  14.953  10.779  0.00  0.00    -0.356 OA
HETATM   18  C   UNK N   1      35.491  16.229  11.170  0.00  0.00     0.210 C 
ENDBRANCH   5  17
TORSDOF 4
ENDMDL
MODEL 8
REMARK VINA RESULT:      -5.2     10.506     12.280
REMARK  4 active torsions:
REMARK  status: ('A' for Active; 'I' for Inactive)
REMARK    1  A    between atoms: C_3  and  O_10 
REMARK    2  A    between atoms: C_5  and  O_8 
REMARK    3  A    between atoms: O_10  and  C_11 
REMARK    4  A    between atoms: C_11  and  C_12 
ROOT
HETATM    1  C   UNK N   1      24.730  20.521   2.605  0.00  0.00     0.051 C 
HETATM    2  C   UNK N   1      25.652  19.815   3.540  0.00  0.00    -0.028 A 
HETATM    3  C   UNK N   1      25.340  18.568   4.158  0.00  0.00     0.077 A 
HETATM    4  C   UNK N   1      26.284  17.985   5.014  0.00  0.00     0.074 A 
HETATM    5  C   UNK N   1      27.508  18.605   5.276  0.00  0.00     0.070 A 
HETATM    6  C   UNK N   1      27.801  19.834   4.667  0.00  0.00     0.037 A 
HETATM    7  C   UNK N   1      26.880  20.427   3.805  0.00  0.00     0.012 A 
ENDROOT
BRANCH   3   8
HETATM    8  O   UNK N   1      24.170  17.896   3.976  0.00  0.00    -0.346 OA
BRANCH   8   9
HETATM    9  C   UNK N   1      23.020  18.064   4.716  0.00  0.00     0.214 C 
BRANCH   9  10
HETATM   10  C   UNK N   1      21.824  18.317   3.855  0.00  0.00    -0.032 A 
HETATM   11  C   UNK N   1      21.273  17.251   3.141  0.00  0.00     0.026 A 
HETATM   12  C   UNK N   1      20.138  17.463   2.356  0.00  0.00     0.088 A 
HETATM   13  N   UNK N   1      19.577  18.699   2.285  0.00  0.00    -0.375 N 
HETATM   14  C   UNK N   1      20.100  19.756   2.965  0.00  0.00     0.088 A 
ATOM     15  HN  UNK N   1      18.747  18.838   1.709  1.00  0.00     0.164 HD
HETATM   16  C   UNK N   1      21.232  19.583   3.766  0.00  0.00     0.026 A 
ENDBRANCH   9  10
ENDBRANCH   8   9
ENDBRANCH   3   8
BRANCH   5  17
HETATM   17  O   UNK N   1      28.380  18.008   6.122  0.00  0.00    -0.356 OA
HETATM   18  C   UNK N   1      28.597  18.441   7.410  0.00  0.00     0.210 C 
ENDBRANCH   5  17
TORSDOF 4
ENDMDL
MODEL 9
REMARK VINA RESULT:      -5.2     11.175     13.971
REMARK  4 active torsions:
REMARK  status: ('A' for Active; 'I' for Inactive)
REMARK    1  A    between atoms: C_3  and  O_10 
REMARK    2  A    between atoms: C_5  and  O_8 
REMARK    3  A    between atoms: O_10  and  C_11 
REMARK    4  A    between atoms: C_11  and  C_12 
ROOT
HETATM    1  C   UNK N   1      28.858  17.731   8.341  0.00  0.00     0.051 C 
HETATM    2  C   UNK N   1      30.223  17.623   7.752  0.00  0.00    -0.028 A 
HETATM    3  C   UNK N   1      30.469  17.182   6.418  0.00  0.00     0.077 A 
HETATM    4  C   UNK N   1      31.792  17.127   5.960  0.00  0.00     0.074 A 
HETATM    5  C   UNK N   1      32.862  17.482   6.785  0.00  0.00     0.070 A 
HETATM    6  C   UNK N   1      32.608  17.908   8.097  0.00  0.00     0.037 A 
HETATM    7  C   UNK N   1      31.299  17.979   8.570  0.00  0.00     0.012 A 
ENDROOT
BRANCH   3   8
HETATM    8  O   UNK N   1      29.494  16.802   5.546  0.00  0.00    -0.346 OA
BRANCH   8   9
HETATM    9  C   UNK N   1      29.123  17.483   4.407  0.00  0.00     0.214 C 
BRANCH   9  10
HETATM   10  C   UNK N   1      27.943  18.373   4.639  0.00  0.00    -0.032 A 
HETATM   11  C   UNK N   1      28.160  19.740   4.823  0.00  0.00     0.026 A 
HETATM   12  C   UNK N   1      27.069  20.590   5.010  0.00  0.00     0.088 A 
HETATM   13  N   UNK N   1      25.805  20.088   5.017  0.00  0.00    -0.375 N 
HETATM   14  C   UNK N   1      25.569  18.759   4.848  0.00  0.00     0.088 A 
ATOM     15  HN  UNK N   1      25.017  20.722   5.154  1.00  0.00     0.164 HD
HETATM   16  C   UNK N   1      26.634  17.877   4.652  0.00  0.00     0.026 A 
ENDBRANCH   9  10
ENDBRANCH   8   9
ENDBRANCH   3   8
BRANCH   5  17
HETATM   17  O   UNK N   1      34.123  17.398   6.299  0.00  0.00    -0.356 OA
HETATM   18  C   UNK N   1      34.734  16.202   5.992  0.00  0.00     0.210 C 
ENDBRANCH   5  17
TORSDOF 4
ENDMDL
