MODEL 1
REMARK VINA RESULT:      -6.9      0.000      0.000
REMARK  8 active torsions:
REMARK  status: ('A' for Active; 'I' for Inactive)
REMARK    1  A    between atoms: S_1  and  C_9 
REMARK    2  A    between atoms: N_4  and  S_1 
REMARK    3  A    between atoms: N_4  and  C_7 
REMARK    4  A    between atoms: C_5  and  N_4 
REMARK    5  A    between atoms: C_15  and  C_14 
REMARK       I    between atoms: C_15  and  N_17 
REMARK    6  A    between atoms: C_18  and  N_17 
REMARK    7  A    between atoms: C_23  and  C_24 
REMARK    8  A    between atoms: C_24  and  O_26 
ROOT
HETATM    1  C   UNK N   1      23.604  18.560   4.497  0.00  0.00     0.093 A 
HETATM    2  C   UNK N   1      23.282  19.566   3.560  0.00  0.00     0.033 A 
HETATM    3 Br   UNK N   1      21.491  19.845   2.949  0.00  0.00    -0.049 Br
HETATM    4  C   UNK N   1      24.283  20.413   3.074  0.00  0.00     0.021 A 
HETATM    5  C   UNK N   1      25.599  20.283   3.520  0.00  0.00     0.018 A 
HETATM    6  C   UNK N   1      25.935  19.290   4.451  0.00  0.00     0.033 A 
HETATM    7  C   UNK N   1      24.947  18.445   4.927  0.00  0.00     0.043 A 
ENDROOT
BRANCH   6   8
HETATM    8  C   UNK N   1      27.308  19.187   4.967  0.00  0.00     0.256 C 
HETATM    9  N   UNK N   1      27.649  18.089   5.676  0.00  0.00    -0.322 N 
HETATM   10  H   UNK N   1      26.925  17.442   5.839  0.00  0.00     0.169 HD
HETATM   11  O   UNK N   1      28.128  20.067   4.724  0.00  0.00    -0.267 OA
BRANCH   9  12
HETATM   12  C   UNK N   1      28.917  17.749   6.215  0.00  0.00     0.051 A 
HETATM   13  C   UNK N   1      29.106  17.826   7.614  0.00  0.00     0.064 A 
HETATM   14  C   UNK N   1      30.366  17.520   8.150  0.00  0.00     0.020 A 
HETATM   15  C   UNK N   1      31.419  17.127   7.321  0.00  0.00     0.001 A 
HETATM   16  C   UNK N   1      31.225  17.036   5.942  0.00  0.00     0.002 A 
HETATM   17  C   UNK N   1      29.983  17.350   5.391  0.00  0.00     0.030 A 
BRANCH  13  18
HETATM   18  C   UNK N   1      28.004  18.224   8.537  0.00  0.00     0.178 C 
HETATM   19  O   UNK N   1      27.672  17.480   9.446  0.00  0.00    -0.646 OA
BRANCH  18  20
HETATM   20  O   UNK N   1      27.346  19.391   8.378  0.00  0.00    -0.773 OA
HETATM   21  H   UNK N   1      27.707  20.183   8.727  0.00  0.00     0.167 HD
ENDBRANCH  18  20
ENDBRANCH  13  18
ENDBRANCH   9  12
ENDBRANCH   6   8
BRANCH   1  22
HETATM   22  S   UNK N   1      22.297  17.491   5.213  0.00  0.00     0.245 S 
HETATM   23  O   UNK N   1      22.152  18.546   6.320  0.00  0.00    -0.206 OA
HETATM   24  O   UNK N   1      23.640  16.896   5.686  0.00  0.00    -0.206 OA
BRANCH  22  25
HETATM   25  N   UNK N   1      21.642  16.249   6.361  0.00  0.00    -0.207 NA
BRANCH  25  26
HETATM   26  C   UNK N   1      21.027  15.050   5.764  0.00  0.00     0.103 C 
HETATM   27  C   UNK N   1      20.326  15.396   4.463  0.00  0.00     0.021 C 
ENDBRANCH  25  26
BRANCH  25  28
HETATM   28  C   UNK N   1      20.700  16.845   7.299  0.00  0.00     0.103 C 
HETATM   29  C   UNK N   1      20.671  16.046   8.587  0.00  0.00     0.021 C 
ENDBRANCH  25  28
ENDBRANCH  22  25
ENDBRANCH   1  22
TORSDOF 8
ENDMDL
MODEL 2
REMARK VINA RESULT:      -6.9      4.001      6.584
REMARK  8 active torsions:
REMARK  status: ('A' for Active; 'I' for Inactive)
REMARK    1  A    between atoms: S_1  and  C_9 
REMARK    2  A    between atoms: N_4  and  S_1 
REMARK    3  A    between atoms: N_4  and  C_7 
REMARK    4  A    between atoms: C_5  and  N_4 
REMARK    5  A    between atoms: C_15  and  C_14 
REMARK       I    between atoms: C_15  and  N_17 
REMARK    6  A    between atoms: C_18  and  N_17 
REMARK    7  A    between atoms: C_23  and  C_24 
REMARK    8  A    between atoms: C_24  and  O_26 
ROOT
HETATM    1  C   UNK N   1      28.906  16.819   5.340  0.00  0.00     0.093 A 
HETATM    2  C   UNK N   1      29.331  15.875   4.380  0.00  0.00     0.033 A 
HETATM    3 Br   UNK N   1      28.479  15.707   2.676  0.00  0.00    -0.049 Br
HETATM    4  C   UNK N   1      30.425  15.047   4.654  0.00  0.00     0.021 A 
HETATM    5  C   UNK N   1      31.112  15.157   5.864  0.00  0.00     0.018 A 
HETATM    6  C   UNK N   1      30.703  16.091   6.826  0.00  0.00     0.033 A 
HETATM    7  C   UNK N   1      29.615  16.906   6.560  0.00  0.00     0.043 A 
ENDROOT
BRANCH   6   8
HETATM    8  C   UNK N   1      31.458  16.251   8.077  0.00  0.00     0.256 C 
HETATM    9  N   UNK N   1      32.718  15.768   8.136  0.00  0.00    -0.322 N 
HETATM   10  H   UNK N   1      33.032  15.292   7.333  0.00  0.00     0.169 HD
HETATM   11  O   UNK N   1      30.960  16.843   9.029  0.00  0.00    -0.267 OA
BRANCH   9  12
HETATM   12  C   UNK N   1      33.646  15.858   9.205  0.00  0.00     0.051 A 
HETATM   13  C   UNK N   1      34.597  16.904   9.197  0.00  0.00     0.064 A 
HETATM   14  C   UNK N   1      35.537  16.980  10.236  0.00  0.00     0.020 A 
HETATM   15  C   UNK N   1      35.529  16.049  11.276  0.00  0.00     0.001 A 
HETATM   16  C   UNK N   1      34.580  15.026  11.290  0.00  0.00     0.002 A 
HETATM   17  C   UNK N   1      33.646  14.927  10.258  0.00  0.00     0.030 A 
BRANCH  13  18
HETATM   18  C   UNK N   1      34.629  17.931   8.115  0.00  0.00     0.178 C 
HETATM   19  O   UNK N   1      34.491  17.595   6.951  0.00  0.00    -0.646 OA
BRANCH  18  20
HETATM   20  O   UNK N   1      34.828  19.236   8.397  0.00  0.00    -0.773 OA
HETATM   21  H   UNK N   1      35.528  19.703   7.984  0.00  0.00     0.167 HD
ENDBRANCH  18  20
ENDBRANCH  13  18
ENDBRANCH   9  12
ENDBRANCH   6   8
BRANCH   1  22
HETATM   22  S   UNK N   1      27.528  17.973   4.974  0.00  0.00     0.245 S 
HETATM   23  O   UNK N   1      28.600  19.002   4.581  0.00  0.00    -0.206 OA
HETATM   24  O   UNK N   1      27.744  18.039   6.500  0.00  0.00    -0.206 OA
BRANCH  22  25
HETATM   25  N   UNK N   1      26.398  19.344   5.338  0.00  0.00    -0.207 NA
BRANCH  25  26
HETATM   26  C   UNK N   1      25.156  19.409   4.548  0.00  0.00     0.103 C 
HETATM   27  C   UNK N   1      25.375  20.186   3.263  0.00  0.00     0.021 C 
ENDBRANCH  25  26
BRANCH  25  28
HETATM   28  C   UNK N   1      27.082  20.627   5.248  0.00  0.00     0.103 C 
HETATM   29  C   UNK N   1      26.789  21.461   6.480  0.00  0.00     0.021 C 
ENDBRANCH  25  28
ENDBRANCH  22  25
ENDBRANCH   1  22
TORSDOF 8
ENDMDL
MODEL 3
REMARK VINA RESULT:      -6.7      1.397      2.002
REMARK  8 active torsions:
REMARK  status: ('A' for Active; 'I' for Inactive)
REMARK    1  A    between atoms: S_1  and  C_9 
REMARK    2  A    between atoms: N_4  and  S_1 
REMARK    3  A    between atoms: N_4  and  C_7 
REMARK    4  A    between atoms: C_5  and  N_4 
REMARK    5  A    between atoms: C_15  and  C_14 
REMARK       I    between atoms: C_15  and  N_17 
REMARK    6  A    between atoms: C_18  and  N_17 
REMARK    7  A    between atoms: C_23  and  C_24 
REMARK    8  A    between atoms: C_24  and  O_26 
ROOT
HETATM    1  C   UNK N   1      23.099  18.624   4.553  0.00  0.00     0.093 A 
HETATM    2  C   UNK N   1      22.834  19.527   3.500  0.00  0.00     0.033 A 
HETATM    3 Br   UNK N   1      21.098  19.686   2.714  0.00  0.00    -0.049 Br
HETATM    4  C   UNK N   1      23.851  20.360   3.023  0.00  0.00     0.021 A 
HETATM    5  C   UNK N   1      25.126  20.317   3.590  0.00  0.00     0.018 A 
HETATM    6  C   UNK N   1      25.405  19.428   4.637  0.00  0.00     0.033 A 
HETATM    7  C   UNK N   1      24.401  18.597   5.106  0.00  0.00     0.043 A 
ENDROOT
BRANCH   6   8
HETATM    8  C   UNK N   1      26.729  19.421   5.276  0.00  0.00     0.256 C 
HETATM    9  N   UNK N   1      26.988  18.481   6.210  0.00  0.00    -0.322 N 
HETATM   10  H   UNK N   1      26.240  17.882   6.435  0.00  0.00     0.169 HD
HETATM   11  O   UNK N   1      27.584  20.232   4.936  0.00  0.00    -0.267 OA
BRANCH   9  12
HETATM   12  C   UNK N   1      28.200  18.247   6.910  0.00  0.00     0.051 A 
HETATM   13  C   UNK N   1      29.193  17.444   6.305  0.00  0.00     0.064 A 
HETATM   14  C   UNK N   1      30.381  17.183   7.004  0.00  0.00     0.020 A 
HETATM   15  C   UNK N   1      30.594  17.722   8.275  0.00  0.00     0.001 A 
HETATM   16  C   UNK N   1      29.619  18.528   8.864  0.00  0.00     0.002 A 
HETATM   17  C   UNK N   1      28.426  18.786   8.188  0.00  0.00     0.030 A 
BRANCH  13  18
HETATM   18  C   UNK N   1      29.015  16.864   4.942  0.00  0.00     0.178 C 
HETATM   19  O   UNK N   1      28.830  15.666   4.808  0.00  0.00    -0.646 OA
BRANCH  18  20
HETATM   20  O   UNK N   1      29.072  17.641   3.840  0.00  0.00    -0.773 OA
HETATM   21  H   UNK N   1      29.455  17.309   3.051  0.00  0.00     0.167 HD
ENDBRANCH  18  20
ENDBRANCH  13  18
ENDBRANCH   9  12
ENDBRANCH   6   8
BRANCH   1  22
HETATM   22  S   UNK N   1      21.763  17.582   5.254  0.00  0.00     0.245 S 
HETATM   23  O   UNK N   1      21.791  18.509   6.479  0.00  0.00    -0.206 OA
HETATM   24  O   UNK N   1      23.081  16.835   5.544  0.00  0.00    -0.206 OA
BRANCH  22  25
HETATM   25  N   UNK N   1      21.092  16.269   6.309  0.00  0.00    -0.207 NA
BRANCH  25  26
HETATM   26  C   UNK N   1      20.155  15.322   5.678  0.00  0.00     0.103 C 
HETATM   27  C   UNK N   1      19.179  16.053   4.773  0.00  0.00     0.021 C 
ENDBRANCH  25  26
BRANCH  25  28
HETATM   28  C   UNK N   1      20.470  16.821   7.506  0.00  0.00     0.103 C 
HETATM   29  C   UNK N   1      20.691  15.892   8.683  0.00  0.00     0.021 C 
ENDBRANCH  25  28
ENDBRANCH  22  25
ENDBRANCH   1  22
TORSDOF 8
ENDMDL
MODEL 4
REMARK VINA RESULT:      -6.6     10.449     13.550
REMARK  8 active torsions:
REMARK  status: ('A' for Active; 'I' for Inactive)
REMARK    1  A    between atoms: S_1  and  C_9 
REMARK    2  A    between atoms: N_4  and  S_1 
REMARK    3  A    between atoms: N_4  and  C_7 
REMARK    4  A    between atoms: C_5  and  N_4 
REMARK    5  A    between atoms: C_15  and  C_14 
REMARK       I    between atoms: C_15  and  N_17 
REMARK    6  A    between atoms: C_18  and  N_17 
REMARK    7  A    between atoms: C_23  and  C_24 
REMARK    8  A    between atoms: C_24  and  O_26 
ROOT
HETATM    1  C   UNK N   1      35.829  11.662  12.312  0.00  0.00     0.093 A 
HETATM    2  C   UNK N   1      35.570  10.335  11.905  0.00  0.00     0.033 A 
HETATM    3 Br   UNK N   1      35.421   8.900  13.161  0.00  0.00    -0.049 Br
HETATM    4  C   UNK N   1      35.386  10.046  10.549  0.00  0.00     0.021 A 
HETATM    5  C   UNK N   1      35.440  11.062   9.594  0.00  0.00     0.018 A 
HETATM    6  C   UNK N   1      35.694  12.384   9.982  0.00  0.00     0.033 A 
HETATM    7  C   UNK N   1      35.885  12.672  11.324  0.00  0.00     0.043 A 
ENDROOT
BRANCH   6   8
HETATM    8  C   UNK N   1      35.694  13.466   8.987  0.00  0.00     0.256 C 
HETATM    9  N   UNK N   1      34.551  14.154   8.783  0.00  0.00    -0.322 N 
HETATM   10  H   UNK N   1      33.767  13.846   9.294  0.00  0.00     0.169 HD
HETATM   11  O   UNK N   1      36.724  13.755   8.386  0.00  0.00    -0.267 OA
BRANCH   9  12
HETATM   12  C   UNK N   1      34.332  15.264   7.927  0.00  0.00     0.051 A 
HETATM   13  C   UNK N   1      34.448  16.569   8.457  0.00  0.00     0.064 A 
HETATM   14  C   UNK N   1      34.203  17.670   7.623  0.00  0.00     0.020 A 
HETATM   15  C   UNK N   1      33.865  17.487   6.280  0.00  0.00     0.001 A 
HETATM   16  C   UNK N   1      33.766  16.199   5.755  0.00  0.00     0.002 A 
HETATM   17  C   UNK N   1      33.993  15.092   6.573  0.00  0.00     0.030 A 
BRANCH  13  18
HETATM   18  C   UNK N   1      34.826  16.810   9.880  0.00  0.00     0.178 C 
HETATM   19  O   UNK N   1      35.597  17.712  10.162  0.00  0.00    -0.646 OA
BRANCH  18  20
HETATM   20  O   UNK N   1      34.342  16.034  10.872  0.00  0.00    -0.773 OA
HETATM   21  H   UNK N   1      34.932  15.586  11.448  0.00  0.00     0.167 HD
ENDBRANCH  18  20
ENDBRANCH  13  18
ENDBRANCH   9  12
ENDBRANCH   6   8
BRANCH   1  22
HETATM   22  S   UNK N   1      35.992  12.083  14.090  0.00  0.00     0.245 S 
HETATM   23  O   UNK N   1      34.606  12.738  13.980  0.00  0.00    -0.206 OA
HETATM   24  O   UNK N   1      36.780  13.164  13.323  0.00  0.00    -0.206 OA
BRANCH  22  25
HETATM   25  N   UNK N   1      36.358  13.178  15.488  0.00  0.00    -0.207 NA
BRANCH  25  26
HETATM   26  C   UNK N   1      35.281  13.381  16.474  0.00  0.00     0.103 C 
HETATM   27  C   UNK N   1      35.286  12.273  17.511  0.00  0.00     0.021 C 
ENDBRANCH  25  26
BRANCH  25  28
HETATM   28  C   UNK N   1      36.827  14.479  15.028  0.00  0.00     0.103 C 
HETATM   29  C   UNK N   1      37.296  15.310  16.207  0.00  0.00     0.021 C 
ENDBRANCH  25  28
ENDBRANCH  22  25
ENDBRANCH   1  22
TORSDOF 8
ENDMDL
MODEL 5
REMARK VINA RESULT:      -6.6     11.775     14.700
REMARK  8 active torsions:
REMARK  status: ('A' for Active; 'I' for Inactive)
REMARK    1  A    between atoms: S_1  and  C_9 
REMARK    2  A    between atoms: N_4  and  S_1 
REMARK    3  A    between atoms: N_4  and  C_7 
REMARK    4  A    between atoms: C_5  and  N_4 
REMARK    5  A    between atoms: C_15  and  C_14 
REMARK       I    between atoms: C_15  and  N_17 
REMARK    6  A    between atoms: C_18  and  N_17 
REMARK    7  A    between atoms: C_23  and  C_24 
REMARK    8  A    between atoms: C_24  and  O_26 
ROOT
HETATM    1  C   UNK N   1      30.854  21.851  -4.628  0.00  0.00     0.093 A 
HETATM    2  C   UNK N   1      31.655  21.793  -3.467  0.00  0.00     0.033 A 
HETATM    3 Br   UNK N   1      33.318  20.849  -3.430  0.00  0.00    -0.049 Br
HETATM    4  C   UNK N   1      31.251  22.461  -2.307  0.00  0.00     0.021 A 
HETATM    5  C   UNK N   1      30.068  23.202  -2.292  0.00  0.00     0.018 A 
HETATM    6  C   UNK N   1      29.263  23.272  -3.437  0.00  0.00     0.033 A 
HETATM    7  C   UNK N   1      29.657  22.603  -4.584  0.00  0.00     0.043 A 
ENDROOT
BRANCH   6   8
HETATM    8  C   UNK N   1      28.047  24.097  -3.443  0.00  0.00     0.256 C 
HETATM    9  N   UNK N   1      27.968  25.122  -4.319  0.00  0.00    -0.322 N 
HETATM   10  H   UNK N   1      28.768  25.276  -4.872  0.00  0.00     0.169 HD
HETATM   11  O   UNK N   1      27.114  23.832  -2.691  0.00  0.00    -0.267 OA
BRANCH   9  12
HETATM   12  C   UNK N   1      26.882  26.007  -4.543  0.00  0.00     0.051 A 
HETATM   13  C   UNK N   1      26.011  25.757  -5.628  0.00  0.00     0.064 A 
HETATM   14  C   UNK N   1      24.953  26.645  -5.873  0.00  0.00     0.020 A 
HETATM   15  C   UNK N   1      24.746  27.754  -5.050  0.00  0.00     0.001 A 
HETATM   16  C   UNK N   1      25.598  27.990  -3.971  0.00  0.00     0.002 A 
HETATM   17  C   UNK N   1      26.663  27.125  -3.720  0.00  0.00     0.030 A 
BRANCH  13  18
HETATM   18  C   UNK N   1      26.184  24.574  -6.521  0.00  0.00     0.178 C 
HETATM   19  O   UNK N   1      27.146  24.511  -7.269  0.00  0.00    -0.646 OA
BRANCH  18  20
HETATM   20  O   UNK N   1      25.282  23.571  -6.533  0.00  0.00    -0.773 OA
HETATM   21  H   UNK N   1      24.688  23.466  -5.815  0.00  0.00     0.167 HD
ENDBRANCH  18  20
ENDBRANCH  13  18
ENDBRANCH   9  12
ENDBRANCH   6   8
BRANCH   1  22
HETATM   22  S   UNK N   1      31.401  21.053  -6.186  0.00  0.00     0.245 S 
HETATM   23  O   UNK N   1      31.210  22.421  -6.861  0.00  0.00    -0.206 OA
HETATM   24  O   UNK N   1      29.907  20.703  -6.031  0.00  0.00    -0.206 OA
BRANCH  22  25
HETATM   25  N   UNK N   1      31.149  20.265  -7.800  0.00  0.00    -0.207 NA
BRANCH  25  26
HETATM   26  C   UNK N   1      29.877  19.548  -7.998  0.00  0.00     0.103 C 
HETATM   27  C   UNK N   1      30.090  18.292  -8.825  0.00  0.00     0.021 C 
ENDBRANCH  25  26
BRANCH  25  28
HETATM   28  C   UNK N   1      32.251  19.368  -8.126  0.00  0.00     0.103 C 
HETATM   29  C   UNK N   1      33.425  19.630  -7.203  0.00  0.00     0.021 C 
ENDBRANCH  25  28
ENDBRANCH  22  25
ENDBRANCH   1  22
TORSDOF 8
ENDMDL
MODEL 6
REMARK VINA RESULT:      -6.5     10.408     14.281
REMARK  8 active torsions:
REMARK  status: ('A' for Active; 'I' for Inactive)
REMARK    1  A    between atoms: S_1  and  C_9 
REMARK    2  A    between atoms: N_4  and  S_1 
REMARK    3  A    between atoms: N_4  and  C_7 
REMARK    4  A    between atoms: C_5  and  N_4 
REMARK    5  A    between atoms: C_15  and  C_14 
REMARK       I    between atoms: C_15  and  N_17 
REMARK    6  A    between atoms: C_18  and  N_17 
REMARK    7  A    between atoms: C_23  and  C_24 
REMARK    8  A    between atoms: C_24  and  O_26 
ROOT
HETATM    1  C   UNK N   1      36.037  14.079  10.652  0.00  0.00     0.093 A 
HETATM    2  C   UNK N   1      37.260  13.453  10.326  0.00  0.00     0.033 A 
HETATM    3 Br   UNK N   1      38.169  13.801   8.679  0.00  0.00    -0.049 Br
HETATM    4  C   UNK N   1      37.855  12.570  11.233  0.00  0.00     0.021 A 
HETATM    5  C   UNK N   1      37.258  12.314  12.468  0.00  0.00     0.018 A 
HETATM    6  C   UNK N   1      36.045  12.929  12.808  0.00  0.00     0.033 A 
HETATM    7  C   UNK N   1      35.450  13.797  11.907  0.00  0.00     0.043 A 
ENDROOT
BRANCH   6   8
HETATM    8  C   UNK N   1      35.442  12.707  14.130  0.00  0.00     0.256 C 
HETATM    9  N   UNK N   1      36.253  12.659  15.208  0.00  0.00    -0.322 N 
HETATM   10  H   UNK N   1      37.218  12.732  15.023  0.00  0.00     0.169 HD
HETATM   11  O   UNK N   1      34.225  12.606  14.246  0.00  0.00    -0.267 OA
BRANCH   9  12
HETATM   12  C   UNK N   1      35.895  12.516  16.574  0.00  0.00     0.051 A 
HETATM   13  C   UNK N   1      35.942  11.232  17.162  0.00  0.00     0.064 A 
HETATM   14  C   UNK N   1      35.560  11.080  18.503  0.00  0.00     0.020 A 
HETATM   15  C   UNK N   1      35.154  12.182  19.259  0.00  0.00     0.001 A 
HETATM   16  C   UNK N   1      35.123  13.451  18.681  0.00  0.00     0.002 A 
HETATM   17  C   UNK N   1      35.487  13.619  17.344  0.00  0.00     0.030 A 
BRANCH  13  18
HETATM   18  C   UNK N   1      36.388  10.031  16.396  0.00  0.00     0.178 C 
HETATM   19  O   UNK N   1      35.776   8.981  16.499  0.00  0.00    -0.646 OA
BRANCH  18  20
HETATM   20  O   UNK N   1      37.475  10.076  15.598  0.00  0.00    -0.773 OA
HETATM   21  H   UNK N   1      37.904   9.282  15.345  0.00  0.00     0.167 HD
ENDBRANCH  18  20
ENDBRANCH  13  18
ENDBRANCH   9  12
ENDBRANCH   6   8
BRANCH   1  22
HETATM   22  S   UNK N   1      35.278  15.303   9.517  0.00  0.00     0.245 S 
HETATM   23  O   UNK N   1      35.955  16.391  10.366  0.00  0.00    -0.206 OA
HETATM   24  O   UNK N   1      34.178  14.923  10.530  0.00  0.00    -0.206 OA
BRANCH  22  25
HETATM   25  N   UNK N   1      34.031  16.522   9.018  0.00  0.00    -0.207 NA
BRANCH  25  26
HETATM   26  C   UNK N   1      32.628  16.071   9.006  0.00  0.00     0.103 C 
HETATM   27  C   UNK N   1      31.721  17.150   8.443  0.00  0.00     0.021 C 
ENDBRANCH  25  26
BRANCH  25  28
HETATM   28  C   UNK N   1      34.351  17.101   7.720  0.00  0.00     0.103 C 
HETATM   29  C   UNK N   1      34.774  16.013   6.754  0.00  0.00     0.021 C 
ENDBRANCH  25  28
ENDBRANCH  22  25
ENDBRANCH   1  22
TORSDOF 8
ENDMDL
MODEL 7
REMARK VINA RESULT:      -6.4      7.418     11.568
REMARK  8 active torsions:
REMARK  status: ('A' for Active; 'I' for Inactive)
REMARK    1  A    between atoms: S_1  and  C_9 
REMARK    2  A    between atoms: N_4  and  S_1 
REMARK    3  A    between atoms: N_4  and  C_7 
REMARK    4  A    between atoms: C_5  and  N_4 
REMARK    5  A    between atoms: C_15  and  C_14 
REMARK       I    between atoms: C_15  and  N_17 
REMARK    6  A    between atoms: C_18  and  N_17 
REMARK    7  A    between atoms: C_23  and  C_24 
REMARK    8  A    between atoms: C_24  and  O_26 
ROOT
HETATM    1  C   UNK N   1      35.289  14.283  10.266  0.00  0.00     0.093 A 
HETATM    2  C   UNK N   1      36.103  13.900   9.178  0.00  0.00     0.033 A 
HETATM    3 Br   UNK N   1      37.449  12.552   9.344  0.00  0.00    -0.049 Br
HETATM    4  C   UNK N   1      35.917  14.494   7.925  0.00  0.00     0.021 A 
HETATM    5  C   UNK N   1      34.920  15.452   7.736  0.00  0.00     0.018 A 
HETATM    6  C   UNK N   1      34.101  15.841   8.805  0.00  0.00     0.033 A 
HETATM    7  C   UNK N   1      34.289  15.260  10.049  0.00  0.00     0.043 A 
ENDROOT
BRANCH   6   8
HETATM    8  C   UNK N   1      33.012  16.806   8.597  0.00  0.00     0.256 C 
HETATM    9  N   UNK N   1      31.748  16.341   8.506  0.00  0.00    -0.322 N 
HETATM   10  H   UNK N   1      31.647  15.362   8.541  0.00  0.00     0.169 HD
HETATM   11  O   UNK N   1      33.252  18.008   8.545  0.00  0.00    -0.267 OA
BRANCH   9  12
HETATM   12  C   UNK N   1      30.546  17.082   8.367  0.00  0.00     0.051 A 
HETATM   13  C   UNK N   1      30.018  17.290   7.072  0.00  0.00     0.064 A 
HETATM   14  C   UNK N   1      28.847  18.047   6.926  0.00  0.00     0.020 A 
HETATM   15  C   UNK N   1      28.194  18.577   8.041  0.00  0.00     0.001 A 
HETATM   16  C   UNK N   1      28.708  18.357   9.320  0.00  0.00     0.002 A 
HETATM   17  C   UNK N   1      29.879  17.617   9.483  0.00  0.00     0.030 A 
BRANCH  13  18
HETATM   18  C   UNK N   1      30.673  16.727   5.855  0.00  0.00     0.178 C 
HETATM   19  O   UNK N   1      30.935  17.455   4.912  0.00  0.00    -0.646 OA
BRANCH  18  20
HETATM   20  O   UNK N   1      30.968  15.414   5.766  0.00  0.00    -0.773 OA
HETATM   21  H   UNK N   1      31.064  14.901   6.545  0.00  0.00     0.167 HD
ENDBRANCH  18  20
ENDBRANCH  13  18
ENDBRANCH   9  12
ENDBRANCH   6   8
BRANCH   1  22
HETATM   22  S   UNK N   1      35.455  13.461  11.897  0.00  0.00     0.245 S 
HETATM   23  O   UNK N   1      34.717  12.262  11.279  0.00  0.00    -0.206 OA
HETATM   24  O   UNK N   1      34.237  14.400  12.016  0.00  0.00    -0.206 OA
BRANCH  22  25
HETATM   25  N   UNK N   1      34.875  12.929  13.530  0.00  0.00    -0.207 NA
BRANCH  25  26
HETATM   26  C   UNK N   1      35.671  13.362  14.692  0.00  0.00     0.103 C 
HETATM   27  C   UNK N   1      36.997  12.625  14.741  0.00  0.00     0.021 C 
ENDBRANCH  25  26
BRANCH  25  28
HETATM   28  C   UNK N   1      34.710  11.482  13.585  0.00  0.00     0.103 C 
HETATM   29  C   UNK N   1      33.665  11.116  14.621  0.00  0.00     0.021 C 
ENDBRANCH  25  28
ENDBRANCH  22  25
ENDBRANCH   1  22
TORSDOF 8
ENDMDL
MODEL 8
REMARK VINA RESULT:      -6.4      2.350      2.488
REMARK  8 active torsions:
REMARK  status: ('A' for Active; 'I' for Inactive)
REMARK    1  A    between atoms: S_1  and  C_9 
REMARK    2  A    between atoms: N_4  and  S_1 
REMARK    3  A    between atoms: N_4  and  C_7 
REMARK    4  A    between atoms: C_5  and  N_4 
REMARK    5  A    between atoms: C_15  and  C_14 
REMARK       I    between atoms: C_15  and  N_17 
REMARK    6  A    between atoms: C_18  and  N_17 
REMARK    7  A    between atoms: C_23  and  C_24 
REMARK    8  A    between atoms: C_24  and  O_26 
ROOT
HETATM    1  C   UNK N   1      24.461  15.691   4.757  0.00  0.00     0.093 A 
HETATM    2  C   UNK N   1      24.511  15.514   3.358  0.00  0.00     0.033 A 
HETATM    3 Br   UNK N   1      23.045  14.774   2.377  0.00  0.00    -0.049 Br
HETATM    4  C   UNK N   1      25.647  15.911   2.644  0.00  0.00     0.021 A 
HETATM    5  C   UNK N   1      26.728  16.497   3.304  0.00  0.00     0.018 A 
HETATM    6  C   UNK N   1      26.694  16.682   4.693  0.00  0.00     0.033 A 
HETATM    7  C   UNK N   1      25.573  16.282   5.402  0.00  0.00     0.043 A 
ENDROOT
BRANCH   6   8
HETATM    8  C   UNK N   1      27.805  17.351   5.383  0.00  0.00     0.256 C 
HETATM    9  N   UNK N   1      28.522  16.648   6.286  0.00  0.00    -0.322 N 
HETATM   10  H   UNK N   1      28.213  15.728   6.455  0.00  0.00     0.169 HD
HETATM   11  O   UNK N   1      28.091  18.514   5.113  0.00  0.00    -0.267 OA
BRANCH   9  12
HETATM   12  C   UNK N   1      29.661  17.063   7.022  0.00  0.00     0.051 A 
HETATM   13  C   UNK N   1      29.474  17.686   8.276  0.00  0.00     0.064 A 
HETATM   14  C   UNK N   1      30.596  18.126   8.995  0.00  0.00     0.020 A 
HETATM   15  C   UNK N   1      31.885  17.938   8.492  0.00  0.00     0.001 A 
HETATM   16  C   UNK N   1      32.068  17.308   7.260  0.00  0.00     0.002 A 
HETATM   17  C   UNK N   1      30.964  16.876   6.526  0.00  0.00     0.030 A 
BRANCH  13  18
HETATM   18  C   UNK N   1      28.116  17.890   8.859  0.00  0.00     0.178 C 
HETATM   19  O   UNK N   1      27.558  16.974   9.439  0.00  0.00    -0.646 OA
BRANCH  18  20
HETATM   20  O   UNK N   1      27.477  19.073   8.743  0.00  0.00    -0.773 OA
HETATM   21  H   UNK N   1      26.754  19.273   9.306  0.00  0.00     0.167 HD
ENDBRANCH  18  20
ENDBRANCH  13  18
ENDBRANCH   9  12
ENDBRANCH   6   8
BRANCH   1  22
HETATM   22  S   UNK N   1      22.953  15.256   5.705  0.00  0.00     0.245 S 
HETATM   23  O   UNK N   1      22.594  16.750   5.666  0.00  0.00    -0.206 OA
HETATM   24  O   UNK N   1      24.092  15.356   6.741  0.00  0.00    -0.206 OA
BRANCH  22  25
HETATM   25  N   UNK N   1      21.952  15.094   7.209  0.00  0.00    -0.207 NA
BRANCH  25  26
HETATM   26  C   UNK N   1      21.019  13.955   7.267  0.00  0.00     0.103 C 
HETATM   27  C   UNK N   1      21.699  12.730   7.853  0.00  0.00     0.021 C 
ENDBRANCH  25  26
BRANCH  25  28
HETATM   28  C   UNK N   1      21.217  16.321   7.487  0.00  0.00     0.103 C 
HETATM   29  C   UNK N   1      20.379  16.152   8.739  0.00  0.00     0.021 C 
ENDBRANCH  25  28
ENDBRANCH  22  25
ENDBRANCH   1  22
TORSDOF 8
ENDMDL
MODEL 9
REMARK VINA RESULT:      -6.3      8.498     11.962
REMARK  8 active torsions:
REMARK  status: ('A' for Active; 'I' for Inactive)
REMARK    1  A    between atoms: S_1  and  C_9 
REMARK    2  A    between atoms: N_4  and  S_1 
REMARK    3  A    between atoms: N_4  and  C_7 
REMARK    4  A    between atoms: C_5  and  N_4 
REMARK    5  A    between atoms: C_15  and  C_14 
REMARK       I    between atoms: C_15  and  N_17 
REMARK    6  A    between atoms: C_18  and  N_17 
REMARK    7  A    between atoms: C_23  and  C_24 
REMARK    8  A    between atoms: C_24  and  O_26 
ROOT
HETATM    1  C   UNK N   1      33.963  15.289   9.161  0.00  0.00     0.093 A 
HETATM    2  C   UNK N   1      34.575  16.540   9.395  0.00  0.00     0.033 A 
HETATM    3 Br   UNK N   1      34.229  18.060   8.288  0.00  0.00    -0.049 Br
HETATM    4  C   UNK N   1      35.441  16.700  10.482  0.00  0.00     0.021 A 
HETATM    5  C   UNK N   1      35.695  15.635  11.348  0.00  0.00     0.018 A 
HETATM    6  C   UNK N   1      35.094  14.388  11.131  0.00  0.00     0.033 A 
HETATM    7  C   UNK N   1      34.242  14.226  10.051  0.00  0.00     0.043 A 
ENDROOT
BRANCH   6   8
HETATM    8  C   UNK N   1      35.312  13.281  12.073  0.00  0.00     0.256 C 
HETATM    9  N   UNK N   1      34.863  13.415  13.340  0.00  0.00    -0.322 N 
HETATM   10  H   UNK N   1      34.452  14.283  13.559  0.00  0.00     0.169 HD
HETATM   11  O   UNK N   1      35.859  12.249  11.700  0.00  0.00    -0.267 OA
BRANCH   9  12
HETATM   12  C   UNK N   1      34.907  12.467  14.394  0.00  0.00     0.051 A 
HETATM   13  C   UNK N   1      35.743  12.720  15.505  0.00  0.00     0.064 A 
HETATM   14  C   UNK N   1      35.814  11.772  16.537  0.00  0.00     0.020 A 
HETATM   15  C   UNK N   1      35.058  10.599  16.482  0.00  0.00     0.001 A 
HETATM   16  C   UNK N   1      34.221  10.359  15.392  0.00  0.00     0.002 A 
HETATM   17  C   UNK N   1      34.148  11.285  14.351  0.00  0.00     0.030 A 
BRANCH  13  18
HETATM   18  C   UNK N   1      36.554  13.968  15.613  0.00  0.00     0.178 C 
HETATM   19  O   UNK N   1      36.563  14.601  16.656  0.00  0.00    -0.646 OA
BRANCH  18  20
HETATM   20  O   UNK N   1      37.271  14.427  14.567  0.00  0.00    -0.773 OA
HETATM   21  H   UNK N   1      36.835  14.698  13.782  0.00  0.00     0.167 HD
ENDBRANCH  18  20
ENDBRANCH  13  18
ENDBRANCH   9  12
ENDBRANCH   6   8
BRANCH   1  22
HETATM   22  S   UNK N   1      32.759  15.075   7.794  0.00  0.00     0.245 S 
HETATM   23  O   UNK N   1      32.291  13.799   8.513  0.00  0.00    -0.206 OA
HETATM   24  O   UNK N   1      34.101  14.522   7.270  0.00  0.00    -0.206 OA
BRANCH  22  25
HETATM   25  N   UNK N   1      32.159  14.371   6.234  0.00  0.00    -0.207 NA
BRANCH  25  26
HETATM   26  C   UNK N   1      33.037  14.513   5.059  0.00  0.00     0.103 C 
HETATM   27  C   UNK N   1      32.351  13.995   3.808  0.00  0.00     0.021 C 
ENDBRANCH  25  26
BRANCH  25  28
HETATM   28  C   UNK N   1      30.837  14.884   5.899  0.00  0.00     0.103 C 
HETATM   29  C   UNK N   1      30.733  16.346   6.286  0.00  0.00     0.021 C 
ENDBRANCH  25  28
ENDBRANCH  22  25
ENDBRANCH   1  22
TORSDOF 8
ENDMDL
