REMARK  8 active torsions:
REMARK  status: ('A' for Active; 'I' for Inactive)
REMARK    1  A    between atoms: S_1  and  C_9 
REMARK    2  A    between atoms: N_4  and  S_1 
REMARK    3  A    between atoms: N_4  and  C_7 
REMARK    4  A    between atoms: C_5  and  N_4 
REMARK    5  A    between atoms: C_15  and  C_14 
REMARK       I    between atoms: C_15  and  N_17 
REMARK    6  A    between atoms: C_18  and  N_17 
REMARK    7  A    between atoms: C_23  and  C_24 
REMARK    8  A    between atoms: C_24  and  O_26 
ROOT
HETATM    1  C   UNK N   1       1.943   0.723  -0.043  0.00  0.00     0.093 A 
HETATM    2  C   UNK N   1       3.110  -0.070  -0.092  0.00  0.00     0.033 A 
HETATM    3 Br   UNK N   1       4.860   0.696  -0.005  0.00  0.00    -0.049 Br
HETATM    4  C   UNK N   1       3.004  -1.462  -0.179  0.00  0.00     0.021 A 
HETATM    5  C   UNK N   1       1.751  -2.077  -0.201  0.00  0.00     0.018 A 
HETATM    6  C   UNK N   1       0.583  -1.304  -0.151  0.00  0.00     0.033 A 
HETATM    7  C   UNK N   1       0.686   0.075  -0.073  0.00  0.00     0.043 A 
ENDROOT
BRANCH   6   8
HETATM    8  C   UNK N   1      -0.737  -1.950  -0.115  0.00  0.00     0.256 C 
HETATM    9  N   UNK N   1      -0.794  -3.294  -0.000  0.00  0.00    -0.322 N 
HETATM   10  H   UNK N   1       0.073  -3.761   0.006  0.00  0.00     0.169 HD
HETATM   11  O   UNK N   1      -1.759  -1.272  -0.153  0.00  0.00    -0.267 OA
BRANCH   9  12
HETATM   12  C   UNK N   1      -1.942  -4.120   0.113  0.00  0.00     0.051 A 
HETATM   13  C   UNK N   1      -1.772  -5.522   0.167  0.00  0.00     0.064 A 
HETATM   14  C   UNK N   1      -2.905  -6.345   0.248  0.00  0.00     0.020 A 
HETATM   15  C   UNK N   1      -4.187  -5.793   0.293  0.00  0.00     0.001 A 
HETATM   16  C   UNK N   1      -4.352  -4.408   0.255  0.00  0.00     0.002 A 
HETATM   17  C   UNK N   1      -3.237  -3.575   0.161  0.00  0.00     0.030 A 
BRANCH  13  18
HETATM   18  C   UNK N   1      -0.420  -6.153   0.141  0.00  0.00     0.178 C 
HETATM   19  O   UNK N   1      -0.315  -7.367   0.088  0.00  0.00    -0.646 OA
BRANCH  18  20
HETATM   20  O   UNK N   1       0.701  -5.404   0.193  0.00  0.00    -0.773 OA
HETATM   21  H   UNK N   1       1.541  -5.819   0.230  0.00  0.00     0.167 HD
ENDBRANCH  18  20
ENDBRANCH  13  18
ENDBRANCH   9  12
ENDBRANCH   6   8
BRANCH   1  22
HETATM   22  S   UNK N   1       2.053   2.543   0.155  0.00  0.00     0.245 S 
HETATM   23  O   UNK N   1       0.780   2.447   1.011  0.00  0.00    -0.206 OA
HETATM   24  O   UNK N   1       1.385   2.304  -1.215  0.00  0.00    -0.206 OA
BRANCH  22  25
HETATM   25  N   UNK N   1       1.621   4.262  -0.228  0.00  0.00    -0.207 NA
BRANCH  25  26
HETATM   26  C   UNK N   1       0.223   4.527  -0.611  0.00  0.00     0.103 C 
HETATM   27  C   UNK N   1      -0.609   4.890   0.606  0.00  0.00     0.021 C 
ENDBRANCH  25  26
BRANCH  25  28
HETATM   28  C   UNK N   1       2.502   4.811  -1.251  0.00  0.00     0.103 C 
HETATM   29  C   UNK N   1       3.863   5.116  -0.657  0.00  0.00     0.021 C 
ENDBRANCH  25  28
ENDBRANCH  22  25
ENDBRANCH   1  22
TORSDOF 8
