MODEL 1
REMARK VINA RESULT:      -8.5      0.000      0.000
REMARK  1 active torsions:
REMARK  status: ('A' for Active; 'I' for Inactive)
REMARK    1  A    between atoms: C_10  and  C_14 
ROOT
HETATM    1  C   UNK N   1      28.799  17.525   4.607  0.00  0.00     0.017 A 
HETATM    2  C   UNK N   1      28.383  18.617   8.131  0.00  0.00     0.032 A 
HETATM    3  C   UNK N   1      29.600  18.199   8.699  0.00  0.00     0.022 A 
HETATM    4  C   UNK N   1      27.606  17.978   4.069  0.00  0.00     0.031 A 
HETATM    5  C   UNK N   1      29.075  17.726   5.956  0.00  0.00     0.004 A 
HETATM    6  C   UNK N   1      30.283  17.300   6.532  0.00  0.00     0.021 A 
HETATM    7  C   UNK N   1      28.118  18.392   6.765  0.00  0.00     0.043 A 
HETATM    8  C   UNK N   1      31.347  16.589   5.888  0.00  0.00     0.063 A 
HETATM    9  C   UNK N   1      30.522  17.553   7.879  0.00  0.00     0.019 A 
HETATM   10  C   UNK N   1      26.672  18.629   4.883  0.00  0.00     0.044 A 
HETATM   11  C   UNK N   1      32.439  16.327   6.746  0.00  0.00     0.100 A 
HETATM   12  C   UNK N   1      33.727  15.632   6.480  0.00  0.00     0.261 C 
HETATM   13  C   UNK N   1      32.039  15.103   3.983  0.00  0.00     0.144 C 
HETATM   14  C   UNK N   1      33.500  15.469   3.976  0.00  0.00     0.098 C 
HETATM   15  C   UNK N   1      34.182  14.609   2.932  0.00  0.00     0.034 C 
HETATM   16  N   UNK N   1      26.945  18.818   6.210  0.00  0.00    -0.355 N 
ATOM     17  HN  UNK N   1      26.257  19.288   6.798  1.00  0.00     0.166 HD
HETATM   18  N   UNK N   1      31.247  16.162   4.543  0.00  0.00    -0.386 N 
HETATM   19  N   UNK N   1      34.128  15.207   5.251  0.00  0.00    -0.351 N 
HETATM   20  O   UNK N   1      34.469  15.422   7.428  0.00  0.00    -0.267 OA
HETATM   21  S   UNK N   1      32.016  16.944   8.245  0.00  0.00    -0.082 SA
HETATM   22  H   UNK N   1      30.598  16.617   3.959  0.00  0.00     0.159 HD
HETATM   23  H   UNK N   1      34.943  14.655   5.228  0.00  0.00     0.163 HD
ENDROOT
BRANCH  10  24
HETATM   24  C   UNK N   1      25.407  19.106   4.286  0.00  0.00     0.006 A 
HETATM   25  C   UNK N   1      25.415  20.191   3.395  0.00  0.00     0.017 A 
HETATM   26  C   UNK N   1      24.228  20.646   2.830  0.00  0.00     0.025 A 
HETATM   27  C   UNK N   1      23.032  20.008   3.157  0.00  0.00     0.005 A 
HETATM   28  C   UNK N   1      21.759  20.483   2.556  0.00  0.00     0.068 C 
HETATM   29  N   UNK N   1      23.032  18.956   4.021  0.00  0.00    -0.369 N 
HETATM   30  C   UNK N   1      24.183  18.497   4.588  0.00  0.00     0.101 A 
ATOM     31  HN  UNK N   1      22.148  18.500   4.250  1.00  0.00     0.165 HD
ENDBRANCH  10  24
TORSDOF 1
ENDMDL
MODEL 2
REMARK VINA RESULT:      -8.1      4.589      9.554
REMARK  1 active torsions:
REMARK  status: ('A' for Active; 'I' for Inactive)
REMARK    1  A    between atoms: C_10  and  C_14 
ROOT
HETATM    1  C   UNK N   1      24.969  17.221   4.957  0.00  0.00     0.017 A 
HETATM    2  C   UNK N   1      25.506  20.552   3.407  0.00  0.00     0.032 A 
HETATM    3  C   UNK N   1      24.211  20.859   2.949  0.00  0.00     0.022 A 
HETATM    4  C   UNK N   1      26.246  16.961   5.425  0.00  0.00     0.031 A 
HETATM    5  C   UNK N   1      24.704  18.408   4.282  0.00  0.00     0.004 A 
HETATM    6  C   UNK N   1      23.417  18.716   3.811  0.00  0.00     0.021 A 
HETATM    7  C   UNK N   1      25.756  19.337   4.078  0.00  0.00     0.043 A 
HETATM    8  C   UNK N   1      22.245  17.895   3.894  0.00  0.00     0.063 A 
HETATM    9  C   UNK N   1      23.197  19.929   3.169  0.00  0.00     0.019 A 
HETATM   10  C   UNK N   1      27.274  17.888   5.211  0.00  0.00     0.044 A 
HETATM   11  C   UNK N   1      21.097  18.508   3.342  0.00  0.00     0.100 A 
HETATM   12  C   UNK N   1      19.699  18.012   3.232  0.00  0.00     0.261 C 
HETATM   13  C   UNK N   1      21.308  15.577   4.153  0.00  0.00     0.144 C 
HETATM   14  C   UNK N   1      19.959  15.975   4.692  0.00  0.00     0.098 C 
HETATM   15  C   UNK N   1      19.140  14.710   4.855  0.00  0.00     0.034 C 
HETATM   16  N   UNK N   1      27.009  19.051   4.541  0.00  0.00    -0.355 N 
ATOM     17  HN  UNK N   1      27.764  19.718   4.384  1.00  0.00     0.166 HD
HETATM   18  N   UNK N   1      22.290  16.587   4.431  0.00  0.00    -0.386 N 
HETATM   19  N   UNK N   1      19.253  16.852   3.785  0.00  0.00    -0.351 N 
HETATM   20  O   UNK N   1      18.902  18.686   2.596  0.00  0.00    -0.267 OA
HETATM   21  S   UNK N   1      21.597  19.994   2.750  0.00  0.00    -0.082 SA
HETATM   22  H   UNK N   1      23.038  16.357   5.029  0.00  0.00     0.159 HD
HETATM   23  H   UNK N   1      18.341  16.576   3.540  0.00  0.00     0.163 HD
ENDROOT
BRANCH  10  24
HETATM   24  C   UNK N   1      28.628  17.591   5.723  0.00  0.00     0.006 A 
HETATM   25  C   UNK N   1      28.841  17.440   7.101  0.00  0.00     0.017 A 
HETATM   26  C   UNK N   1      30.113  17.161   7.590  0.00  0.00     0.025 A 
HETATM   27  C   UNK N   1      31.172  17.030   6.693  0.00  0.00     0.005 A 
HETATM   28  C   UNK N   1      32.534  16.728   7.203  0.00  0.00     0.068 C 
HETATM   29  N   UNK N   1      30.958  17.177   5.356  0.00  0.00    -0.369 N 
HETATM   30  C   UNK N   1      29.721  17.453   4.857  0.00  0.00     0.101 A 
ATOM     31  HN  UNK N   1      31.743  17.077   4.713  1.00  0.00     0.165 HD
ENDBRANCH  10  24
TORSDOF 1
ENDMDL
MODEL 3
REMARK VINA RESULT:      -8.0      2.318      4.328
REMARK  1 active torsions:
REMARK  status: ('A' for Active; 'I' for Inactive)
REMARK    1  A    between atoms: C_10  and  C_14 
ROOT
HETATM    1  C   UNK N   1      31.022  16.871   6.337  0.00  0.00     0.017 A 
HETATM    2  C   UNK N   1      32.356  16.304   2.919  0.00  0.00     0.032 A 
HETATM    3  C   UNK N   1      33.569  15.646   3.198  0.00  0.00     0.022 A 
HETATM    4  C   UNK N   1      29.820  17.486   6.030  0.00  0.00     0.031 A 
HETATM    5  C   UNK N   1      31.879  16.472   5.317  0.00  0.00     0.004 A 
HETATM    6  C   UNK N   1      33.097  15.826   5.588  0.00  0.00     0.021 A 
HETATM    7  C   UNK N   1      31.507  16.710   3.968  0.00  0.00     0.043 A 
HETATM    8  C   UNK N   1      33.652  15.530   6.875  0.00  0.00     0.063 A 
HETATM    9  C   UNK N   1      33.904  15.421   4.531  0.00  0.00     0.019 A 
HETATM   10  C   UNK N   1      29.471  17.717   4.694  0.00  0.00     0.044 A 
HETATM   11  C   UNK N   1      34.889  14.850   6.803  0.00  0.00     0.100 A 
HETATM   12  C   UNK N   1      35.783  14.359   7.887  0.00  0.00     0.261 C 
HETATM   13  C   UNK N   1      33.703  16.081   9.327  0.00  0.00     0.144 C 
HETATM   14  C   UNK N   1      34.205  14.746   9.813  0.00  0.00     0.098 C 
HETATM   15  C   UNK N   1      34.411  14.853  11.310  0.00  0.00     0.034 C 
HETATM   16  N   UNK N   1      30.320  17.330   3.695  0.00  0.00    -0.355 N 
ATOM     17  HN  UNK N   1      30.062  17.507   2.725  1.00  0.00     0.166 HD
HETATM   18  N   UNK N   1      33.021  15.946   8.070  0.00  0.00    -0.386 N 
HETATM   19  N   UNK N   1      35.471  14.395   9.210  0.00  0.00    -0.351 N 
HETATM   20  O   UNK N   1      36.870  13.902   7.567  0.00  0.00    -0.267 OA
HETATM   21  S   UNK N   1      35.243  14.691   5.173  0.00  0.00    -0.082 SA
HETATM   22  H   UNK N   1      32.059  16.156   8.038  0.00  0.00     0.159 HD
HETATM   23  H   UNK N   1      36.194  14.152   9.833  0.00  0.00     0.163 HD
ENDROOT
BRANCH  10  24
HETATM   24  C   UNK N   1      28.181  18.373   4.391  0.00  0.00     0.006 A 
HETATM   25  C   UNK N   1      28.015  19.744   4.637  0.00  0.00     0.017 A 
HETATM   26  C   UNK N   1      26.803  20.367   4.356  0.00  0.00     0.025 A 
HETATM   27  C   UNK N   1      25.759  19.613   3.824  0.00  0.00     0.005 A 
HETATM   28  C   UNK N   1      24.462  20.269   3.515  0.00  0.00     0.068 C 
HETATM   29  N   UNK N   1      25.928  18.283   3.588  0.00  0.00    -0.369 N 
HETATM   30  C   UNK N   1      27.104  17.652   3.859  0.00  0.00     0.101 A 
ATOM     31  HN  UNK N   1      25.153  17.744   3.198  1.00  0.00     0.165 HD
ENDBRANCH  10  24
TORSDOF 1
ENDMDL
MODEL 4
REMARK VINA RESULT:      -8.0      3.877      6.668
REMARK  1 active torsions:
REMARK  status: ('A' for Active; 'I' for Inactive)
REMARK    1  A    between atoms: C_10  and  C_14 
ROOT
HETATM    1  C   UNK N   1      33.040  15.970   8.658  0.00  0.00     0.017 A 
HETATM    2  C   UNK N   1      34.459  15.148   5.326  0.00  0.00     0.032 A 
HETATM    3  C   UNK N   1      35.655  14.499   5.685  0.00  0.00     0.022 A 
HETATM    4  C   UNK N   1      31.855  16.575   8.275  0.00  0.00     0.031 A 
HETATM    5  C   UNK N   1      33.920  15.491   7.692  0.00  0.00     0.004 A 
HETATM    6  C   UNK N   1      35.121  14.853   8.042  0.00  0.00     0.021 A 
HETATM    7  C   UNK N   1      33.587  15.637   6.321  0.00  0.00     0.043 A 
HETATM    8  C   UNK N   1      35.638  14.643   9.362  0.00  0.00     0.063 A 
HETATM    9  C   UNK N   1      35.951  14.365   7.039  0.00  0.00     0.019 A 
HETATM   10  C   UNK N   1      31.545  16.714   6.917  0.00  0.00     0.044 A 
HETATM   11  C   UNK N   1      36.867  13.946   9.372  0.00  0.00     0.100 A 
HETATM   12  C   UNK N   1      37.726  13.524  10.512  0.00  0.00     0.261 C 
HETATM   13  C   UNK N   1      35.630  15.366  11.769  0.00  0.00     0.144 C 
HETATM   14  C   UNK N   1      36.102  14.064  12.362  0.00  0.00     0.098 C 
HETATM   15  C   UNK N   1      36.269  14.274  13.852  0.00  0.00     0.034 C 
HETATM   16  N   UNK N   1      32.416  16.248   5.972  0.00  0.00    -0.355 N 
ATOM     17  HN  UNK N   1      32.186  16.359   4.984  1.00  0.00     0.166 HD
HETATM   18  N   UNK N   1      34.980  15.150  10.506  0.00  0.00    -0.386 N 
HETATM   19  N   UNK N   1      37.379  13.657  11.821  0.00  0.00    -0.351 N 
HETATM   20  O   UNK N   1      38.815  13.034  10.255  0.00  0.00    -0.267 OA
HETATM   21  S   UNK N   1      37.263  13.669   7.768  0.00  0.00    -0.082 SA
HETATM   22  H   UNK N   1      34.023  15.367  10.433  0.00  0.00     0.159 HD
HETATM   23  H   UNK N   1      38.082  13.452  12.479  0.00  0.00     0.163 HD
ENDROOT
BRANCH  10  24
HETATM   24  C   UNK N   1      30.272  17.361   6.533  0.00  0.00     0.006 A 
HETATM   25  C   UNK N   1      29.415  17.867   7.522  0.00  0.00     0.017 A 
HETATM   26  C   UNK N   1      28.214  18.476   7.168  0.00  0.00     0.025 A 
HETATM   27  C   UNK N   1      27.877  18.578   5.819  0.00  0.00     0.005 A 
HETATM   28  C   UNK N   1      26.600  19.230   5.429  0.00  0.00     0.068 C 
HETATM   29  N   UNK N   1      28.714  18.084   4.865  0.00  0.00    -0.369 N 
HETATM   30  C   UNK N   1      29.892  17.482   5.190  0.00  0.00     0.101 A 
ATOM     31  HN  UNK N   1      28.452  18.168   3.882  1.00  0.00     0.165 HD
ENDBRANCH  10  24
TORSDOF 1
ENDMDL
MODEL 5
REMARK VINA RESULT:      -7.9      4.230      9.056
REMARK  1 active torsions:
REMARK  status: ('A' for Active; 'I' for Inactive)
REMARK    1  A    between atoms: C_10  and  C_14 
ROOT
HETATM    1  C   UNK N   1      26.237  17.206   5.189  0.00  0.00     0.017 A 
HETATM    2  C   UNK N   1      26.597  20.356   3.256  0.00  0.00     0.032 A 
HETATM    3  C   UNK N   1      25.257  20.638   2.930  0.00  0.00     0.022 A 
HETATM    4  C   UNK N   1      27.561  16.972   5.522  0.00  0.00     0.031 A 
HETATM    5  C   UNK N   1      25.897  18.324   4.434  0.00  0.00     0.004 A 
HETATM    6  C   UNK N   1      24.563  18.606   4.095  0.00  0.00     0.021 A 
HETATM    7  C   UNK N   1      26.921  19.210   4.011  0.00  0.00     0.043 A 
HETATM    8  C   UNK N   1      23.407  17.818   4.403  0.00  0.00     0.063 A 
HETATM    9  C   UNK N   1      24.273  19.753   3.365  0.00  0.00     0.019 A 
HETATM   10  C   UNK N   1      28.559  17.855   5.092  0.00  0.00     0.044 A 
HETATM   11  C   UNK N   1      22.203  18.393   3.935  0.00  0.00     0.100 A 
HETATM   12  C   UNK N   1      20.799  17.914   4.047  0.00  0.00     0.261 C 
HETATM   13  C   UNK N   1      22.496  15.555   5.008  0.00  0.00     0.144 C 
HETATM   14  C   UNK N   1      21.226  16.028   5.664  0.00  0.00     0.098 C 
HETATM   15  C   UNK N   1      20.427  14.801   6.052  0.00  0.00     0.034 C 
HETATM   16  N   UNK N   1      28.220  18.949   4.345  0.00  0.00    -0.355 N 
ATOM     17  HN  UNK N   1      28.953  19.584   4.030  1.00  0.00     0.166 HD
HETATM   18  N   UNK N   1      23.511  16.571   5.060  0.00  0.00    -0.386 N 
HETATM   19  N   UNK N   1      20.419  16.823   4.766  0.00  0.00    -0.351 N 
HETATM   20  O   UNK N   1      19.934  18.534   3.448  0.00  0.00    -0.267 OA
HETATM   21  S   UNK N   1      22.635  19.804   3.140  0.00  0.00    -0.082 SA
HETATM   22  H   UNK N   1      24.325  16.388   5.583  0.00  0.00     0.159 HD
HETATM   23  H   UNK N   1      19.482  16.540   4.662  0.00  0.00     0.163 HD
ENDROOT
BRANCH  10  24
HETATM   24  C   UNK N   1      29.965  17.586   5.462  0.00  0.00     0.006 A 
HETATM   25  C   UNK N   1      30.972  17.641   4.487  0.00  0.00     0.017 A 
HETATM   26  C   UNK N   1      32.296  17.387   4.829  0.00  0.00     0.025 A 
HETATM   27  C   UNK N   1      32.610  17.083   6.152  0.00  0.00     0.005 A 
HETATM   28  C   UNK N   1      34.022  16.815   6.530  0.00  0.00     0.068 C 
HETATM   29  N   UNK N   1      31.627  17.032   7.094  0.00  0.00    -0.369 N 
HETATM   30  C   UNK N   1      30.324  17.273   6.780  0.00  0.00     0.101 A 
ATOM     31  HN  UNK N   1      31.873  16.808   8.058  1.00  0.00     0.165 HD
ENDBRANCH  10  24
TORSDOF 1
ENDMDL
MODEL 6
REMARK VINA RESULT:      -7.9      7.656     12.691
REMARK  1 active torsions:
REMARK  status: ('A' for Active; 'I' for Inactive)
REMARK    1  A    between atoms: C_10  and  C_14 
ROOT
HETATM    1  C   UNK N   1      35.108  13.762  12.240  0.00  0.00     0.017 A 
HETATM    2  C   UNK N   1      38.026  11.760  11.115  0.00  0.00     0.032 A 
HETATM    3  C   UNK N   1      38.131  12.153   9.767  0.00  0.00     0.022 A 
HETATM    4  C   UNK N   1      35.050  13.381  13.571  0.00  0.00     0.031 A 
HETATM    5  C   UNK N   1      36.089  13.232  11.408  0.00  0.00     0.004 A 
HETATM    6  C   UNK N   1      36.192  13.610  10.059  0.00  0.00     0.021 A 
HETATM    7  C   UNK N   1      37.017  12.299  11.938  0.00  0.00     0.043 A 
HETATM    8  C   UNK N   1      35.334  14.507   9.342  0.00  0.00     0.063 A 
HETATM    9  C   UNK N   1      37.210  13.075   9.277  0.00  0.00     0.019 A 
HETATM   10  C   UNK N   1      35.971  12.456  14.076  0.00  0.00     0.044 A 
HETATM   11  C   UNK N   1      35.725  14.693   7.997  0.00  0.00     0.100 A 
HETATM   12  C   UNK N   1      35.123  15.533   6.926  0.00  0.00     0.261 C 
HETATM   13  C   UNK N   1      33.078  15.607   9.202  0.00  0.00     0.144 C 
HETATM   14  C   UNK N   1      33.496  16.796   8.378  0.00  0.00     0.098 C 
HETATM   15  C   UNK N   1      32.249  17.600   8.072  0.00  0.00     0.034 C 
HETATM   16  N   UNK N   1      36.929  11.934  13.252  0.00  0.00    -0.355 N 
ATOM     17  HN  UNK N   1      37.593  11.256  13.626  1.00  0.00     0.166 HD
HETATM   18  N   UNK N   1      34.190  15.080   9.944  0.00  0.00    -0.386 N 
HETATM   19  N   UNK N   1      34.093  16.399   7.122  0.00  0.00    -0.351 N 
HETATM   20  O   UNK N   1      35.578  15.431   5.797  0.00  0.00    -0.267 OA
HETATM   21  S   UNK N   1      37.067  13.719   7.759  0.00  0.00    -0.082 SA
HETATM   22  H   UNK N   1      34.154  15.120  10.927  0.00  0.00     0.159 HD
HETATM   23  H   UNK N   1      33.707  16.805   6.313  0.00  0.00     0.163 HD
ENDROOT
BRANCH  10  24
HETATM   24  C   UNK N   1      35.891  12.067  15.500  0.00  0.00     0.006 A 
HETATM   25  C   UNK N   1      35.283  12.925  16.430  0.00  0.00     0.017 A 
HETATM   26  C   UNK N   1      35.206  12.566  17.772  0.00  0.00     0.025 A 
HETATM   27  C   UNK N   1      35.737  11.343  18.180  0.00  0.00     0.005 A 
HETATM   28  C   UNK N   1      35.656  10.947  19.610  0.00  0.00     0.068 C 
HETATM   29  N   UNK N   1      36.325  10.516  17.272  0.00  0.00    -0.369 N 
HETATM   30  C   UNK N   1      36.414  10.850  15.954  0.00  0.00     0.101 A 
ATOM     31  HN  UNK N   1      36.709   9.625  17.586  1.00  0.00     0.165 HD
ENDBRANCH  10  24
TORSDOF 1
ENDMDL
MODEL 7
REMARK VINA RESULT:      -7.6      6.098     10.540
REMARK  1 active torsions:
REMARK  status: ('A' for Active; 'I' for Inactive)
REMARK    1  A    between atoms: C_10  and  C_14 
ROOT
HETATM    1  C   UNK N   1      33.630  12.587   8.988  0.00  0.00     0.017 A 
HETATM    2  C   UNK N   1      35.283  13.224  12.252  0.00  0.00     0.032 A 
HETATM    3  C   UNK N   1      35.568  14.599  12.157  0.00  0.00     0.022 A 
HETATM    4  C   UNK N   1      33.334  11.241   9.124  0.00  0.00     0.031 A 
HETATM    5  C   UNK N   1      34.280  13.263  10.016  0.00  0.00     0.004 A 
HETATM    6  C   UNK N   1      34.578  14.633   9.924  0.00  0.00     0.021 A 
HETATM    7  C   UNK N   1      34.636  12.555  11.193  0.00  0.00     0.043 A 
HETATM    8  C   UNK N   1      34.327  15.501   8.812  0.00  0.00     0.063 A 
HETATM    9  C   UNK N   1      35.201  15.268  10.992  0.00  0.00     0.019 A 
HETATM   10  C   UNK N   1      33.696  10.557  10.290  0.00  0.00     0.044 A 
HETATM   11  C   UNK N   1      34.729  16.835   9.047  0.00  0.00     0.100 A 
HETATM   12  C   UNK N   1      34.644  18.036   8.172  0.00  0.00     0.261 C 
HETATM   13  C   UNK N   1      33.913  15.696   6.340  0.00  0.00     0.144 C 
HETATM   14  C   UNK N   1      33.204  17.024   6.369  0.00  0.00     0.098 C 
HETATM   15  C   UNK N   1      32.915  17.419   4.935  0.00  0.00     0.034 C 
HETATM   16  N   UNK N   1      34.340  11.225  11.295  0.00  0.00    -0.355 N 
ATOM     17  HN  UNK N   1      34.607  10.718  12.139  1.00  0.00     0.166 HD
HETATM   18  N   UNK N   1      33.783  15.017   7.600  0.00  0.00    -0.386 N 
HETATM   19  N   UNK N   1      34.020  18.058   6.964  0.00  0.00    -0.351 N 
HETATM   20  O   UNK N   1      35.176  19.064   8.561  0.00  0.00    -0.267 OA
HETATM   21  S   UNK N   1      35.402  16.859  10.581  0.00  0.00    -0.082 SA
HETATM   22  H   UNK N   1      33.288  14.166   7.620  0.00  0.00     0.159 HD
HETATM   23  H   UNK N   1      34.137  18.877   6.430  0.00  0.00     0.163 HD
ENDROOT
BRANCH  10  24
HETATM   24  C   UNK N   1      33.366   9.121  10.413  0.00  0.00     0.006 A 
HETATM   25  C   UNK N   1      32.151   8.634   9.909  0.00  0.00     0.017 A 
HETATM   26  C   UNK N   1      31.834   7.284  10.023  0.00  0.00     0.025 A 
HETATM   27  C   UNK N   1      32.740   6.423  10.639  0.00  0.00     0.005 A 
HETATM   28  C   UNK N   1      32.413   4.978  10.762  0.00  0.00     0.068 C 
HETATM   29  N   UNK N   1      33.917   6.903  11.125  0.00  0.00    -0.369 N 
HETATM   30  C   UNK N   1      34.246   8.221  11.028  0.00  0.00     0.101 A 
ATOM     31  HN  UNK N   1      34.570   6.259  11.574  1.00  0.00     0.165 HD
ENDBRANCH  10  24
TORSDOF 1
ENDMDL
MODEL 8
REMARK VINA RESULT:      -7.6      3.632      9.083
REMARK  1 active torsions:
REMARK  status: ('A' for Active; 'I' for Inactive)
REMARK    1  A    between atoms: C_10  and  C_14 
ROOT
HETATM    1  C   UNK N   1      30.675  17.396   7.743  0.00  0.00     0.017 A 
HETATM    2  C   UNK N   1      30.993  14.612   5.306  0.00  0.00     0.032 A 
HETATM    3  C   UNK N   1      30.030  14.972   4.344  0.00  0.00     0.022 A 
HETATM    4  C   UNK N   1      31.652  17.034   8.655  0.00  0.00     0.031 A 
HETATM    5  C   UNK N   1      30.439  16.603   6.624  0.00  0.00     0.004 A 
HETATM    6  C   UNK N   1      29.472  16.948   5.667  0.00  0.00     0.021 A 
HETATM    7  C   UNK N   1      31.207  15.424   6.439  0.00  0.00     0.043 A 
HETATM    8  C   UNK N   1      28.585  18.074   5.699  0.00  0.00     0.063 A 
HETATM    9  C   UNK N   1      29.296  16.137   4.551  0.00  0.00     0.019 A 
HETATM   10  C   UNK N   1      32.397  15.865   8.458  0.00  0.00     0.044 A 
HETATM   11  C   UNK N   1      27.742  18.149   4.566  0.00  0.00     0.100 A 
HETATM   12  C   UNK N   1      26.698  19.146   4.207  0.00  0.00     0.261 C 
HETATM   13  C   UNK N   1      27.434  19.813   7.102  0.00  0.00     0.144 C 
HETATM   14  C   UNK N   1      27.218  20.827   6.010  0.00  0.00     0.098 C 
HETATM   15  C   UNK N   1      26.433  21.979   6.605  0.00  0.00     0.034 C 
HETATM   16  N   UNK N   1      32.157  15.086   7.360  0.00  0.00    -0.355 N 
ATOM     17  HN  UNK N   1      32.700  14.232   7.227  1.00  0.00     0.166 HD
HETATM   18  N   UNK N   1      28.551  18.962   6.798  0.00  0.00    -0.386 N 
HETATM   19  N   UNK N   1      26.452  20.283   4.912  0.00  0.00    -0.351 N 
HETATM   20  O   UNK N   1      26.012  18.924   3.220  0.00  0.00    -0.267 OA
HETATM   21  S   UNK N   1      28.106  16.813   3.621  0.00  0.00    -0.082 SA
HETATM   22  H   UNK N   1      29.337  18.998   7.389  0.00  0.00     0.159 HD
HETATM   23  H   UNK N   1      25.658  20.798   4.641  0.00  0.00     0.163 HD
ENDROOT
BRANCH  10  24
HETATM   24  C   UNK N   1      33.437  15.501   9.443  0.00  0.00     0.006 A 
HETATM   25  C   UNK N   1      34.418  16.436   9.807  0.00  0.00     0.017 A 
HETATM   26  C   UNK N   1      35.401  16.100  10.733  0.00  0.00     0.025 A 
HETATM   27  C   UNK N   1      35.396  14.825  11.296  0.00  0.00     0.005 A 
HETATM   28  C   UNK N   1      36.437  14.456  12.290  0.00  0.00     0.068 C 
HETATM   29  N   UNK N   1      34.440  13.923  10.938  0.00  0.00    -0.369 N 
HETATM   30  C   UNK N   1      33.471  14.231  10.031  0.00  0.00     0.101 A 
ATOM     31  HN  UNK N   1      34.450  12.994  11.360  1.00  0.00     0.165 HD
ENDBRANCH  10  24
TORSDOF 1
ENDMDL
MODEL 9
REMARK VINA RESULT:      -7.5     10.193     14.330
REMARK  1 active torsions:
REMARK  status: ('A' for Active; 'I' for Inactive)
REMARK    1  A    between atoms: C_10  and  C_14 
ROOT
HETATM    1  C   UNK N   1      34.411  10.844  14.626  0.00  0.00     0.017 A 
HETATM    2  C   UNK N   1      36.436  13.941  14.926  0.00  0.00     0.032 A 
HETATM    3  C   UNK N   1      36.436  14.405  13.597  0.00  0.00     0.022 A 
HETATM    4  C   UNK N   1      34.400  10.430  15.947  0.00  0.00     0.031 A 
HETATM    5  C   UNK N   1      35.084  12.007  14.266  0.00  0.00     0.004 A 
HETATM    6  C   UNK N   1      35.099  12.470  12.940  0.00  0.00     0.021 A 
HETATM    7  C   UNK N   1      35.758  12.753  15.267  0.00  0.00     0.043 A 
HETATM    8  C   UNK N   1      34.506  11.841  11.797  0.00  0.00     0.063 A 
HETATM    9  C   UNK N   1      35.760  13.655  12.638  0.00  0.00     0.019 A 
HETATM   10  C   UNK N   1      35.075  11.177  16.921  0.00  0.00     0.044 A 
HETATM   11  C   UNK N   1      34.683  12.578  10.604  0.00  0.00     0.100 A 
HETATM   12  C   UNK N   1      34.227  12.289   9.217  0.00  0.00     0.261 C 
HETATM   13  C   UNK N   1      33.655   9.712  10.765  0.00  0.00     0.144 C 
HETATM   14  C   UNK N   1      32.723  10.343   9.765  0.00  0.00     0.098 C 
HETATM   15  C   UNK N   1      32.130   9.230   8.927  0.00  0.00     0.034 C 
HETATM   16  N   UNK N   1      35.741  12.316  16.561  0.00  0.00    -0.355 N 
ATOM     17  HN  UNK N   1      36.235  12.851  17.275  1.00  0.00     0.166 HD
HETATM   18  N   UNK N   1      33.868  10.582  11.889  0.00  0.00    -0.386 N 
HETATM   19  N   UNK N   1      33.417  11.250   8.879  0.00  0.00    -0.351 N 
HETATM   20  O   UNK N   1      34.614  13.028   8.324  0.00  0.00    -0.267 OA
HETATM   21  S   UNK N   1      35.586  13.927  11.015  0.00  0.00    -0.082 SA
HETATM   22  H   UNK N   1      33.553  10.285  12.773  0.00  0.00     0.159 HD
HETATM   23  H   UNK N   1      33.287  11.097   7.915  0.00  0.00     0.163 HD
ENDROOT
BRANCH  10  24
HETATM   24  C   UNK N   1      35.048  10.717  18.326  0.00  0.00     0.006 A 
HETATM   25  C   UNK N   1      34.587   9.428  18.635  0.00  0.00     0.017 A 
HETATM   26  C   UNK N   1      34.557   8.989  19.955  0.00  0.00     0.025 A 
HETATM   27  C   UNK N   1      34.993   9.845  20.965  0.00  0.00     0.005 A 
HETATM   28  C   UNK N   1      34.970   9.386  22.378  0.00  0.00     0.068 C 
HETATM   29  N   UNK N   1      35.439  11.094  20.657  0.00  0.00    -0.369 N 
HETATM   30  C   UNK N   1      35.474  11.545  19.372  0.00  0.00     0.101 A 
ATOM     31  HN  UNK N   1      35.755  11.709  21.408  1.00  0.00     0.165 HD
ENDBRANCH  10  24
TORSDOF 1
ENDMDL
