MODEL 1
REMARK VINA RESULT:      -5.9      0.000      0.000
REMARK  3 active torsions:
REMARK  status: ('A' for Active; 'I' for Inactive)
REMARK    1  A    between atoms: C_6  and  O_18 
REMARK    2  A    between atoms: C_11  and  C_13 
REMARK    3  A    between atoms: C_13  and  N_16 
ROOT
HETATM    1  C   UNK N   1      32.885  16.969   3.486  0.00  0.00     0.038 A 
HETATM    2  C   UNK N   1      32.937  17.706   4.678  0.00  0.00     0.022 A 
HETATM    3  C   UNK N   1      34.122  15.134   4.528  0.00  0.00     0.052 A 
HETATM    4  C   UNK N   1      34.163  15.872   5.712  0.00  0.00     0.012 A 
HETATM    5  C   UNK N   1      34.724  15.455   6.954  0.00  0.00     0.062 A 
HETATM    6  C   UNK N   1      33.475  15.681   3.402  0.00  0.00     0.069 A 
HETATM    7  C   UNK N   1      33.578  17.131   5.767  0.00  0.00     0.018 A 
HETATM    8  C   UNK N   1      34.575  16.404   7.979  0.00  0.00     0.100 A 
HETATM    9  C   UNK N   1      35.029  16.373   9.392  0.00  0.00     0.261 C 
HETATM   10  C   UNK N   1      35.106  13.462   8.340  0.00  0.00     0.146 C 
HETATM   11  C   UNK N   1      35.903  13.953   9.539  0.00  0.00     0.119 C 
HETATM   12  N   UNK N   1      35.321  14.194   7.127  0.00  0.00    -0.386 N 
HETATM   13  N   UNK N   1      35.643  15.311   9.989  0.00  0.00    -0.349 N 
HETATM   14  O   UNK N   1      34.868  17.381  10.057  0.00  0.00    -0.267 OA
HETATM   15  S   UNK N   1      33.772  17.709   7.301  0.00  0.00    -0.082 SA
HETATM   16  H   UNK N   1      35.886  13.815   6.416  0.00  0.00     0.159 HD
HETATM   17  H   UNK N   1      35.975  15.501  10.896  0.00  0.00     0.163 HD
ENDROOT
BRANCH  11  18
HETATM   18  C   UNK N   1      37.397  13.722   9.364  0.00  0.00     0.137 C 
BRANCH  18  19
HETATM   19  N   UNK N   1      38.147  14.649  10.199  0.00  0.00    -0.428 N 
HETATM   20  H   UNK N   1      38.118  14.577  11.217  0.00  0.00     0.149 HD
HETATM   21  H   UNK N   1      38.707  15.380   9.762  0.00  0.00     0.149 HD
ENDBRANCH  18  19
ENDBRANCH  11  18
BRANCH   6  22
HETATM   22  O   UNK N   1      33.418  14.953   2.263  0.00  0.00    -0.356 OA
HETATM   23  C   UNK N   1      34.151  13.803   2.066  0.00  0.00     0.210 C 
ENDBRANCH   6  22
TORSDOF 3
ENDMDL
MODEL 2
REMARK VINA RESULT:      -5.7      3.102      4.358
REMARK  3 active torsions:
REMARK  status: ('A' for Active; 'I' for Inactive)
REMARK    1  A    between atoms: C_6  and  O_18 
REMARK    2  A    between atoms: C_11  and  C_13 
REMARK    3  A    between atoms: C_13  and  N_16 
ROOT
HETATM    1  C   UNK N   1      30.354  17.179   6.552  0.00  0.00     0.038 A 
HETATM    2  C   UNK N   1      31.360  16.354   6.028  0.00  0.00     0.022 A 
HETATM    3  C   UNK N   1      31.478  17.226   8.725  0.00  0.00     0.052 A 
HETATM    4  C   UNK N   1      32.478  16.409   8.193  0.00  0.00     0.012 A 
HETATM    5  C   UNK N   1      33.654  15.960   8.861  0.00  0.00     0.062 A 
HETATM    6  C   UNK N   1      30.407  17.620   7.900  0.00  0.00     0.069 A 
HETATM    7  C   UNK N   1      32.403  15.990   6.870  0.00  0.00     0.018 A 
HETATM    8  C   UNK N   1      34.495  15.182   8.047  0.00  0.00     0.100 A 
HETATM    9  C   UNK N   1      35.783  14.514   8.358  0.00  0.00     0.261 C 
HETATM   10  C   UNK N   1      35.294  16.629  10.564  0.00  0.00     0.146 C 
HETATM   11  C   UNK N   1      36.217  15.431  10.726  0.00  0.00     0.119 C 
HETATM   12  N   UNK N   1      33.947  16.312  10.190  0.00  0.00    -0.386 N 
HETATM   13  N   UNK N   1      36.446  14.614   9.546  0.00  0.00    -0.349 N 
HETATM   14  O   UNK N   1      36.268  13.799   7.498  0.00  0.00    -0.267 OA
HETATM   15  S   UNK N   1      33.742  15.079   6.554  0.00  0.00    -0.082 SA
HETATM   16  H   UNK N   1      33.229  16.341  10.862  0.00  0.00     0.159 HD
HETATM   17  H   UNK N   1      37.227  14.020   9.618  0.00  0.00     0.163 HD
ENDROOT
BRANCH  11  18
HETATM   18  C   UNK N   1      35.822  14.562  11.912  0.00  0.00     0.137 C 
BRANCH  18  19
HETATM   19  N   UNK N   1      36.439  15.068  13.129  0.00  0.00    -0.428 N 
HETATM   20  H   UNK N   1      37.026  15.902  13.110  0.00  0.00     0.149 HD
HETATM   21  H   UNK N   1      36.283  14.582  14.012  0.00  0.00     0.149 HD
ENDBRANCH  18  19
ENDBRANCH  11  18
BRANCH   6  22
HETATM   22  O   UNK N   1      29.451  18.430   8.414  0.00  0.00    -0.356 OA
HETATM   23  C   UNK N   1      28.328  17.958   9.055  0.00  0.00     0.210 C 
ENDBRANCH   6  22
TORSDOF 3
ENDMDL
MODEL 3
REMARK VINA RESULT:      -5.7     13.733     16.630
REMARK  3 active torsions:
REMARK  status: ('A' for Active; 'I' for Inactive)
REMARK    1  A    between atoms: C_6  and  O_18 
REMARK    2  A    between atoms: C_11  and  C_13 
REMARK    3  A    between atoms: C_13  and  N_16 
ROOT
HETATM    1  C   UNK N   1      25.134  27.345  -5.102  0.00  0.00     0.038 A 
HETATM    2  C   UNK N   1      25.296  26.237  -5.947  0.00  0.00     0.022 A 
HETATM    3  C   UNK N   1      27.107  26.691  -3.811  0.00  0.00     0.052 A 
HETATM    4  C   UNK N   1      27.264  25.594  -4.661  0.00  0.00     0.012 A 
HETATM    5  C   UNK N   1      28.312  24.630  -4.619  0.00  0.00     0.062 A 
HETATM    6  C   UNK N   1      26.036  27.580  -4.032  0.00  0.00     0.069 A 
HETATM    7  C   UNK N   1      26.367  25.387  -5.701  0.00  0.00     0.018 A 
HETATM    8  C   UNK N   1      28.223  23.664  -5.635  0.00  0.00     0.100 A 
HETATM    9  C   UNK N   1      29.086  22.493  -5.928  0.00  0.00     0.261 C 
HETATM   10  C   UNK N   1      30.693  24.375  -4.068  0.00  0.00     0.146 C 
HETATM   11  C   UNK N   1      30.988  22.892  -4.236  0.00  0.00     0.119 C 
HETATM   12  N   UNK N   1      29.351  24.686  -3.673  0.00  0.00    -0.386 N 
HETATM   13  N   UNK N   1      30.232  22.183  -5.255  0.00  0.00    -0.349 N 
HETATM   14  O   UNK N   1      28.728  21.737  -6.813  0.00  0.00    -0.267 OA
HETATM   15  S   UNK N   1      26.853  24.041  -6.524  0.00  0.00    -0.082 SA
HETATM   16  H   UNK N   1      29.157  24.939  -2.742  0.00  0.00     0.159 HD
HETATM   17  H   UNK N   1      30.619  21.314  -5.507  0.00  0.00     0.163 HD
ENDROOT
BRANCH  11  18
HETATM   18  C   UNK N   1      30.933  22.145  -2.910  0.00  0.00     0.137 C 
BRANCH  18  19
HETATM   19  N   UNK N   1      31.936  21.091  -2.889  0.00  0.00    -0.428 N 
HETATM   20  H   UNK N   1      32.855  21.235  -3.309  0.00  0.00     0.149 HD
HETATM   21  H   UNK N   1      31.718  20.197  -2.449  0.00  0.00     0.149 HD
ENDBRANCH  18  19
ENDBRANCH  11  18
BRANCH   6  22
HETATM   22  O   UNK N   1      25.901  28.654  -3.219  0.00  0.00    -0.356 OA
HETATM   23  C   UNK N   1      26.387  29.903  -3.534  0.00  0.00     0.210 C 
ENDBRANCH   6  22
TORSDOF 3
ENDMDL
MODEL 4
REMARK VINA RESULT:      -5.6      4.969      6.802
REMARK  3 active torsions:
REMARK  status: ('A' for Active; 'I' for Inactive)
REMARK    1  A    between atoms: C_6  and  O_18 
REMARK    2  A    between atoms: C_11  and  C_13 
REMARK    3  A    between atoms: C_13  and  N_16 
ROOT
HETATM    1  C   UNK N   1      34.418  17.032   7.784  0.00  0.00     0.038 A 
HETATM    2  C   UNK N   1      33.451  17.577   8.642  0.00  0.00     0.022 A 
HETATM    3  C   UNK N   1      32.707  16.562   6.100  0.00  0.00     0.052 A 
HETATM    4  C   UNK N   1      31.752  17.112   6.958  0.00  0.00     0.012 A 
HETATM    5  C   UNK N   1      30.363  17.281   6.687  0.00  0.00     0.062 A 
HETATM    6  C   UNK N   1      34.054  16.523   6.511  0.00  0.00     0.069 A 
HETATM    7  C   UNK N   1      32.135  17.604   8.200  0.00  0.00     0.018 A 
HETATM    8  C   UNK N   1      29.663  17.906   7.733  0.00  0.00     0.100 A 
HETATM    9  C   UNK N   1      28.224  18.243   7.860  0.00  0.00     0.261 C 
HETATM   10  C   UNK N   1      28.782  17.725   4.859  0.00  0.00     0.146 C 
HETATM   11  C   UNK N   1      27.402  17.642   5.492  0.00  0.00     0.119 C 
HETATM   12  N   UNK N   1      29.780  16.896   5.467  0.00  0.00    -0.386 N 
HETATM   13  N   UNK N   1      27.291  18.054   6.882  0.00  0.00    -0.349 N 
HETATM   14  O   UNK N   1      27.842  18.691   8.926  0.00  0.00    -0.267 OA
HETATM   15  S   UNK N   1      30.788  18.207   8.938  0.00  0.00    -0.082 SA
HETATM   16  H   UNK N   1      30.057  16.058   5.031  0.00  0.00     0.159 HD
HETATM   17  H   UNK N   1      26.368  18.230   7.173  0.00  0.00     0.163 HD
ENDROOT
BRANCH  11  18
HETATM   18  C   UNK N   1      26.760  16.278   5.284  0.00  0.00     0.137 C 
BRANCH  18  19
HETATM   19  N   UNK N   1      25.701  16.070   6.261  0.00  0.00    -0.428 N 
HETATM   20  H   UNK N   1      24.758  15.816   5.964  0.00  0.00     0.149 HD
HETATM   21  H   UNK N   1      25.904  16.180   7.255  0.00  0.00     0.149 HD
ENDBRANCH  18  19
ENDBRANCH  11  18
BRANCH   6  22
HETATM   22  O   UNK N   1      34.979  16.009   5.667  0.00  0.00    -0.356 OA
HETATM   23  C   UNK N   1      35.706  14.873   5.947  0.00  0.00     0.210 C 
ENDBRANCH   6  22
TORSDOF 3
ENDMDL
MODEL 5
REMARK VINA RESULT:      -5.6     13.606     16.737
REMARK  3 active torsions:
REMARK  status: ('A' for Active; 'I' for Inactive)
REMARK    1  A    between atoms: C_6  and  O_18 
REMARK    2  A    between atoms: C_11  and  C_13 
REMARK    3  A    between atoms: C_13  and  N_16 
ROOT
HETATM    1  C   UNK N   1      30.824  20.490  -6.204  0.00  0.00     0.038 A 
HETATM    2  C   UNK N   1      29.784  20.779  -7.099  0.00  0.00     0.022 A 
HETATM    3  C   UNK N   1      30.053  22.249  -4.689  0.00  0.00     0.052 A 
HETATM    4  C   UNK N   1      29.017  22.526  -5.583  0.00  0.00     0.012 A 
HETATM    5  C   UNK N   1      27.980  23.487  -5.411  0.00  0.00     0.062 A 
HETATM    6  C   UNK N   1      30.965  21.220  -4.995  0.00  0.00     0.069 A 
HETATM    7  C   UNK N   1      28.902  21.795  -6.760  0.00  0.00     0.018 A 
HETATM    8  C   UNK N   1      27.054  23.504  -6.469  0.00  0.00     0.100 A 
HETATM    9  C   UNK N   1      25.859  24.357  -6.687  0.00  0.00     0.261 C 
HETATM   10  C   UNK N   1      26.600  24.567  -3.688  0.00  0.00     0.146 C 
HETATM   11  C   UNK N   1      25.764  25.598  -4.431  0.00  0.00     0.119 C 
HETATM   12  N   UNK N   1      27.883  24.297  -4.265  0.00  0.00    -0.386 N 
HETATM   13  N   UNK N   1      25.387  25.277  -5.798  0.00  0.00    -0.349 N 
HETATM   14  O   UNK N   1      25.277  24.247  -7.751  0.00  0.00    -0.267 OA
HETATM   15  S   UNK N   1      27.568  22.344  -7.563  0.00  0.00    -0.082 SA
HETATM   16  H   UNK N   1      28.696  24.676  -3.860  0.00  0.00     0.159 HD
HETATM   17  H   UNK N   1      24.652  25.830  -6.149  0.00  0.00     0.163 HD
ENDROOT
BRANCH  11  18
HETATM   18  C   UNK N   1      26.375  26.990  -4.355  0.00  0.00     0.137 C 
BRANCH  18  19
HETATM   19  N   UNK N   1      25.810  27.724  -3.233  0.00  0.00    -0.428 N 
HETATM   20  H   UNK N   1      24.803  27.875  -3.160  0.00  0.00     0.149 HD
HETATM   21  H   UNK N   1      26.428  28.091  -2.509  0.00  0.00     0.149 HD
ENDBRANCH  18  19
ENDBRANCH  11  18
BRANCH   6  22
HETATM   22  O   UNK N   1      31.954  20.941  -4.114  0.00  0.00    -0.356 OA
HETATM   23  C   UNK N   1      32.131  21.631  -2.936  0.00  0.00     0.210 C 
ENDBRANCH   6  22
TORSDOF 3
ENDMDL
MODEL 6
REMARK VINA RESULT:      -5.5      3.945      5.130
REMARK  3 active torsions:
REMARK  status: ('A' for Active; 'I' for Inactive)
REMARK    1  A    between atoms: C_6  and  O_18 
REMARK    2  A    between atoms: C_11  and  C_13 
REMARK    3  A    between atoms: C_13  and  N_16 
ROOT
HETATM    1  C   UNK N   1      28.030  17.417   6.124  0.00  0.00     0.038 A 
HETATM    2  C   UNK N   1      28.765  16.309   5.677  0.00  0.00     0.022 A 
HETATM    3  C   UNK N   1      29.777  17.964   7.747  0.00  0.00     0.052 A 
HETATM    4  C   UNK N   1      30.505  16.862   7.292  0.00  0.00     0.012 A 
HETATM    5  C   UNK N   1      31.798  16.458   7.732  0.00  0.00     0.062 A 
HETATM    6  C   UNK N   1      28.529  18.250   7.159  0.00  0.00     0.069 A 
HETATM    7  C   UNK N   1      29.993  16.062   6.278  0.00  0.00     0.018 A 
HETATM    8  C   UNK N   1      32.291  15.330   7.054  0.00  0.00     0.100 A 
HETATM    9  C   UNK N   1      33.564  14.588   7.221  0.00  0.00     0.261 C 
HETATM   10  C   UNK N   1      33.928  17.348   8.574  0.00  0.00     0.146 C 
HETATM   11  C   UNK N   1      34.775  16.127   8.897  0.00  0.00     0.119 C 
HETATM   12  N   UNK N   1      32.514  17.162   8.717  0.00  0.00    -0.386 N 
HETATM   13  N   UNK N   1      34.570  14.949   8.069  0.00  0.00    -0.349 N 
HETATM   14  O   UNK N   1      33.708  13.565   6.576  0.00  0.00    -0.267 OA
HETATM   15  S   UNK N   1      31.104  14.885   5.958  0.00  0.00    -0.082 SA
HETATM   16  H   UNK N   1      32.045  17.525   9.502  0.00  0.00     0.159 HD
HETATM   17  H   UNK N   1      35.294  14.285   8.134  0.00  0.00     0.163 HD
ENDROOT
BRANCH  11  18
HETATM   18  C   UNK N   1      34.714  15.763  10.373  0.00  0.00     0.137 C 
BRANCH  18  19
HETATM   19  N   UNK N   1      35.170  16.883  11.183  0.00  0.00    -0.428 N 
HETATM   20  H   UNK N   1      34.502  17.534  11.598  0.00  0.00     0.149 HD
HETATM   21  H   UNK N   1      36.169  17.019  11.337  0.00  0.00     0.149 HD
ENDBRANCH  18  19
ENDBRANCH  11  18
BRANCH   6  22
HETATM   22  O   UNK N   1      27.837  19.332   7.588  0.00  0.00    -0.356 OA
HETATM   23  C   UNK N   1      27.396  20.327   6.745  0.00  0.00     0.210 C 
ENDBRANCH   6  22
TORSDOF 3
ENDMDL
MODEL 7
REMARK VINA RESULT:      -5.5     13.496     16.719
REMARK  3 active torsions:
REMARK  status: ('A' for Active; 'I' for Inactive)
REMARK    1  A    between atoms: C_6  and  O_18 
REMARK    2  A    between atoms: C_11  and  C_13 
REMARK    3  A    between atoms: C_13  and  N_16 
ROOT
HETATM    1  C   UNK N   1      31.185  22.783  -3.040  0.00  0.00     0.038 A 
HETATM    2  C   UNK N   1      30.076  23.627  -2.890  0.00  0.00     0.022 A 
HETATM    3  C   UNK N   1      30.277  21.905  -5.135  0.00  0.00     0.052 A 
HETATM    4  C   UNK N   1      29.179  22.754  -4.981  0.00  0.00     0.012 A 
HETATM    5  C   UNK N   1      28.092  22.909  -5.889  0.00  0.00     0.062 A 
HETATM    6  C   UNK N   1      31.294  21.918  -4.160  0.00  0.00     0.069 A 
HETATM    7  C   UNK N   1      29.097  23.590  -3.875  0.00  0.00     0.018 A 
HETATM    8  C   UNK N   1      27.157  23.874  -5.478  0.00  0.00     0.100 A 
HETATM    9  C   UNK N   1      25.891  24.318  -6.114  0.00  0.00     0.261 C 
HETATM   10  C   UNK N   1      27.537  22.845  -8.282  0.00  0.00     0.146 C 
HETATM   11  C   UNK N   1      26.032  23.048  -8.351  0.00  0.00     0.119 C 
HETATM   12  N   UNK N   1      28.008  22.193  -7.096  0.00  0.00    -0.386 N 
HETATM   13  N   UNK N   1      25.434  23.885  -7.324  0.00  0.00    -0.349 N 
HETATM   14  O   UNK N   1      25.195  25.103  -5.494  0.00  0.00    -0.267 OA
HETATM   15  S   UNK N   1      27.711  24.475  -4.016  0.00  0.00    -0.082 SA
HETATM   16  H   UNK N   1      28.273  21.245  -7.126  0.00  0.00     0.159 HD
HETATM   17  H   UNK N   1      24.527  24.198  -7.542  0.00  0.00     0.163 HD
ENDROOT
BRANCH  11  18
HETATM   18  C   UNK N   1      25.283  21.728  -8.472  0.00  0.00     0.137 C 
BRANCH  18  19
HETATM   19  N   UNK N   1      24.019  21.805  -7.754  0.00  0.00    -0.428 N 
HETATM   20  H   UNK N   1      23.158  22.064  -8.237  0.00  0.00     0.149 HD
HETATM   21  H   UNK N   1      23.993  21.596  -6.756  0.00  0.00     0.149 HD
ENDBRANCH  18  19
ENDBRANCH  11  18
BRANCH   6  22
HETATM   22  O   UNK N   1      32.368  21.110  -4.325  0.00  0.00    -0.356 OA
HETATM   23  C   UNK N   1      33.387  21.014  -3.403  0.00  0.00     0.210 C 
ENDBRANCH   6  22
TORSDOF 3
ENDMDL
MODEL 8
REMARK VINA RESULT:      -5.5     11.602     13.622
REMARK  3 active torsions:
REMARK  status: ('A' for Active; 'I' for Inactive)
REMARK    1  A    between atoms: C_6  and  O_18 
REMARK    2  A    between atoms: C_11  and  C_13 
REMARK    3  A    between atoms: C_13  and  N_16 
ROOT
HETATM    1  C   UNK N   1      25.731  20.339   3.497  0.00  0.00     0.038 A 
HETATM    2  C   UNK N   1      24.486  20.769   3.016  0.00  0.00     0.022 A 
HETATM    3  C   UNK N   1      24.732  18.266   4.328  0.00  0.00     0.052 A 
HETATM    4  C   UNK N   1      23.497  18.700   3.841  0.00  0.00     0.012 A 
HETATM    5  C   UNK N   1      22.268  17.980   3.881  0.00  0.00     0.062 A 
HETATM    6  C   UNK N   1      25.863  19.088   4.153  0.00  0.00     0.069 A 
HETATM    7  C   UNK N   1      23.395  19.929   3.202  0.00  0.00     0.018 A 
HETATM    8  C   UNK N   1      21.202  18.663   3.270  0.00  0.00     0.100 A 
HETATM    9  C   UNK N   1      19.777  18.281   3.119  0.00  0.00     0.261 C 
HETATM   10  C   UNK N   1      21.348  15.703   3.803  0.00  0.00     0.146 C 
HETATM   11  C   UNK N   1      19.851  15.867   4.017  0.00  0.00     0.119 C 
HETATM   12  N   UNK N   1      22.164  16.694   4.440  0.00  0.00    -0.386 N 
HETATM   13  N   UNK N   1      19.245  17.087   3.510  0.00  0.00    -0.349 N 
HETATM   14  O   UNK N   1      19.020  19.107   2.639  0.00  0.00    -0.267 OA
HETATM   15  S   UNK N   1      21.827  20.119   2.724  0.00  0.00    -0.082 SA
HETATM   16  H   UNK N   1      22.652  16.475   5.266  0.00  0.00     0.159 HD
HETATM   17  H   UNK N   1      18.265  17.044   3.436  0.00  0.00     0.163 HD
ENDROOT
BRANCH  11  18
HETATM   18  C   UNK N   1      19.453  15.631   5.467  0.00  0.00     0.137 C 
BRANCH  18  19
HETATM   19  N   UNK N   1      20.070  14.410   5.962  0.00  0.00    -0.428 N 
HETATM   20  H   UNK N   1      20.486  13.736   5.319  0.00  0.00     0.149 HD
HETATM   21  H   UNK N   1      20.087  14.225   6.965  0.00  0.00     0.149 HD
ENDBRANCH  18  19
ENDBRANCH  11  18
BRANCH   6  22
HETATM   22  O   UNK N   1      27.062  18.654   4.607  0.00  0.00    -0.356 OA
HETATM   23  C   UNK N   1      27.639  19.113   5.770  0.00  0.00     0.210 C 
ENDBRANCH   6  22
TORSDOF 3
ENDMDL
MODEL 9
REMARK VINA RESULT:      -5.5      2.347      2.615
REMARK  3 active torsions:
REMARK  status: ('A' for Active; 'I' for Inactive)
REMARK    1  A    between atoms: C_6  and  O_18 
REMARK    2  A    between atoms: C_11  and  C_13 
REMARK    3  A    between atoms: C_13  and  N_16 
ROOT
HETATM    1  C   UNK N   1      31.675  14.408   4.390  0.00  0.00     0.038 A 
HETATM    2  C   UNK N   1      32.102  15.730   4.580  0.00  0.00     0.022 A 
HETATM    3  C   UNK N   1      32.677  13.743   6.521  0.00  0.00     0.052 A 
HETATM    4  C   UNK N   1      33.093  15.063   6.705  0.00  0.00     0.012 A 
HETATM    5  C   UNK N   1      33.778  15.588   7.838  0.00  0.00     0.062 A 
HETATM    6  C   UNK N   1      31.958  13.408   5.357  0.00  0.00     0.069 A 
HETATM    7  C   UNK N   1      32.804  16.023   5.742  0.00  0.00     0.018 A 
HETATM    8  C   UNK N   1      34.026  16.969   7.750  0.00  0.00     0.100 A 
HETATM    9  C   UNK N   1      34.721  17.883   8.689  0.00  0.00     0.261 C 
HETATM   10  C   UNK N   1      33.991  15.325  10.272  0.00  0.00     0.146 C 
HETATM   11  C   UNK N   1      35.084  16.297  10.687  0.00  0.00     0.119 C 
HETATM   12  N   UNK N   1      34.122  14.795   8.947  0.00  0.00    -0.386 N 
HETATM   13  N   UNK N   1      35.203  17.523   9.913  0.00  0.00    -0.349 N 
HETATM   14  O   UNK N   1      34.902  19.032   8.326  0.00  0.00    -0.267 OA
HETATM   15  S   UNK N   1      33.399  17.466   6.278  0.00  0.00    -0.082 SA
HETATM   16  H   UNK N   1      34.451  13.877   8.813  0.00  0.00     0.159 HD
HETATM   17  H   UNK N   1      35.731  18.224  10.357  0.00  0.00     0.163 HD
ENDROOT
BRANCH  11  18
HETATM   18  C   UNK N   1      36.437  15.613  10.819  0.00  0.00     0.137 C 
BRANCH  18  19
HETATM   19  N   UNK N   1      36.475  14.811  12.033  0.00  0.00    -0.428 N 
HETATM   20  H   UNK N   1      36.733  13.825  12.001  0.00  0.00     0.149 HD
HETATM   21  H   UNK N   1      36.241  15.241  12.928  0.00  0.00     0.149 HD
ENDBRANCH  18  19
ENDBRANCH  11  18
BRANCH   6  22
HETATM   22  O   UNK N   1      31.537  12.131   5.194  0.00  0.00    -0.356 OA
HETATM   23  C   UNK N   1      32.371  11.042   5.313  0.00  0.00     0.210 C 
ENDBRANCH   6  22
TORSDOF 3
ENDMDL
