MODEL 1
REMARK VINA RESULT:      -6.0      0.000      0.000
REMARK  7 active torsions:
REMARK  status: ('A' for Active; 'I' for Inactive)
REMARK    1  A    between atoms: N_1  and  C_2 
REMARK    2  A    between atoms: N_1  and  C_4 
REMARK    3  A    between atoms: C_4  and  N_6 
REMARK       I    between atoms: N_6  and  C_7 
REMARK    4  A    between atoms: C_7  and  C_9 
REMARK    5  A    between atoms: C_9  and  N_11 
REMARK       I    between atoms: N_11  and  C_12 
REMARK    6  A    between atoms: C_12  and  O_14 
REMARK    7  A    between atoms: O_14  and  C_15 
ROOT
HETATM    1  C   UNK N   1      36.277  14.338  11.404  0.00  0.00     0.174 C 
HETATM    2  C   UNK N   1      36.520  13.309  10.308  0.00  0.00     0.042 C 
ENDROOT
BRANCH   1   3
HETATM    3  C   UNK N   1      35.706  15.612  10.850  0.00  0.00     0.241 C 
HETATM    4  N   UNK N   1      34.419  15.614  10.415  0.00  0.00    -0.339 N 
HETATM    5  H   UNK N   1      33.732  15.217  10.997  0.00  0.00     0.164 HD
HETATM    6  O   UNK N   1      36.444  16.564  10.637  0.00  0.00    -0.271 OA
BRANCH   4   7
HETATM    7  C   UNK N   1      34.003  16.164   9.149  0.00  0.00     0.182 C 
HETATM    8  C   UNK N   1      32.602  15.733   8.730  0.00  0.00     0.055 C 
BRANCH   7   9
HETATM    9  N   UNK N   1      34.086  17.605   9.296  0.00  0.00    -0.347 N 
HETATM   10  H   UNK N   1      33.813  17.991  10.160  0.00  0.00     0.163 HD
BRANCH   9  11
HETATM   11  C   UNK N   1      34.510  18.457   8.336  0.00  0.00     0.350 C 
HETATM   12  O   UNK N   1      35.388  19.272   8.563  0.00  0.00    -0.284 OA
ENDBRANCH   9  11
ENDBRANCH   7   9
ENDBRANCH   4   7
ENDBRANCH   1   3
BRANCH   1  13
HETATM   13  N   UNK N   1      35.419  13.747  12.401  0.00  0.00    -0.324 N 
HETATM   14  C   UNK N   1      35.644  13.864  13.734  0.00  0.00     0.362 C 
HETATM   15  O   UNK N   1      36.597  14.505  14.147  0.00  0.00    -0.238 OA
HETATM   16  H   UNK N   1      34.633  13.235  12.101  0.00  0.00     0.165 HD
BRANCH  14  17
HETATM   17  O   UNK N   1      34.824  13.191  14.587  0.00  0.00    -0.294 OA
BRANCH  17  18
HETATM   18  C   UNK N   1      35.008  11.938  15.157  0.00  0.00     0.061 C 
HETATM   19  C   UNK N   1      33.809  11.070  14.835  0.00  0.00     0.046 C 
HETATM   20  C   UNK N   1      35.081  12.118  16.656  0.00  0.00     0.046 C 
HETATM   21  C   UNK N   1      36.277  11.216  14.717  0.00  0.00     0.046 C 
ENDBRANCH  17  18
ENDBRANCH  14  17
ENDBRANCH   1  13
TORSDOF 7
ENDMDL
MODEL 2
REMARK VINA RESULT:      -5.4     16.934     19.717
REMARK  7 active torsions:
REMARK  status: ('A' for Active; 'I' for Inactive)
REMARK    1  A    between atoms: N_1  and  C_2 
REMARK    2  A    between atoms: N_1  and  C_4 
REMARK    3  A    between atoms: C_4  and  N_6 
REMARK       I    between atoms: N_6  and  C_7 
REMARK    4  A    between atoms: C_7  and  C_9 
REMARK    5  A    between atoms: C_9  and  N_11 
REMARK       I    between atoms: N_11  and  C_12 
REMARK    6  A    between atoms: C_12  and  O_14 
REMARK    7  A    between atoms: O_14  and  C_15 
ROOT
HETATM    1  C   UNK N   1      28.797  24.305  -3.335  0.00  0.00     0.174 C 
HETATM    2  C   UNK N   1      29.480  25.406  -4.137  0.00  0.00     0.042 C 
ENDROOT
BRANCH   1   3
HETATM    3  C   UNK N   1      27.372  24.107  -3.767  0.00  0.00     0.241 C 
HETATM    4  N   UNK N   1      27.054  24.300  -5.073  0.00  0.00    -0.339 N 
HETATM    5  H   UNK N   1      27.624  23.881  -5.756  0.00  0.00     0.164 HD
HETATM    6  O   UNK N   1      26.501  23.951  -2.923  0.00  0.00    -0.271 OA
BRANCH   4   7
HETATM    7  C   UNK N   1      25.928  25.086  -5.515  0.00  0.00     0.182 C 
HETATM    8  C   UNK N   1      26.261  26.558  -5.731  0.00  0.00     0.055 C 
BRANCH   7   9
HETATM    9  N   UNK N   1      25.470  24.465  -6.743  0.00  0.00    -0.347 N 
HETATM   10  H   UNK N   1      24.976  25.029  -7.382  0.00  0.00     0.163 HD
BRANCH   9  11
HETATM   11  C   UNK N   1      25.671  23.170  -7.077  0.00  0.00     0.350 C 
HETATM   12  O   UNK N   1      25.062  22.276  -6.516  0.00  0.00    -0.284 OA
ENDBRANCH   9  11
ENDBRANCH   7   9
ENDBRANCH   4   7
ENDBRANCH   1   3
BRANCH   1  13
HETATM   13  N   UNK N   1      29.576  23.098  -3.467  0.00  0.00    -0.324 N 
HETATM   14  C   UNK N   1      30.374  22.621  -2.479  0.00  0.00     0.362 C 
HETATM   15  O   UNK N   1      30.450  23.203  -1.409  0.00  0.00    -0.238 OA
HETATM   16  H   UNK N   1      29.527  22.597  -4.313  0.00  0.00     0.165 HD
BRANCH  14  17
HETATM   17  O   UNK N   1      31.137  21.524  -2.739  0.00  0.00    -0.294 OA
BRANCH  17  18
HETATM   18  C   UNK N   1      32.178  21.389  -3.648  0.00  0.00     0.061 C 
HETATM   19  C   UNK N   1      31.798  20.347  -4.680  0.00  0.00     0.046 C 
HETATM   20  C   UNK N   1      33.391  20.895  -2.893  0.00  0.00     0.046 C 
HETATM   21  C   UNK N   1      32.572  22.676  -4.364  0.00  0.00     0.046 C 
ENDBRANCH  17  18
ENDBRANCH  14  17
ENDBRANCH   1  13
TORSDOF 7
ENDMDL
MODEL 3
REMARK VINA RESULT:      -5.3      1.950      2.357
REMARK  7 active torsions:
REMARK  status: ('A' for Active; 'I' for Inactive)
REMARK    1  A    between atoms: N_1  and  C_2 
REMARK    2  A    between atoms: N_1  and  C_4 
REMARK    3  A    between atoms: C_4  and  N_6 
REMARK       I    between atoms: N_6  and  C_7 
REMARK    4  A    between atoms: C_7  and  C_9 
REMARK    5  A    between atoms: C_9  and  N_11 
REMARK       I    between atoms: N_11  and  C_12 
REMARK    6  A    between atoms: C_12  and  O_14 
REMARK    7  A    between atoms: O_14  and  C_15 
ROOT
HETATM    1  C   UNK N   1      35.287  15.153  10.438  0.00  0.00     0.174 C 
HETATM    2  C   UNK N   1      34.686  14.211   9.403  0.00  0.00     0.042 C 
ENDROOT
BRANCH   1   3
HETATM    3  C   UNK N   1      34.909  16.582  10.173  0.00  0.00     0.241 C 
HETATM    4  N   UNK N   1      33.752  16.838   9.510  0.00  0.00    -0.339 N 
HETATM    5  H   UNK N   1      32.937  16.373   9.804  0.00  0.00     0.164 HD
HETATM    6  O   UNK N   1      35.718  17.473  10.395  0.00  0.00    -0.271 OA
BRANCH   4   7
HETATM    7  C   UNK N   1      33.651  17.753   8.400  0.00  0.00     0.182 C 
HETATM    8  C   UNK N   1      34.157  17.171   7.085  0.00  0.00     0.055 C 
BRANCH   7   9
HETATM    9  N   UNK N   1      32.248  18.112   8.309  0.00  0.00    -0.347 N 
HETATM   10  H   UNK N   1      32.014  19.063   8.410  0.00  0.00     0.163 HD
BRANCH   9  11
HETATM   11  C   UNK N   1      31.239  17.239   8.097  0.00  0.00     0.350 C 
HETATM   12  O   UNK N   1      30.673  16.693   9.030  0.00  0.00    -0.284 OA
ENDBRANCH   9  11
ENDBRANCH   7   9
ENDBRANCH   4   7
ENDBRANCH   1   3
BRANCH   1  13
HETATM   13  N   UNK N   1      34.869  14.716  11.748  0.00  0.00    -0.324 N 
HETATM   14  C   UNK N   1      35.648  13.954  12.557  0.00  0.00     0.362 C 
HETATM   15  O   UNK N   1      36.766  13.618  12.203  0.00  0.00    -0.238 OA
HETATM   16  H   UNK N   1      33.978  14.982  12.070  0.00  0.00     0.165 HD
BRANCH  14  17
HETATM   17  O   UNK N   1      35.123  13.520  13.735  0.00  0.00    -0.294 OA
BRANCH  17  18
HETATM   18  C   UNK N   1      35.784  13.215  14.918  0.00  0.00     0.061 C 
HETATM   19  C   UNK N   1      36.454  11.864  14.773  0.00  0.00     0.046 C 
HETATM   20  C   UNK N   1      34.748  13.120  16.016  0.00  0.00     0.046 C 
HETATM   21  C   UNK N   1      36.824  14.241  15.352  0.00  0.00     0.046 C 
ENDBRANCH  17  18
ENDBRANCH  14  17
ENDBRANCH   1  13
TORSDOF 7
ENDMDL
MODEL 4
REMARK VINA RESULT:      -5.1     16.899     19.588
REMARK  7 active torsions:
REMARK  status: ('A' for Active; 'I' for Inactive)
REMARK    1  A    between atoms: N_1  and  C_2 
REMARK    2  A    between atoms: N_1  and  C_4 
REMARK    3  A    between atoms: C_4  and  N_6 
REMARK       I    between atoms: N_6  and  C_7 
REMARK    4  A    between atoms: C_7  and  C_9 
REMARK    5  A    between atoms: C_9  and  N_11 
REMARK       I    between atoms: N_11  and  C_12 
REMARK    6  A    between atoms: C_12  and  O_14 
REMARK    7  A    between atoms: O_14  and  C_15 
ROOT
HETATM    1  C   UNK N   1      29.305  24.535  -3.309  0.00  0.00     0.174 C 
HETATM    2  C   UNK N   1      30.209  25.640  -3.840  0.00  0.00     0.042 C 
ENDROOT
BRANCH   1   3
HETATM    3  C   UNK N   1      27.915  24.640  -3.867  0.00  0.00     0.241 C 
HETATM    4  N   UNK N   1      27.757  25.055  -5.150  0.00  0.00    -0.339 N 
HETATM    5  H   UNK N   1      28.317  24.640  -5.844  0.00  0.00     0.164 HD
HETATM    6  O   UNK N   1      26.953  24.525  -3.120  0.00  0.00    -0.271 OA
BRANCH   4   7
HETATM    7  C   UNK N   1      26.817  26.072  -5.554  0.00  0.00     0.182 C 
HETATM    8  C   UNK N   1      25.426  25.527  -5.856  0.00  0.00     0.055 C 
BRANCH   7   9
HETATM    9  N   UNK N   1      26.781  27.032  -4.467  0.00  0.00    -0.347 N 
HETATM   10  H   UNK N   1      27.625  27.220  -3.997  0.00  0.00     0.163 HD
BRANCH   9  11
HETATM   11  C   UNK N   1      25.674  27.687  -4.051  0.00  0.00     0.350 C 
HETATM   12  O   UNK N   1      25.499  27.938  -2.871  0.00  0.00    -0.284 OA
ENDBRANCH   9  11
ENDBRANCH   7   9
ENDBRANCH   4   7
ENDBRANCH   1   3
BRANCH   1  13
HETATM   13  N   UNK N   1      29.916  23.264  -3.611  0.00  0.00    -0.324 N 
HETATM   14  C   UNK N   1      30.621  22.547  -2.700  0.00  0.00     0.362 C 
HETATM   15  O   UNK N   1      30.753  22.955  -1.558  0.00  0.00    -0.238 OA
HETATM   16  H   UNK N   1      29.817  22.899  -4.520  0.00  0.00     0.165 HD
BRANCH  14  17
HETATM   17  O   UNK N   1      31.233  21.404  -3.113  0.00  0.00    -0.294 OA
BRANCH  17  18
HETATM   18  C   UNK N   1      32.417  21.264  -3.826  0.00  0.00     0.061 C 
HETATM   19  C   UNK N   1      32.262  20.134  -4.823  0.00  0.00     0.046 C 
HETATM   20  C   UNK N   1      33.506  20.892  -2.845  0.00  0.00     0.046 C 
HETATM   21  C   UNK N   1      32.871  22.519  -4.564  0.00  0.00     0.046 C 
ENDBRANCH  17  18
ENDBRANCH  14  17
ENDBRANCH   1  13
TORSDOF 7
ENDMDL
MODEL 5
REMARK VINA RESULT:      -5.1      2.745      7.447
REMARK  7 active torsions:
REMARK  status: ('A' for Active; 'I' for Inactive)
REMARK    1  A    between atoms: N_1  and  C_2 
REMARK    2  A    between atoms: N_1  and  C_4 
REMARK    3  A    between atoms: C_4  and  N_6 
REMARK       I    between atoms: N_6  and  C_7 
REMARK    4  A    between atoms: C_7  and  C_9 
REMARK    5  A    between atoms: C_9  and  N_11 
REMARK       I    between atoms: N_11  and  C_12 
REMARK    6  A    between atoms: C_12  and  O_14 
REMARK    7  A    between atoms: O_14  and  C_15 
ROOT
HETATM    1  C   UNK N   1      34.058  16.318   9.466  0.00  0.00     0.174 C 
HETATM    2  C   UNK N   1      33.146  15.152   9.825  0.00  0.00     0.042 C 
ENDROOT
BRANCH   1   3
HETATM    3  C   UNK N   1      35.400  16.197  10.128  0.00  0.00     0.241 C 
HETATM    4  N   UNK N   1      35.866  14.959  10.436  0.00  0.00    -0.339 N 
HETATM    5  H   UNK N   1      35.821  14.261   9.744  0.00  0.00     0.164 HD
HETATM    6  O   UNK N   1      35.966  17.201  10.536  0.00  0.00    -0.271 OA
BRANCH   4   7
HETATM    7  C   UNK N   1      36.422  14.608  11.720  0.00  0.00     0.182 C 
HETATM    8  C   UNK N   1      35.414  13.959  12.662  0.00  0.00     0.055 C 
BRANCH   7   9
HETATM    9  N   UNK N   1      37.530  13.714  11.441  0.00  0.00    -0.347 N 
HETATM   10  H   UNK N   1      37.908  13.209  12.196  0.00  0.00     0.163 HD
BRANCH   9  11
HETATM   11  C   UNK N   1      38.082  13.524  10.221  0.00  0.00     0.350 C 
HETATM   12  O   UNK N   1      38.602  14.445   9.617  0.00  0.00    -0.284 OA
ENDBRANCH   9  11
ENDBRANCH   7   9
ENDBRANCH   4   7
ENDBRANCH   1   3
BRANCH   1  13
HETATM   13  N   UNK N   1      34.167  16.383   8.029  0.00  0.00    -0.324 N 
HETATM   14  C   UNK N   1      34.145  17.550   7.338  0.00  0.00     0.362 C 
HETATM   15  O   UNK N   1      34.047  18.616   7.924  0.00  0.00    -0.238 OA
HETATM   16  H   UNK N   1      34.261  15.542   7.526  0.00  0.00     0.165 HD
BRANCH  14  17
HETATM   17  O   UNK N   1      34.163  17.495   5.978  0.00  0.00    -0.294 OA
BRANCH  17  18
HETATM   18  C   UNK N   1      33.266  16.864   5.125  0.00  0.00     0.061 C 
HETATM   19  C   UNK N   1      33.905  15.601   4.585  0.00  0.00     0.046 C 
HETATM   20  C   UNK N   1      32.995  17.797   3.966  0.00  0.00     0.046 C 
HETATM   21  C   UNK N   1      31.924  16.511   5.756  0.00  0.00     0.046 C 
ENDBRANCH  17  18
ENDBRANCH  14  17
ENDBRANCH   1  13
TORSDOF 7
ENDMDL
MODEL 6
REMARK VINA RESULT:      -5.1     17.567     21.970
REMARK  7 active torsions:
REMARK  status: ('A' for Active; 'I' for Inactive)
REMARK    1  A    between atoms: N_1  and  C_2 
REMARK    2  A    between atoms: N_1  and  C_4 
REMARK    3  A    between atoms: C_4  and  N_6 
REMARK       I    between atoms: N_6  and  C_7 
REMARK    4  A    between atoms: C_7  and  C_9 
REMARK    5  A    between atoms: C_9  and  N_11 
REMARK       I    between atoms: N_11  and  C_12 
REMARK    6  A    between atoms: C_12  and  O_14 
REMARK    7  A    between atoms: O_14  and  C_15 
ROOT
HETATM    1  C   UNK N   1      25.910  25.550  -4.555  0.00  0.00     0.174 C 
HETATM    2  C   UNK N   1      25.471  24.831  -5.823  0.00  0.00     0.042 C 
ENDROOT
BRANCH   1   3
HETATM    3  C   UNK N   1      26.959  24.773  -3.812  0.00  0.00     0.241 C 
HETATM    4  N   UNK N   1      28.189  24.640  -4.371  0.00  0.00    -0.339 N 
HETATM    5  H   UNK N   1      28.625  25.446  -4.730  0.00  0.00     0.164 HD
HETATM    6  O   UNK N   1      26.647  24.133  -2.818  0.00  0.00    -0.271 OA
BRANCH   4   7
HETATM    7  C   UNK N   1      28.893  23.386  -4.470  0.00  0.00     0.182 C 
HETATM    8  C   UNK N   1      29.532  23.153  -5.834  0.00  0.00     0.055 C 
BRANCH   7   9
HETATM    9  N   UNK N   1      29.893  23.408  -3.419  0.00  0.00    -0.347 N 
HETATM   10  H   UNK N   1      30.799  23.708  -3.660  0.00  0.00     0.163 HD
BRANCH   9  11
HETATM   11  C   UNK N   1      29.674  23.048  -2.135  0.00  0.00     0.350 C 
HETATM   12  O   UNK N   1      30.597  22.937  -1.347  0.00  0.00    -0.284 OA
ENDBRANCH   9  11
ENDBRANCH   7   9
ENDBRANCH   4   7
ENDBRANCH   1   3
BRANCH   1  13
HETATM   13  N   UNK N   1      26.366  26.870  -4.915  0.00  0.00    -0.324 N 
HETATM   14  C   UNK N   1      26.043  27.983  -4.209  0.00  0.00     0.362 C 
HETATM   15  O   UNK N   1      25.350  27.902  -3.208  0.00  0.00    -0.238 OA
HETATM   16  H   UNK N   1      26.939  26.968  -5.710  0.00  0.00     0.165 HD
BRANCH  14  17
HETATM   17  O   UNK N   1      26.451  29.190  -4.687  0.00  0.00    -0.294 OA
BRANCH  17  18
HETATM   18  C   UNK N   1      27.399  30.055  -4.158  0.00  0.00     0.061 C 
HETATM   19  C   UNK N   1      28.353  29.266  -3.286  0.00  0.00     0.046 C 
HETATM   20  C   UNK N   1      26.676  31.060  -3.290  0.00  0.00     0.046 C 
HETATM   21  C   UNK N   1      28.202  30.834  -5.194  0.00  0.00     0.046 C 
ENDBRANCH  17  18
ENDBRANCH  14  17
ENDBRANCH   1  13
TORSDOF 7
ENDMDL
MODEL 7
REMARK VINA RESULT:      -5.0     13.259     15.218
REMARK  7 active torsions:
REMARK  status: ('A' for Active; 'I' for Inactive)
REMARK    1  A    between atoms: N_1  and  C_2 
REMARK    2  A    between atoms: N_1  and  C_4 
REMARK    3  A    between atoms: C_4  and  N_6 
REMARK       I    between atoms: N_6  and  C_7 
REMARK    4  A    between atoms: C_7  and  C_9 
REMARK    5  A    between atoms: C_9  and  N_11 
REMARK       I    between atoms: N_11  and  C_12 
REMARK    6  A    between atoms: C_12  and  O_14 
REMARK    7  A    between atoms: O_14  and  C_15 
ROOT
HETATM    1  C   UNK N   1      19.685  16.140   8.258  0.00  0.00     0.174 C 
HETATM    2  C   UNK N   1      19.613  17.540   8.854  0.00  0.00     0.042 C 
ENDROOT
BRANCH   1   3
HETATM    3  C   UNK N   1      19.715  16.176   6.757  0.00  0.00     0.241 C 
HETATM    4  N   UNK N   1      20.863  16.552   6.137  0.00  0.00    -0.339 N 
HETATM    5  H   UNK N   1      21.706  16.141   6.433  0.00  0.00     0.164 HD
HETATM    6  O   UNK N   1      18.674  16.043   6.129  0.00  0.00    -0.271 OA
BRANCH   4   7
HETATM    7  C   UNK N   1      20.916  17.520   5.069  0.00  0.00     0.182 C 
HETATM    8  C   UNK N   1      22.248  18.258   4.984  0.00  0.00     0.055 C 
BRANCH   7   9
HETATM    9  N   UNK N   1      20.647  16.781   3.850  0.00  0.00    -0.347 N 
HETATM   10  H   UNK N   1      21.029  15.877   3.773  0.00  0.00     0.163 HD
BRANCH   9  11
HETATM   11  C   UNK N   1      19.913  17.242   2.813  0.00  0.00     0.350 C 
HETATM   12  O   UNK N   1      19.336  18.314   2.878  0.00  0.00    -0.284 OA
ENDBRANCH   9  11
ENDBRANCH   7   9
ENDBRANCH   4   7
ENDBRANCH   1   3
BRANCH   1  13
HETATM   13  N   UNK N   1      20.841  15.472   8.807  0.00  0.00    -0.324 N 
HETATM   14  C   UNK N   1      20.758  14.338   9.546  0.00  0.00     0.362 C 
HETATM   15  O   UNK N   1      19.675  13.818   9.764  0.00  0.00    -0.238 OA
HETATM   16  H   UNK N   1      21.731  15.858   8.638  0.00  0.00     0.165 HD
BRANCH  14  17
HETATM   17  O   UNK N   1      21.900  13.839  10.093  0.00  0.00    -0.294 OA
BRANCH  17  18
HETATM   18  C   UNK N   1      22.662  12.758   9.670  0.00  0.00     0.061 C 
HETATM   19  C   UNK N   1      22.553  11.648  10.694  0.00  0.00     0.046 C 
HETATM   20  C   UNK N   1      24.105  13.207   9.603  0.00  0.00     0.046 C 
HETATM   21  C   UNK N   1      22.287  12.208   8.299  0.00  0.00     0.046 C 
ENDBRANCH  17  18
ENDBRANCH  14  17
ENDBRANCH   1  13
TORSDOF 7
ENDMDL
MODEL 8
REMARK VINA RESULT:      -4.9      2.138      6.872
REMARK  7 active torsions:
REMARK  status: ('A' for Active; 'I' for Inactive)
REMARK    1  A    between atoms: N_1  and  C_2 
REMARK    2  A    between atoms: N_1  and  C_4 
REMARK    3  A    between atoms: C_4  and  N_6 
REMARK       I    between atoms: N_6  and  C_7 
REMARK    4  A    between atoms: C_7  and  C_9 
REMARK    5  A    between atoms: C_9  and  N_11 
REMARK       I    between atoms: N_11  and  C_12 
REMARK    6  A    between atoms: C_12  and  O_14 
REMARK    7  A    between atoms: O_14  and  C_15 
ROOT
HETATM    1  C   UNK N   1      36.438  13.859  10.392  0.00  0.00     0.174 C 
HETATM    2  C   UNK N   1      37.940  13.646  10.254  0.00  0.00     0.042 C 
ENDROOT
BRANCH   1   3
HETATM    3  C   UNK N   1      36.031  14.022  11.828  0.00  0.00     0.241 C 
HETATM    4  N   UNK N   1      36.872  13.579  12.798  0.00  0.00    -0.339 N 
HETATM    5  H   UNK N   1      37.822  13.827  12.737  0.00  0.00     0.164 HD
HETATM    6  O   UNK N   1      34.893  14.381  12.097  0.00  0.00    -0.271 OA
BRANCH   4   7
HETATM    7  C   UNK N   1      36.451  12.766  13.912  0.00  0.00     0.182 C 
HETATM    8  C   UNK N   1      37.540  11.832  14.428  0.00  0.00     0.055 C 
BRANCH   7   9
HETATM    9  N   UNK N   1      36.027  13.695  14.942  0.00  0.00    -0.347 N 
HETATM   10  H   UNK N   1      35.067  13.907  14.997  0.00  0.00     0.163 HD
BRANCH   9  11
HETATM   11  C   UNK N   1      36.850  14.292  15.833  0.00  0.00     0.350 C 
HETATM   12  O   UNK N   1      37.551  15.235  15.507  0.00  0.00    -0.284 OA
ENDBRANCH   9  11
ENDBRANCH   7   9
ENDBRANCH   4   7
ENDBRANCH   1   3
BRANCH   1  13
HETATM   13  N   UNK N   1      36.065  14.999   9.590  0.00  0.00    -0.324 N 
HETATM   14  C   UNK N   1      35.375  14.890   8.426  0.00  0.00     0.362 C 
HETATM   15  O   UNK N   1      35.021  13.797   8.015  0.00  0.00    -0.238 OA
HETATM   16  H   UNK N   1      36.323  15.896   9.900  0.00  0.00     0.165 HD
BRANCH  14  17
HETATM   17  O   UNK N   1      35.153  16.021   7.701  0.00  0.00    -0.294 OA
BRANCH  17  18
HETATM   18  C   UNK N   1      34.067  16.885   7.755  0.00  0.00     0.061 C 
HETATM   19  C   UNK N   1      33.522  17.078   6.355  0.00  0.00     0.046 C 
HETATM   20  C   UNK N   1      34.563  18.219   8.264  0.00  0.00     0.046 C 
HETATM   21  C   UNK N   1      32.936  16.433   8.671  0.00  0.00     0.046 C 
ENDBRANCH  17  18
ENDBRANCH  14  17
ENDBRANCH   1  13
TORSDOF 7
ENDMDL
MODEL 9
REMARK VINA RESULT:      -4.8      2.415      6.832
REMARK  7 active torsions:
REMARK  status: ('A' for Active; 'I' for Inactive)
REMARK    1  A    between atoms: N_1  and  C_2 
REMARK    2  A    between atoms: N_1  and  C_4 
REMARK    3  A    between atoms: C_4  and  N_6 
REMARK       I    between atoms: N_6  and  C_7 
REMARK    4  A    between atoms: C_7  and  C_9 
REMARK    5  A    between atoms: C_9  and  N_11 
REMARK       I    between atoms: N_11  and  C_12 
REMARK    6  A    between atoms: C_12  and  O_14 
REMARK    7  A    between atoms: O_14  and  C_15 
ROOT
HETATM    1  C   UNK N   1      35.924  14.071  12.012  0.00  0.00     0.174 C 
HETATM    2  C   UNK N   1      35.974  14.410  13.496  0.00  0.00     0.042 C 
ENDROOT
BRANCH   1   3
HETATM    3  C   UNK N   1      35.474  12.657  11.782  0.00  0.00     0.241 C 
HETATM    4  N   UNK N   1      34.434  12.176  12.510  0.00  0.00    -0.339 N 
HETATM    5  H   UNK N   1      33.624  12.730  12.582  0.00  0.00     0.164 HD
HETATM    6  O   UNK N   1      36.150  11.914  11.084  0.00  0.00    -0.271 OA
BRANCH   4   7
HETATM    7  C   UNK N   1      34.450  10.902  13.186  0.00  0.00     0.182 C 
HETATM    8  C   UNK N   1      33.716  10.913  14.522  0.00  0.00     0.055 C 
BRANCH   7   9
HETATM    9  N   UNK N   1      33.847   9.958  12.264  0.00  0.00    -0.347 N 
HETATM   10  H   UNK N   1      32.895  10.079  12.046  0.00  0.00     0.163 HD
BRANCH   9  11
HETATM   11  C   UNK N   1      34.495   8.924  11.683  0.00  0.00     0.350 C 
HETATM   12  O   UNK N   1      34.638   8.872  10.473  0.00  0.00    -0.284 OA
ENDBRANCH   9  11
ENDBRANCH   7   9
ENDBRANCH   4   7
ENDBRANCH   1   3
BRANCH   1  13
HETATM   13  N   UNK N   1      35.065  15.027  11.356  0.00  0.00    -0.324 N 
HETATM   14  C   UNK N   1      35.536  16.123  10.711  0.00  0.00     0.362 C 
HETATM   15  O   UNK N   1      36.736  16.336  10.645  0.00  0.00    -0.238 OA
HETATM   16  H   UNK N   1      34.092  14.877  11.378  0.00  0.00     0.165 HD
BRANCH  14  17
HETATM   17  O   UNK N   1      34.635  17.009  10.204  0.00  0.00    -0.294 OA
BRANCH  17  18
HETATM   18  C   UNK N   1      34.160  17.111   8.903  0.00  0.00     0.061 C 
HETATM   19  C   UNK N   1      34.680  15.941   8.094  0.00  0.00     0.046 C 
HETATM   20  C   UNK N   1      34.711  18.387   8.308  0.00  0.00     0.046 C 
HETATM   21  C   UNK N   1      32.641  17.164   8.780  0.00  0.00     0.046 C 
ENDBRANCH  17  18
ENDBRANCH  14  17
ENDBRANCH   1  13
TORSDOF 7
ENDMDL
