MODEL 1
REMARK VINA RESULT:      -7.9      0.000      0.000
REMARK  11 active torsions:
REMARK  status: ('A' for Active; 'I' for Inactive)
REMARK    1  A    between atoms: O_1  and  N_2 
REMARK       I    between atoms: N_2  and  C_3 
REMARK    2  A    between atoms: C_3  and  C_5 
REMARK    3  A    between atoms: C_5  and  C_6 
REMARK    4  A    between atoms: C_5  and  C_13 
REMARK    5  A    between atoms: C_6  and  C_7 
REMARK       I    between atoms: C_13  and  N_15 
REMARK    6  A    between atoms: N_15  and  C_16 
REMARK    7  A    between atoms: C_16  and  C_18 
REMARK       I    between atoms: C_18  and  N_20 
REMARK    8  A    between atoms: N_20  and  C_21 
REMARK    9  A    between atoms: C_21  and  C_22 
REMARK       I    between atoms: C_22  and  N_33 
REMARK   10  A    between atoms: C_24  and  N_33 
REMARK   11  A    between atoms: C_27  and  N_30 
ROOT
HETATM    1  C   UNK N   1      21.495  17.472   4.173  0.00  0.00     0.172 C 
HETATM    2  C   UNK N   1      21.366  15.984   4.459  0.00  0.00     0.042 C 
ENDROOT
BRANCH   1   3
HETATM    3  N   UNK N   1      20.155  17.936   3.900  0.00  0.00    -0.347 N 
HETATM    4  C   UNK N   1      19.713  18.514   2.758  0.00  0.00     0.232 C 
HETATM    5  O   UNK N   1      18.529  18.803   2.688  0.00  0.00    -0.273 OA
HETATM    6  H   UNK N   1      19.493  17.820   4.619  0.00  0.00     0.163 HD
BRANCH   4   7
HETATM    7  C   UNK N   1      20.625  18.768   1.564  0.00  0.00     0.176 C 
BRANCH   7   8
HETATM    8  C   UNK N   1      20.845  20.237   1.226  0.00  0.00     0.254 C 
HETATM    9  N   UNK N   1      20.844  21.217   2.162  0.00  0.00    -0.237 N 
HETATM   10  H   UNK N   1      20.963  22.151   1.874  0.00  0.00     0.197 HD
HETATM   11  O   UNK N   1      21.062  20.541   0.063  0.00  0.00    -0.270 OA
BRANCH   9  12
HETATM   12  O   UNK N   1      20.687  20.960   3.467  0.00  0.00    -0.287 OA
HETATM   13  H   UNK N   1      20.833  20.390   4.238  0.00  0.00     0.244 HD
ENDBRANCH   9  12
ENDBRANCH   7   8
BRANCH   7  14
HETATM   14  C   UNK N   1      20.312  17.945   0.297  0.00  0.00     0.062 C 
BRANCH  14  15
HETATM   15  C   UNK N   1      20.039  16.481   0.438  0.00  0.00    -0.057 A 
HETATM   16  C   UNK N   1      18.808  15.983  -0.002  0.00  0.00     0.007 A 
HETATM   17  C   UNK N   1      18.509  14.624   0.133  0.00  0.00     0.001 A 
HETATM   18  C   UNK N   1      19.443  13.759   0.707  0.00  0.00     0.000 A 
HETATM   19  C   UNK N   1      20.673  14.254   1.154  0.00  0.00     0.001 A 
HETATM   20  C   UNK N   1      20.966  15.615   1.026  0.00  0.00     0.007 A 
ENDBRANCH  14  15
ENDBRANCH   7  14
ENDBRANCH   4   7
ENDBRANCH   1   3
BRANCH   1  21
HETATM   21  C   UNK N   1      22.044  18.265   5.350  0.00  0.00     0.240 C 
HETATM   22  O   UNK N   1      21.290  18.585   6.255  0.00  0.00    -0.271 OA
HETATM   23  N   UNK N   1      23.329  18.688   5.407  0.00  0.00    -0.351 N 
HETATM   24  H   UNK N   1      23.637  19.140   6.225  0.00  0.00     0.163 HD
BRANCH  23  25
HETATM   25  C   UNK N   1      24.260  18.508   4.332  0.00  0.00     0.225 C 
BRANCH  25  26
HETATM   26  C   UNK N   1      24.430  19.839   3.686  0.00  0.00     0.239 C 
HETATM   27  O   UNK N   1      23.605  20.198   2.865  0.00  0.00    -0.271 OA
HETATM   28  N   UNK N   1      25.476  20.655   3.976  0.00  0.00    -0.326 N 
HETATM   29  H   UNK N   1      25.450  21.572   3.618  0.00  0.00     0.169 HD
BRANCH  28  30
HETATM   30  C   UNK N   1      26.606  20.289   4.756  0.00  0.00     0.034 A 
HETATM   31  C   UNK N   1      27.499  19.387   4.187  0.00  0.00     0.032 A 
HETATM   32  C   UNK N   1      28.351  18.646   4.999  0.00  0.00     0.038 A 
HETATM   33  C   UNK N   1      28.315  18.804   6.391  0.00  0.00     0.103 A 
HETATM   34  C   UNK N   1      27.522  19.812   6.951  0.00  0.00     0.038 A 
HETATM   35  C   UNK N   1      26.670  20.545   6.137  0.00  0.00     0.032 A 
BRANCH  33  36
HETATM   36  N   UNK N   1      28.955  17.856   7.228  0.00  0.00    -0.116 N 
HETATM   37  O   UNK N   1      29.964  17.154   6.756  0.00  0.00    -0.532 OA
HETATM   38  O   UNK N   1      28.440  17.521   8.250  0.00  0.00    -0.532 OA
ENDBRANCH  33  36
ENDBRANCH  28  30
ENDBRANCH  25  26
ENDBRANCH  23  25
ENDBRANCH   1  21
TORSDOF 11
ENDMDL
MODEL 2
REMARK VINA RESULT:      -7.5      5.756      8.738
REMARK  11 active torsions:
REMARK  status: ('A' for Active; 'I' for Inactive)
REMARK    1  A    between atoms: O_1  and  N_2 
REMARK       I    between atoms: N_2  and  C_3 
REMARK    2  A    between atoms: C_3  and  C_5 
REMARK    3  A    between atoms: C_5  and  C_6 
REMARK    4  A    between atoms: C_5  and  C_13 
REMARK    5  A    between atoms: C_6  and  C_7 
REMARK       I    between atoms: C_13  and  N_15 
REMARK    6  A    between atoms: N_15  and  C_16 
REMARK    7  A    between atoms: C_16  and  C_18 
REMARK       I    between atoms: C_18  and  N_20 
REMARK    8  A    between atoms: N_20  and  C_21 
REMARK    9  A    between atoms: C_21  and  C_22 
REMARK       I    between atoms: C_22  and  N_33 
REMARK   10  A    between atoms: C_24  and  N_33 
REMARK   11  A    between atoms: C_27  and  N_30 
ROOT
HETATM    1  C   UNK N   1      28.336  16.242   4.160  0.00  0.00     0.172 C 
HETATM    2  C   UNK N   1      27.313  16.418   3.048  0.00  0.00     0.042 C 
ENDROOT
BRANCH   1   3
HETATM    3  N   UNK N   1      27.576  15.908   5.342  0.00  0.00    -0.347 N 
HETATM    4  C   UNK N   1      27.553  16.589   6.512  0.00  0.00     0.232 C 
HETATM    5  O   UNK N   1      26.813  16.184   7.393  0.00  0.00    -0.273 OA
HETATM    6  H   UNK N   1      27.015  15.102   5.292  0.00  0.00     0.163 HD
BRANCH   4   7
HETATM    7  C   UNK N   1      28.378  17.850   6.740  0.00  0.00     0.176 C 
BRANCH   7   8
HETATM    8  C   UNK N   1      29.261  17.825   7.981  0.00  0.00     0.254 C 
HETATM    9  N   UNK N   1      28.768  17.940   9.239  0.00  0.00    -0.237 N 
HETATM   10  H   UNK N   1      29.395  17.946   9.998  0.00  0.00     0.197 HD
HETATM   11  O   UNK N   1      30.463  17.663   7.839  0.00  0.00    -0.270 OA
BRANCH   9  12
HETATM   12  O   UNK N   1      27.456  18.047   9.485  0.00  0.00    -0.287 OA
HETATM   13  H   UNK N   1      26.548  18.195   9.176  0.00  0.00     0.244 HD
ENDBRANCH   9  12
ENDBRANCH   7   8
BRANCH   7  14
HETATM   14  C   UNK N   1      27.606  19.183   6.633  0.00  0.00     0.062 C 
BRANCH  14  15
HETATM   15  C   UNK N   1      26.836  19.471   5.383  0.00  0.00    -0.057 A 
HETATM   16  C   UNK N   1      27.485  20.128   4.332  0.00  0.00     0.007 A 
HETATM   17  C   UNK N   1      26.792  20.433   3.157  0.00  0.00     0.001 A 
HETATM   18  C   UNK N   1      25.448  20.079   3.030  0.00  0.00     0.000 A 
HETATM   19  C   UNK N   1      24.793  19.427   4.081  0.00  0.00     0.001 A 
HETATM   20  C   UNK N   1      25.486  19.131   5.259  0.00  0.00     0.007 A 
ENDBRANCH  14  15
ENDBRANCH   7  14
ENDBRANCH   4   7
ENDBRANCH   1   3
BRANCH   1  21
HETATM   21  C   UNK N   1      29.325  15.117   3.895  0.00  0.00     0.240 C 
HETATM   22  O   UNK N   1      28.902  13.992   3.679  0.00  0.00    -0.271 OA
HETATM   23  N   UNK N   1      30.666  15.298   3.951  0.00  0.00    -0.351 N 
HETATM   24  H   UNK N   1      31.250  14.545   3.705  0.00  0.00     0.163 HD
BRANCH  23  25
HETATM   25  C   UNK N   1      31.273  16.534   4.350  0.00  0.00     0.225 C 
BRANCH  25  26
HETATM   26  C   UNK N   1      32.678  16.497   3.861  0.00  0.00     0.239 C 
HETATM   27  O   UNK N   1      32.877  16.346   2.668  0.00  0.00    -0.271 OA
HETATM   28  N   UNK N   1      33.739  16.616   4.700  0.00  0.00    -0.326 N 
HETATM   29  H   UNK N   1      34.631  16.722   4.295  0.00  0.00     0.169 HD
BRANCH  28  30
HETATM   30  C   UNK N   1      33.664  16.599   6.119  0.00  0.00     0.034 A 
HETATM   31  C   UNK N   1      33.810  17.819   6.773  0.00  0.00     0.032 A 
HETATM   32  C   UNK N   1      34.193  17.850   8.109  0.00  0.00     0.038 A 
HETATM   33  C   UNK N   1      34.430  16.657   8.804  0.00  0.00     0.103 A 
HETATM   34  C   UNK N   1      34.144  15.432   8.190  0.00  0.00     0.038 A 
HETATM   35  C   UNK N   1      33.768  15.407   6.855  0.00  0.00     0.032 A 
BRANCH  33  36
HETATM   36  N   UNK N   1      35.098  16.686  10.054  0.00  0.00    -0.116 N 
HETATM   37  O   UNK N   1      34.722  15.858  11.007  0.00  0.00    -0.532 OA
HETATM   38  O   UNK N   1      35.813  17.601  10.326  0.00  0.00    -0.532 OA
ENDBRANCH  33  36
ENDBRANCH  28  30
ENDBRANCH  25  26
ENDBRANCH  23  25
ENDBRANCH   1  21
TORSDOF 11
ENDMDL
MODEL 3
REMARK VINA RESULT:      -7.5     10.939     14.002
REMARK  11 active torsions:
REMARK  status: ('A' for Active; 'I' for Inactive)
REMARK    1  A    between atoms: O_1  and  N_2 
REMARK       I    between atoms: N_2  and  C_3 
REMARK    2  A    between atoms: C_3  and  C_5 
REMARK    3  A    between atoms: C_5  and  C_6 
REMARK    4  A    between atoms: C_5  and  C_13 
REMARK    5  A    between atoms: C_6  and  C_7 
REMARK       I    between atoms: C_13  and  N_15 
REMARK    6  A    between atoms: N_15  and  C_16 
REMARK    7  A    between atoms: C_16  and  C_18 
REMARK       I    between atoms: C_18  and  N_20 
REMARK    8  A    between atoms: N_20  and  C_21 
REMARK    9  A    between atoms: C_21  and  C_22 
REMARK       I    between atoms: C_22  and  N_33 
REMARK   10  A    between atoms: C_24  and  N_33 
REMARK   11  A    between atoms: C_27  and  N_30 
ROOT
HETATM    1  C   UNK N   1      29.498  26.151  -5.805  0.00  0.00     0.172 C 
HETATM    2  C   UNK N   1      29.674  25.729  -7.256  0.00  0.00     0.042 C 
ENDROOT
BRANCH   1   3
HETATM    3  N   UNK N   1      30.710  25.748  -5.130  0.00  0.00    -0.347 N 
HETATM    4  C   UNK N   1      30.930  24.576  -4.487  0.00  0.00     0.232 C 
HETATM    5  O   UNK N   1      32.038  24.388  -4.011  0.00  0.00    -0.273 OA
HETATM    6  H   UNK N   1      31.454  26.391  -5.139  0.00  0.00     0.163 HD
BRANCH   4   7
HETATM    7  C   UNK N   1      29.868  23.489  -4.382  0.00  0.00     0.176 C 
BRANCH   7   8
HETATM    8  C   UNK N   1      29.119  23.450  -3.056  0.00  0.00     0.254 C 
HETATM    9  N   UNK N   1      29.710  23.105  -1.886  0.00  0.00    -0.237 N 
HETATM   10  H   UNK N   1      29.163  23.070  -1.068  0.00  0.00     0.197 HD
HETATM   11  O   UNK N   1      27.940  23.772  -3.041  0.00  0.00    -0.270 OA
BRANCH   9  12
HETATM   12  O   UNK N   1      31.014  22.810  -1.803  0.00  0.00    -0.287 OA
HETATM   13  H   UNK N   1      31.826  22.713  -1.281  0.00  0.00     0.244 HD
ENDBRANCH   9  12
ENDBRANCH   7   8
BRANCH   7  14
HETATM   14  C   UNK N   1      30.312  22.076  -4.813  0.00  0.00     0.062 C 
BRANCH  14  15
HETATM   15  C   UNK N   1      29.687  21.462  -6.026  0.00  0.00    -0.057 A 
HETATM   16  C   UNK N   1      28.659  22.155  -6.674  0.00  0.00     0.007 A 
HETATM   17  C   UNK N   1      28.036  21.604  -7.797  0.00  0.00     0.001 A 
HETATM   18  C   UNK N   1      28.443  20.357  -8.276  0.00  0.00     0.000 A 
HETATM   19  C   UNK N   1      29.467  19.658  -7.628  0.00  0.00     0.001 A 
HETATM   20  C   UNK N   1      30.082  20.208  -6.499  0.00  0.00     0.007 A 
ENDBRANCH  14  15
ENDBRANCH   7  14
ENDBRANCH   4   7
ENDBRANCH   1   3
BRANCH   1  21
HETATM   21  C   UNK N   1      29.332  27.653  -5.631  0.00  0.00     0.240 C 
HETATM   22  O   UNK N   1      29.994  28.409  -6.324  0.00  0.00    -0.271 OA
HETATM   23  N   UNK N   1      28.521  28.191  -4.690  0.00  0.00    -0.351 N 
HETATM   24  H   UNK N   1      28.409  29.169  -4.673  0.00  0.00     0.163 HD
BRANCH  23  25
HETATM   25  C   UNK N   1      27.818  27.405  -3.719  0.00  0.00     0.225 C 
BRANCH  25  26
HETATM   26  C   UNK N   1      26.389  27.814  -3.792  0.00  0.00     0.239 C 
HETATM   27  O   UNK N   1      25.960  28.586  -2.953  0.00  0.00    -0.271 OA
HETATM   28  N   UNK N   1      25.551  27.347  -4.753  0.00  0.00    -0.326 N 
HETATM   29  H   UNK N   1      24.661  27.764  -4.823  0.00  0.00     0.169 HD
BRANCH  28  30
HETATM   30  C   UNK N   1      25.857  26.303  -5.667  0.00  0.00     0.034 A 
HETATM   31  C   UNK N   1      26.035  26.662  -6.999  0.00  0.00     0.032 A 
HETATM   32  C   UNK N   1      25.891  25.709  -8.002  0.00  0.00     0.038 A 
HETATM   33  C   UNK N   1      25.570  24.385  -7.676  0.00  0.00     0.103 A 
HETATM   34  C   UNK N   1      25.534  23.993  -6.333  0.00  0.00     0.038 A 
HETATM   35  C   UNK N   1      25.672  24.949  -5.337  0.00  0.00     0.032 A 
BRANCH  33  36
HETATM   36  N   UNK N   1      25.135  23.493  -8.689  0.00  0.00    -0.116 N 
HETATM   37  O   UNK N   1      25.211  23.861  -9.950  0.00  0.00    -0.532 OA
HETATM   38  O   UNK N   1      24.488  22.534  -8.399  0.00  0.00    -0.532 OA
ENDBRANCH  33  36
ENDBRANCH  28  30
ENDBRANCH  25  26
ENDBRANCH  23  25
ENDBRANCH   1  21
TORSDOF 11
ENDMDL
MODEL 4
REMARK VINA RESULT:      -7.4     11.141     13.758
REMARK  11 active torsions:
REMARK  status: ('A' for Active; 'I' for Inactive)
REMARK    1  A    between atoms: O_1  and  N_2 
REMARK       I    between atoms: N_2  and  C_3 
REMARK    2  A    between atoms: C_3  and  C_5 
REMARK    3  A    between atoms: C_5  and  C_6 
REMARK    4  A    between atoms: C_5  and  C_13 
REMARK    5  A    between atoms: C_6  and  C_7 
REMARK       I    between atoms: C_13  and  N_15 
REMARK    6  A    between atoms: N_15  and  C_16 
REMARK    7  A    between atoms: C_16  and  C_18 
REMARK       I    between atoms: C_18  and  N_20 
REMARK    8  A    between atoms: N_20  and  C_21 
REMARK    9  A    between atoms: C_21  and  C_22 
REMARK       I    between atoms: C_22  and  N_33 
REMARK   10  A    between atoms: C_24  and  N_33 
REMARK   11  A    between atoms: C_27  and  N_30 
ROOT
HETATM    1  C   UNK N   1      27.307  26.513  -7.720  0.00  0.00     0.172 C 
HETATM    2  C   UNK N   1      28.065  27.832  -7.682  0.00  0.00     0.042 C 
ENDROOT
BRANCH   1   3
HETATM    3  N   UNK N   1      25.984  26.807  -7.223  0.00  0.00    -0.347 N 
HETATM    4  C   UNK N   1      25.518  26.582  -5.971  0.00  0.00     0.232 C 
HETATM    5  O   UNK N   1      24.380  26.938  -5.714  0.00  0.00    -0.273 OA
HETATM    6  H   UNK N   1      25.354  27.214  -7.859  0.00  0.00     0.163 HD
BRANCH   4   7
HETATM    7  C   UNK N   1      26.376  25.949  -4.882  0.00  0.00     0.176 C 
BRANCH   7   8
HETATM    8  C   UNK N   1      25.960  24.540  -4.476  0.00  0.00     0.254 C 
HETATM    9  N   UNK N   1      25.392  23.662  -5.338  0.00  0.00    -0.237 N 
HETATM   10  H   UNK N   1      25.119  22.777  -5.005  0.00  0.00     0.197 HD
HETATM   11  O   UNK N   1      26.177  24.176  -3.330  0.00  0.00    -0.270 OA
BRANCH   9  12
HETATM   12  O   UNK N   1      25.188  23.957  -6.628  0.00  0.00    -0.287 OA
HETATM   13  H   UNK N   1      25.517  24.274  -7.484  0.00  0.00     0.244 HD
ENDBRANCH   9  12
ENDBRANCH   7   8
BRANCH   7  14
HETATM   14  C   UNK N   1      26.642  26.830  -3.643  0.00  0.00     0.062 C 
BRANCH  14  15
HETATM   15  C   UNK N   1      27.173  28.214  -3.844  0.00  0.00    -0.057 A 
HETATM   16  C   UNK N   1      26.276  29.287  -3.817  0.00  0.00     0.007 A 
HETATM   17  C   UNK N   1      26.732  30.593  -4.023  0.00  0.00     0.001 A 
HETATM   18  C   UNK N   1      28.089  30.827  -4.254  0.00  0.00     0.000 A 
HETATM   19  C   UNK N   1      28.989  29.756  -4.288  0.00  0.00     0.001 A 
HETATM   20  C   UNK N   1      28.529  28.451  -4.091  0.00  0.00     0.007 A 
ENDBRANCH  14  15
ENDBRANCH   7  14
ENDBRANCH   4   7
ENDBRANCH   1   3
BRANCH   1  21
HETATM   21  C   UNK N   1      27.173  25.937  -9.122  0.00  0.00     0.240 C 
HETATM   22  O   UNK N   1      26.411  26.471  -9.914  0.00  0.00    -0.271 OA
HETATM   23  N   UNK N   1      27.820  24.814  -9.513  0.00  0.00    -0.351 N 
HETATM   24  H   UNK N   1      27.741  24.531 -10.453  0.00  0.00     0.163 HD
BRANCH  23  25
HETATM   25  C   UNK N   1      28.614  24.019  -8.624  0.00  0.00     0.225 C 
BRANCH  25  26
HETATM   26  C   UNK N   1      27.743  22.907  -8.151  0.00  0.00     0.239 C 
HETATM   27  O   UNK N   1      26.717  22.670  -8.764  0.00  0.00    -0.271 OA
HETATM   28  N   UNK N   1      28.051  22.161  -7.059  0.00  0.00    -0.326 N 
HETATM   29  H   UNK N   1      27.506  21.359  -6.888  0.00  0.00     0.169 HD
BRANCH  28  30
HETATM   30  C   UNK N   1      29.099  22.448  -6.144  0.00  0.00     0.034 A 
HETATM   31  C   UNK N   1      29.930  21.391  -5.786  0.00  0.00     0.032 A 
HETATM   32  C   UNK N   1      30.665  21.452  -4.606  0.00  0.00     0.038 A 
HETATM   33  C   UNK N   1      30.573  22.577  -3.776  0.00  0.00     0.103 A 
HETATM   34  C   UNK N   1      29.852  23.696  -4.206  0.00  0.00     0.038 A 
HETATM   35  C   UNK N   1      29.117  23.627  -5.380  0.00  0.00     0.032 A 
BRANCH  33  36
HETATM   36  N   UNK N   1      31.076  22.521  -2.451  0.00  0.00    -0.116 N 
HETATM   37  O   UNK N   1      32.086  21.722  -2.177  0.00  0.00    -0.532 OA
HETATM   38  O   UNK N   1      30.447  22.993  -1.555  0.00  0.00    -0.532 OA
ENDBRANCH  33  36
ENDBRANCH  28  30
ENDBRANCH  25  26
ENDBRANCH  23  25
ENDBRANCH   1  21
TORSDOF 11
ENDMDL
MODEL 5
REMARK VINA RESULT:      -7.3      9.148     15.273
REMARK  11 active torsions:
REMARK  status: ('A' for Active; 'I' for Inactive)
REMARK    1  A    between atoms: O_1  and  N_2 
REMARK       I    between atoms: N_2  and  C_3 
REMARK    2  A    between atoms: C_3  and  C_5 
REMARK    3  A    between atoms: C_5  and  C_6 
REMARK    4  A    between atoms: C_5  and  C_13 
REMARK    5  A    between atoms: C_6  and  C_7 
REMARK       I    between atoms: C_13  and  N_15 
REMARK    6  A    between atoms: N_15  and  C_16 
REMARK    7  A    between atoms: C_16  and  C_18 
REMARK       I    between atoms: C_18  and  N_20 
REMARK    8  A    between atoms: N_20  and  C_21 
REMARK    9  A    between atoms: C_21  and  C_22 
REMARK       I    between atoms: C_22  and  N_33 
REMARK   10  A    between atoms: C_24  and  N_33 
REMARK   11  A    between atoms: C_27  and  N_30 
ROOT
HETATM    1  C   UNK N   1      34.820  12.497   9.315  0.00  0.00     0.172 C 
HETATM    2  C   UNK N   1      34.294  11.293  10.081  0.00  0.00     0.042 C 
ENDROOT
BRANCH   1   3
HETATM    3  N   UNK N   1      36.214  12.612   9.675  0.00  0.00    -0.347 N 
HETATM    4  C   UNK N   1      36.734  13.358  10.678  0.00  0.00     0.232 C 
HETATM    5  O   UNK N   1      37.938  13.298  10.866  0.00  0.00    -0.273 OA
HETATM    6  H   UNK N   1      36.852  12.094   9.135  0.00  0.00     0.163 HD
BRANCH   4   7
HETATM    7  C   UNK N   1      35.869  14.218  11.591  0.00  0.00     0.176 C 
BRANCH   7   8
HETATM    8  C   UNK N   1      35.510  15.589  11.029  0.00  0.00     0.254 C 
HETATM    9  N   UNK N   1      34.234  15.972  10.782  0.00  0.00    -0.237 N 
HETATM   10  H   UNK N   1      34.071  16.861  10.391  0.00  0.00     0.197 HD
HETATM   11  O   UNK N   1      36.410  16.388  10.821  0.00  0.00    -0.270 OA
BRANCH   9  12
HETATM   12  O   UNK N   1      33.185  15.184  11.052  0.00  0.00    -0.287 OA
HETATM   13  H   UNK N   1      32.803  14.409  11.492  0.00  0.00     0.244 HD
ENDBRANCH   9  12
ENDBRANCH   7   8
BRANCH   7  14
HETATM   14  C   UNK N   1      36.341  14.324  13.056  0.00  0.00     0.062 C 
BRANCH  14  15
HETATM   15  C   UNK N   1      35.782  13.369  14.064  0.00  0.00    -0.057 A 
HETATM   16  C   UNK N   1      34.821  12.441  13.647  0.00  0.00     0.007 A 
HETATM   17  C   UNK N   1      34.260  11.548  14.564  0.00  0.00     0.001 A 
HETATM   18  C   UNK N   1      34.661  11.580  15.902  0.00  0.00     0.000 A 
HETATM   19  C   UNK N   1      35.618  12.510  16.323  0.00  0.00     0.001 A 
HETATM   20  C   UNK N   1      36.171  13.409  15.406  0.00  0.00     0.007 A 
ENDBRANCH  14  15
ENDBRANCH   7  14
ENDBRANCH   4   7
ENDBRANCH   1   3
BRANCH   1  21
HETATM   21  C   UNK N   1      34.728  12.337   7.805  0.00  0.00     0.240 C 
HETATM   22  O   UNK N   1      35.081  11.284   7.297  0.00  0.00    -0.271 OA
HETATM   23  N   UNK N   1      34.327  13.340   6.990  0.00  0.00    -0.351 N 
HETATM   24  H   UNK N   1      34.227  13.150   6.028  0.00  0.00     0.163 HD
BRANCH  23  25
HETATM   25  C   UNK N   1      34.040  14.664   7.459  0.00  0.00     0.225 C 
BRANCH  25  26
HETATM   26  C   UNK N   1      34.721  15.604   6.528  0.00  0.00     0.239 C 
HETATM   27  O   UNK N   1      35.858  15.350   6.170  0.00  0.00    -0.271 OA
HETATM   28  N   UNK N   1      34.121  16.736   6.076  0.00  0.00    -0.326 N 
HETATM   29  H   UNK N   1      34.574  17.236   5.359  0.00  0.00     0.169 HD
BRANCH  28  30
HETATM   30  C   UNK N   1      32.889  17.254   6.557  0.00  0.00     0.034 A 
HETATM   31  C   UNK N   1      32.897  17.819   7.829  0.00  0.00     0.032 A 
HETATM   32  C   UNK N   1      31.711  17.937   8.545  0.00  0.00     0.038 A 
HETATM   33  C   UNK N   1      30.504  17.489   7.991  0.00  0.00     0.103 A 
HETATM   34  C   UNK N   1      30.474  17.056   6.661  0.00  0.00     0.038 A 
HETATM   35  C   UNK N   1      31.661  16.935   5.953  0.00  0.00     0.032 A 
BRANCH  33  36
HETATM   36  N   UNK N   1      29.362  17.332   8.816  0.00  0.00    -0.116 N 
HETATM   37  O   UNK N   1      29.517  16.981  10.075  0.00  0.00    -0.532 OA
HETATM   38  O   UNK N   1      28.276  17.276   8.325  0.00  0.00    -0.532 OA
ENDBRANCH  33  36
ENDBRANCH  28  30
ENDBRANCH  25  26
ENDBRANCH  23  25
ENDBRANCH   1  21
TORSDOF 11
ENDMDL
MODEL 6
REMARK VINA RESULT:      -7.2      9.448     13.697
REMARK  11 active torsions:
REMARK  status: ('A' for Active; 'I' for Inactive)
REMARK    1  A    between atoms: O_1  and  N_2 
REMARK       I    between atoms: N_2  and  C_3 
REMARK    2  A    between atoms: C_3  and  C_5 
REMARK    3  A    between atoms: C_5  and  C_6 
REMARK    4  A    between atoms: C_5  and  C_13 
REMARK    5  A    between atoms: C_6  and  C_7 
REMARK       I    between atoms: C_13  and  N_15 
REMARK    6  A    between atoms: N_15  and  C_16 
REMARK    7  A    between atoms: C_16  and  C_18 
REMARK       I    between atoms: C_18  and  N_20 
REMARK    8  A    between atoms: N_20  and  C_21 
REMARK    9  A    between atoms: C_21  and  C_22 
REMARK       I    between atoms: C_22  and  N_33 
REMARK   10  A    between atoms: C_24  and  N_33 
REMARK   11  A    between atoms: C_27  and  N_30 
ROOT
HETATM    1  C   UNK N   1      34.118  16.849   8.734  0.00  0.00     0.172 C 
HETATM    2  C   UNK N   1      33.682  18.219   8.237  0.00  0.00     0.042 C 
ENDROOT
BRANCH   1   3
HETATM    3  N   UNK N   1      34.992  16.323   7.713  0.00  0.00    -0.347 N 
HETATM    4  C   UNK N   1      34.622  15.701   6.568  0.00  0.00     0.232 C 
HETATM    5  O   UNK N   1      35.502  15.360   5.795  0.00  0.00    -0.273 OA
HETATM    6  H   UNK N   1      35.959  16.427   7.863  0.00  0.00     0.163 HD
BRANCH   4   7
HETATM    7  C   UNK N   1      33.162  15.459   6.205  0.00  0.00     0.176 C 
BRANCH   7   8
HETATM    8  C   UNK N   1      32.838  14.038   5.761  0.00  0.00     0.254 C 
HETATM    9  N   UNK N   1      32.562  13.038   6.633  0.00  0.00    -0.237 N 
HETATM   10  H   UNK N   1      32.389  12.134   6.282  0.00  0.00     0.197 HD
HETATM   11  O   UNK N   1      32.795  13.796   4.564  0.00  0.00    -0.270 OA
BRANCH   9  12
HETATM   12  O   UNK N   1      32.515  13.236   7.957  0.00  0.00    -0.287 OA
HETATM   13  H   UNK N   1      32.943  13.225   8.827  0.00  0.00     0.244 HD
ENDBRANCH   9  12
ENDBRANCH   7   8
BRANCH   7  14
HETATM   14  C   UNK N   1      32.528  16.497   5.256  0.00  0.00     0.062 C 
BRANCH  14  15
HETATM   15  C   UNK N   1      31.149  16.997   5.553  0.00  0.00    -0.057 A 
HETATM   16  C   UNK N   1      30.654  16.868   6.855  0.00  0.00     0.007 A 
HETATM   17  C   UNK N   1      29.363  17.304   7.164  0.00  0.00     0.001 A 
HETATM   18  C   UNK N   1      28.564  17.873   6.171  0.00  0.00     0.000 A 
HETATM   19  C   UNK N   1      29.053  17.999   4.866  0.00  0.00     0.001 A 
HETATM   20  C   UNK N   1      30.342  17.554   4.557  0.00  0.00     0.007 A 
ENDBRANCH  14  15
ENDBRANCH   7  14
ENDBRANCH   4   7
ENDBRANCH   1   3
BRANCH   1  21
HETATM   21  C   UNK N   1      34.891  16.902  10.044  0.00  0.00     0.240 C 
HETATM   22  O   UNK N   1      35.689  17.807  10.227  0.00  0.00    -0.271 OA
HETATM   23  N   UNK N   1      34.775  15.947  10.996  0.00  0.00    -0.351 N 
HETATM   24  H   UNK N   1      35.253  16.074  11.847  0.00  0.00     0.163 HD
BRANCH  23  25
HETATM   25  C   UNK N   1      33.989  14.760  10.823  0.00  0.00     0.225 C 
BRANCH  25  26
HETATM   26  C   UNK N   1      34.937  13.666  10.476  0.00  0.00     0.239 C 
HETATM   27  O   UNK N   1      35.217  13.488   9.304  0.00  0.00    -0.271 OA
HETATM   28  N   UNK N   1      35.488  12.860  11.420  0.00  0.00    -0.326 N 
HETATM   29  H   UNK N   1      36.208  12.252  11.134  0.00  0.00     0.169 HD
BRANCH  28  30
HETATM   30  C   UNK N   1      35.105  12.824  12.787  0.00  0.00     0.034 A 
HETATM   31  C   UNK N   1      35.742  13.718  13.644  0.00  0.00     0.032 A 
HETATM   32  C   UNK N   1      35.775  13.467  15.011  0.00  0.00     0.038 A 
HETATM   33  C   UNK N   1      35.167  12.318  15.533  0.00  0.00     0.103 A 
HETATM   34  C   UNK N   1      34.406  11.497  14.693  0.00  0.00     0.038 A 
HETATM   35  C   UNK N   1      34.381  11.749  13.329  0.00  0.00     0.032 A 
BRANCH  33  36
HETATM   36  N   UNK N   1      35.449  11.909  16.861  0.00  0.00    -0.116 N 
HETATM   37  O   UNK N   1      35.187  12.728  17.858  0.00  0.00    -0.532 OA
HETATM   38  O   UNK N   1      36.133  10.953  17.057  0.00  0.00    -0.532 OA
ENDBRANCH  33  36
ENDBRANCH  28  30
ENDBRANCH  25  26
ENDBRANCH  23  25
ENDBRANCH   1  21
TORSDOF 11
ENDMDL
MODEL 7
REMARK VINA RESULT:      -7.1     11.107     14.405
REMARK  11 active torsions:
REMARK  status: ('A' for Active; 'I' for Inactive)
REMARK    1  A    between atoms: O_1  and  N_2 
REMARK       I    between atoms: N_2  and  C_3 
REMARK    2  A    between atoms: C_3  and  C_5 
REMARK    3  A    between atoms: C_5  and  C_6 
REMARK    4  A    between atoms: C_5  and  C_13 
REMARK    5  A    between atoms: C_6  and  C_7 
REMARK       I    between atoms: C_13  and  N_15 
REMARK    6  A    between atoms: N_15  and  C_16 
REMARK    7  A    between atoms: C_16  and  C_18 
REMARK       I    between atoms: C_18  and  N_20 
REMARK    8  A    between atoms: N_20  and  C_21 
REMARK    9  A    between atoms: C_21  and  C_22 
REMARK       I    between atoms: C_22  and  N_33 
REMARK   10  A    between atoms: C_24  and  N_33 
REMARK   11  A    between atoms: C_27  and  N_30 
ROOT
HETATM    1  C   UNK N   1      30.757  24.632  -5.707  0.00  0.00     0.172 C 
HETATM    2  C   UNK N   1      30.749  25.666  -6.823  0.00  0.00     0.042 C 
ENDROOT
BRANCH   1   3
HETATM    3  N   UNK N   1      32.096  24.092  -5.682  0.00  0.00    -0.347 N 
HETATM    4  C   UNK N   1      32.488  22.918  -5.134  0.00  0.00     0.232 C 
HETATM    5  O   UNK N   1      33.661  22.600  -5.247  0.00  0.00    -0.273 OA
HETATM    6  H   UNK N   1      32.797  24.634  -6.109  0.00  0.00     0.163 HD
BRANCH   4   7
HETATM    7  C   UNK N   1      31.516  21.979  -4.430  0.00  0.00     0.176 C 
BRANCH   7   8
HETATM    8  C   UNK N   1      31.758  21.806  -2.936  0.00  0.00     0.254 C 
HETATM    9  N   UNK N   1      32.754  21.035  -2.436  0.00  0.00    -0.237 N 
HETATM   10  H   UNK N   1      32.839  20.941  -1.459  0.00  0.00     0.197 HD
HETATM   11  O   UNK N   1      31.041  22.413  -2.155  0.00  0.00    -0.270 OA
BRANCH   9  12
HETATM   12  O   UNK N   1      33.629  20.397  -3.223  0.00  0.00    -0.287 OA
HETATM   13  H   UNK N   1      34.509  20.327  -3.624  0.00  0.00     0.244 HD
ENDBRANCH   9  12
ENDBRANCH   7   8
BRANCH   7  14
HETATM   14  C   UNK N   1      31.285  20.617  -5.118  0.00  0.00     0.062 C 
BRANCH  14  15
HETATM   15  C   UNK N   1      30.300  20.536  -6.242  0.00  0.00    -0.057 A 
HETATM   16  C   UNK N   1      30.363  19.441  -7.111  0.00  0.00     0.007 A 
HETATM   17  C   UNK N   1      29.473  19.341  -8.185  0.00  0.00     0.001 A 
HETATM   18  C   UNK N   1      28.516  20.337  -8.390  0.00  0.00     0.000 A 
HETATM   19  C   UNK N   1      28.454  21.437  -7.527  0.00  0.00     0.001 A 
HETATM   20  C   UNK N   1      29.351  21.538  -6.459  0.00  0.00     0.007 A 
ENDBRANCH  14  15
ENDBRANCH   7  14
ENDBRANCH   4   7
ENDBRANCH   1   3
BRANCH   1  21
HETATM   21  C   UNK N   1      30.454  25.222  -4.338  0.00  0.00     0.240 C 
HETATM   22  O   UNK N   1      31.262  25.982  -3.827  0.00  0.00    -0.271 OA
HETATM   23  N   UNK N   1      29.349  24.890  -3.631  0.00  0.00    -0.351 N 
HETATM   24  H   UNK N   1      29.180  25.357  -2.780  0.00  0.00     0.163 HD
BRANCH  23  25
HETATM   25  C   UNK N   1      28.414  23.893  -4.061  0.00  0.00     0.225 C 
BRANCH  25  26
HETATM   26  C   UNK N   1      27.062  24.372  -3.661  0.00  0.00     0.239 C 
HETATM   27  O   UNK N   1      26.723  24.252  -2.497  0.00  0.00    -0.271 OA
HETATM   28  N   UNK N   1      26.199  24.927  -4.550  0.00  0.00    -0.326 N 
HETATM   29  H   UNK N   1      25.383  25.346  -4.192  0.00  0.00     0.169 HD
BRANCH  28  30
HETATM   30  C   UNK N   1      26.381  24.950  -5.959  0.00  0.00     0.034 A 
HETATM   31  C   UNK N   1      26.732  26.170  -6.529  0.00  0.00     0.032 A 
HETATM   32  C   UNK N   1      26.498  26.399  -7.881  0.00  0.00     0.038 A 
HETATM   33  C   UNK N   1      25.911  25.404  -8.674  0.00  0.00     0.103 A 
HETATM   34  C   UNK N   1      25.692  24.131  -8.135  0.00  0.00     0.038 A 
HETATM   35  C   UNK N   1      25.922  23.910  -6.785  0.00  0.00     0.032 A 
BRANCH  33  36
HETATM   36  N   UNK N   1      25.403  25.730  -9.957  0.00  0.00    -0.116 N 
HETATM   37  O   UNK N   1      24.396  25.038 -10.449  0.00  0.00    -0.532 OA
HETATM   38  O   UNK N   1      26.026  26.445 -10.680  0.00  0.00    -0.532 OA
ENDBRANCH  33  36
ENDBRANCH  28  30
ENDBRANCH  25  26
ENDBRANCH  23  25
ENDBRANCH   1  21
TORSDOF 11
ENDMDL
MODEL 8
REMARK VINA RESULT:      -7.1      1.499      2.157
REMARK  11 active torsions:
REMARK  status: ('A' for Active; 'I' for Inactive)
REMARK    1  A    between atoms: O_1  and  N_2 
REMARK       I    between atoms: N_2  and  C_3 
REMARK    2  A    between atoms: C_3  and  C_5 
REMARK    3  A    between atoms: C_5  and  C_6 
REMARK    4  A    between atoms: C_5  and  C_13 
REMARK    5  A    between atoms: C_6  and  C_7 
REMARK       I    between atoms: C_13  and  N_15 
REMARK    6  A    between atoms: N_15  and  C_16 
REMARK    7  A    between atoms: C_16  and  C_18 
REMARK       I    between atoms: C_18  and  N_20 
REMARK    8  A    between atoms: N_20  and  C_21 
REMARK    9  A    between atoms: C_21  and  C_22 
REMARK       I    between atoms: C_22  and  N_33 
REMARK   10  A    between atoms: C_24  and  N_33 
REMARK   11  A    between atoms: C_27  and  N_30 
ROOT
HETATM    1  C   UNK N   1      22.319  16.496   5.108  0.00  0.00     0.172 C 
HETATM    2  C   UNK N   1      22.771  15.387   6.047  0.00  0.00     0.042 C 
ENDROOT
BRANCH   1   3
HETATM    3  N   UNK N   1      20.882  16.378   5.027  0.00  0.00    -0.347 N 
HETATM    4  C   UNK N   1      20.094  16.750   3.990  0.00  0.00     0.232 C 
HETATM    5  O   UNK N   1      18.897  16.532   4.078  0.00  0.00    -0.273 OA
HETATM    6  H   UNK N   1      20.427  15.985   5.806  0.00  0.00     0.163 HD
BRANCH   4   7
HETATM    7  C   UNK N   1      20.656  17.381   2.722  0.00  0.00     0.176 C 
BRANCH   7   8
HETATM    8  C   UNK N   1      20.534  18.898   2.651  0.00  0.00     0.254 C 
HETATM    9  N   UNK N   1      19.351  19.534   2.473  0.00  0.00    -0.237 N 
HETATM   10  H   UNK N   1      19.344  20.517   2.406  0.00  0.00     0.197 HD
HETATM   11  O   UNK N   1      21.544  19.572   2.792  0.00  0.00    -0.270 OA
BRANCH   9  12
HETATM   12  O   UNK N   1      18.190  18.873   2.384  0.00  0.00    -0.287 OA
HETATM   13  H   UNK N   1      17.609  18.147   2.660  0.00  0.00     0.244 HD
ENDBRANCH   9  12
ENDBRANCH   7   8
BRANCH   7  14
HETATM   14  C   UNK N   1      20.216  16.724   1.397  0.00  0.00     0.062 C 
BRANCH  14  15
HETATM   15  C   UNK N   1      20.585  15.297   1.142  0.00  0.00    -0.057 A 
HETATM   16  C   UNK N   1      19.567  14.383   0.849  0.00  0.00     0.007 A 
HETATM   17  C   UNK N   1      19.871  13.037   0.627  0.00  0.00     0.001 A 
HETATM   18  C   UNK N   1      21.197  12.603   0.695  0.00  0.00     0.000 A 
HETATM   19  C   UNK N   1      22.217  13.512   0.993  0.00  0.00     0.001 A 
HETATM   20  C   UNK N   1      21.909  14.857   1.224  0.00  0.00     0.007 A 
ENDBRANCH  14  15
ENDBRANCH   7  14
ENDBRANCH   4   7
ENDBRANCH   1   3
BRANCH   1  21
HETATM   21  C   UNK N   1      22.655  17.889   5.618  0.00  0.00     0.240 C 
HETATM   22  O   UNK N   1      21.928  18.410   6.449  0.00  0.00    -0.271 OA
HETATM   23  N   UNK N   1      23.699  18.607   5.140  0.00  0.00    -0.351 N 
HETATM   24  H   UNK N   1      23.901  19.475   5.558  0.00  0.00     0.163 HD
BRANCH  23  25
HETATM   25  C   UNK N   1      24.524  18.161   4.055  0.00  0.00     0.225 C 
BRANCH  25  26
HETATM   26  C   UNK N   1      25.321  19.338   3.614  0.00  0.00     0.239 C 
HETATM   27  O   UNK N   1      24.799  20.151   2.871  0.00  0.00    -0.271 OA
HETATM   28  N   UNK N   1      26.608  19.527   4.005  0.00  0.00    -0.326 N 
HETATM   29  H   UNK N   1      27.027  20.392   3.789  0.00  0.00     0.169 HD
BRANCH  28  30
HETATM   30  C   UNK N   1      27.399  18.573   4.700  0.00  0.00     0.034 A 
HETATM   31  C   UNK N   1      27.570  18.773   6.067  0.00  0.00     0.032 A 
HETATM   32  C   UNK N   1      28.646  18.188   6.726  0.00  0.00     0.038 A 
HETATM   33  C   UNK N   1      29.560  17.395   6.019  0.00  0.00     0.103 A 
HETATM   34  C   UNK N   1      29.307  17.077   4.680  0.00  0.00     0.038 A 
HETATM   35  C   UNK N   1      28.236  17.668   4.026  0.00  0.00     0.032 A 
BRANCH  33  36
HETATM   36  N   UNK N   1      30.801  17.048   6.610  0.00  0.00    -0.116 N 
HETATM   37  O   UNK N   1      30.837  16.699   7.880  0.00  0.00    -0.532 OA
HETATM   38  O   UNK N   1      31.820  17.302   6.047  0.00  0.00    -0.532 OA
ENDBRANCH  33  36
ENDBRANCH  28  30
ENDBRANCH  25  26
ENDBRANCH  23  25
ENDBRANCH   1  21
TORSDOF 11
ENDMDL
MODEL 9
REMARK VINA RESULT:      -7.0     11.195     15.025
REMARK  11 active torsions:
REMARK  status: ('A' for Active; 'I' for Inactive)
REMARK    1  A    between atoms: O_1  and  N_2 
REMARK       I    between atoms: N_2  and  C_3 
REMARK    2  A    between atoms: C_3  and  C_5 
REMARK    3  A    between atoms: C_5  and  C_6 
REMARK    4  A    between atoms: C_5  and  C_13 
REMARK    5  A    between atoms: C_6  and  C_7 
REMARK       I    between atoms: C_13  and  N_15 
REMARK    6  A    between atoms: N_15  and  C_16 
REMARK    7  A    between atoms: C_16  and  C_18 
REMARK       I    between atoms: C_18  and  N_20 
REMARK    8  A    between atoms: N_20  and  C_21 
REMARK    9  A    between atoms: C_21  and  C_22 
REMARK       I    between atoms: C_22  and  N_33 
REMARK   10  A    between atoms: C_24  and  N_33 
REMARK   11  A    between atoms: C_27  and  N_30 
ROOT
HETATM    1  C   UNK N   1      33.660  12.493   8.820  0.00  0.00     0.172 C 
HETATM    2  C   UNK N   1      33.756  12.033   7.373  0.00  0.00     0.042 C 
ENDROOT
BRANCH   1   3
HETATM    3  N   UNK N   1      32.708  13.580   8.822  0.00  0.00    -0.347 N 
HETATM    4  C   UNK N   1      32.989  14.905   8.811  0.00  0.00     0.232 C 
HETATM    5  O   UNK N   1      32.051  15.685   8.769  0.00  0.00    -0.273 OA
HETATM    6  H   UNK N   1      31.757  13.332   8.833  0.00  0.00     0.163 HD
BRANCH   4   7
HETATM    7  C   UNK N   1      34.416  15.438   8.804  0.00  0.00     0.176 C 
BRANCH   7   8
HETATM    8  C   UNK N   1      34.639  16.686   9.648  0.00  0.00     0.254 C 
HETATM    9  N   UNK N   1      34.931  16.639  10.971  0.00  0.00    -0.237 N 
HETATM   10  H   UNK N   1      35.034  17.483  11.467  0.00  0.00     0.197 HD
HETATM   11  O   UNK N   1      34.582  17.778   9.103  0.00  0.00    -0.270 OA
BRANCH   9  12
HETATM   12  O   UNK N   1      35.084  15.482  11.629  0.00  0.00    -0.287 OA
HETATM   13  H   UNK N   1      34.863  14.545  11.751  0.00  0.00     0.244 HD
ENDBRANCH   9  12
ENDBRANCH   7   8
BRANCH   7  14
HETATM   14  C   UNK N   1      35.069  15.583   7.413  0.00  0.00     0.062 C 
BRANCH  14  15
HETATM   15  C   UNK N   1      34.206  15.946   6.246  0.00  0.00    -0.057 A 
HETATM   16  C   UNK N   1      33.867  14.948   5.326  0.00  0.00     0.007 A 
HETATM   17  C   UNK N   1      33.080  15.254   4.212  0.00  0.00     0.001 A 
HETATM   18  C   UNK N   1      32.628  16.561   4.018  0.00  0.00     0.000 A 
HETATM   19  C   UNK N   1      32.970  17.563   4.932  0.00  0.00     0.001 A 
HETATM   20  C   UNK N   1      33.764  17.256   6.041  0.00  0.00     0.007 A 
ENDBRANCH  14  15
ENDBRANCH   7  14
ENDBRANCH   4   7
ENDBRANCH   1   3
BRANCH   1  21
HETATM   21  C   UNK N   1      33.153  11.413   9.763  0.00  0.00     0.240 C 
HETATM   22  O   UNK N   1      32.140  10.796   9.472  0.00  0.00    -0.271 OA
HETATM   23  N   UNK N   1      33.747  11.146  10.950  0.00  0.00    -0.351 N 
HETATM   24  H   UNK N   1      33.408  10.391  11.483  0.00  0.00     0.163 HD
BRANCH  23  25
HETATM   25  C   UNK N   1      34.844  11.911  11.466  0.00  0.00     0.225 C 
BRANCH  25  26
HETATM   26  C   UNK N   1      35.769  10.944  12.118  0.00  0.00     0.239 C 
HETATM   27  O   UNK N   1      36.084   9.937  11.510  0.00  0.00    -0.271 OA
HETATM   28  N   UNK N   1      36.262  11.145  13.368  0.00  0.00    -0.326 N 
HETATM   29  H   UNK N   1      36.972  10.539  13.680  0.00  0.00     0.169 HD
BRANCH  28  30
HETATM   30  C   UNK N   1      35.831  12.162  14.261  0.00  0.00     0.034 A 
HETATM   31  C   UNK N   1      36.711  13.216  14.487  0.00  0.00     0.032 A 
HETATM   32  C   UNK N   1      36.588  13.991  15.636  0.00  0.00     0.038 A 
HETATM   33  C   UNK N   1      35.579  13.716  16.568  0.00  0.00     0.103 A 
HETATM   34  C   UNK N   1      34.609  12.752  16.271  0.00  0.00     0.038 A 
HETATM   35  C   UNK N   1      34.740  11.978  15.127  0.00  0.00     0.032 A 
BRANCH  33  36
HETATM   36  N   UNK N   1      35.631  14.297  17.860  0.00  0.00    -0.116 N 
HETATM   37  O   UNK N   1      36.335  15.394  18.047  0.00  0.00    -0.532 OA
HETATM   38  O   UNK N   1      35.255  13.678  18.807  0.00  0.00    -0.532 OA
ENDBRANCH  33  36
ENDBRANCH  28  30
ENDBRANCH  25  26
ENDBRANCH  23  25
ENDBRANCH   1  21
TORSDOF 11
ENDMDL
