MODEL 1
REMARK VINA RESULT:      -8.2      0.000      0.000
REMARK  3 active torsions:
REMARK  status: ('A' for Active; 'I' for Inactive)
REMARK    1  A    between atoms: C_17  and  O_18 
REMARK    2  A    between atoms: C_19  and  O_20 
REMARK    3  A    between atoms: C_21  and  O_22 
ROOT
HETATM    1  C   UNK N   1      28.693  18.268   4.913  0.00  0.00     0.012 A 
HETATM    2  C   UNK N   1      28.762  17.045   5.592  0.00  0.00     0.002 A 
HETATM    3  C   UNK N   1      27.596  16.323   5.869  0.00  0.00     0.012 A 
HETATM    4  C   UNK N   1      26.352  16.818   5.464  0.00  0.00    -0.024 A 
HETATM    5  C   UNK N   1      25.185  16.099   5.729  0.00  0.00     0.013 A 
HETATM    6  C   UNK N   1      23.945  16.587   5.303  0.00  0.00     0.014 A 
HETATM    7  C   UNK N   1      23.854  17.803   4.604  0.00  0.00    -0.017 A 
HETATM    8  C   UNK N   1      22.616  18.282   4.128  0.00  0.00    -0.035 A 
HETATM    9  C   UNK N   1      22.565  19.493   3.394  0.00  0.00    -0.019 A 
HETATM   10  C   UNK N   1      23.746  20.215   3.158  0.00  0.00     0.022 A 
HETATM   11  C   UNK N   1      24.970  19.752   3.635  0.00  0.00    -0.024 A 
HETATM   12  C   UNK N   1      26.142  20.474   3.378  0.00  0.00     0.013 A 
HETATM   13  C   UNK N   1      27.381  19.987   3.813  0.00  0.00     0.013 A 
HETATM   14  C   UNK N   1      27.456  18.772   4.501  0.00  0.00    -0.024 A 
HETATM   15  C   UNK N   1      26.279  18.045   4.776  0.00  0.00    -0.004 A 
HETATM   16  C   UNK N   1      25.032  18.540   4.345  0.00  0.00    -0.003 A 
HETATM   17  C   UNK N   1      21.284  19.974   2.743  0.00  0.00     0.183 C 
HETATM   18  C   UNK N   1      20.033  19.169   3.147  0.00  0.00     0.180 C 
HETATM   19  C   UNK N   1      20.343  17.674   3.233  0.00  0.00     0.154 C 
HETATM   20  C   UNK N   1      21.366  17.467   4.346  0.00  0.00     0.074 C 
ENDROOT
BRANCH  17  21
HETATM   21  O   UNK N   1      21.065  21.326   3.018  0.00  0.00    -0.388 OA
HETATM   22  H   UNK N   1      21.583  21.929   3.574  0.00  0.00     0.210 HD
ENDBRANCH  17  21
BRANCH  18  23
HETATM   23  O   UNK N   1      19.011  19.405   2.223  0.00  0.00    -0.390 OA
HETATM   24  H   UNK N   1      19.068  19.983   1.446  0.00  0.00     0.210 HD
ENDBRANCH  18  23
BRANCH  19  25
HETATM   25  O   UNK N   1      19.186  16.964   3.554  0.00  0.00    -0.393 OA
HETATM   26  H   UNK N   1      18.991  16.099   3.158  0.00  0.00     0.210 HD
ENDBRANCH  19  25
TORSDOF 3
ENDMDL
MODEL 2
REMARK VINA RESULT:      -7.7     15.508     18.371
REMARK  3 active torsions:
REMARK  status: ('A' for Active; 'I' for Inactive)
REMARK    1  A    between atoms: C_17  and  O_18 
REMARK    2  A    between atoms: C_19  and  O_20 
REMARK    3  A    between atoms: C_21  and  O_22 
ROOT
HETATM    1  C   UNK N   1      34.827   9.899  19.599  0.00  0.00     0.012 A 
HETATM    2  C   UNK N   1      34.659  11.024  20.415  0.00  0.00     0.002 A 
HETATM    3  C   UNK N   1      34.874  12.308  19.901  0.00  0.00     0.012 A 
HETATM    4  C   UNK N   1      35.256  12.474  18.566  0.00  0.00    -0.024 A 
HETATM    5  C   UNK N   1      35.465  13.753  18.045  0.00  0.00     0.013 A 
HETATM    6  C   UNK N   1      35.825  13.916  16.703  0.00  0.00     0.014 A 
HETATM    7  C   UNK N   1      35.982  12.802  15.862  0.00  0.00    -0.017 A 
HETATM    8  C   UNK N   1      36.299  12.956  14.496  0.00  0.00    -0.035 A 
HETATM    9  C   UNK N   1      36.413  11.811  13.667  0.00  0.00    -0.019 A 
HETATM   10  C   UNK N   1      36.224  10.533  14.214  0.00  0.00     0.022 A 
HETATM   11  C   UNK N   1      35.921  10.374  15.565  0.00  0.00    -0.024 A 
HETATM   12  C   UNK N   1      35.719   9.093  16.093  0.00  0.00     0.013 A 
HETATM   13  C   UNK N   1      35.366   8.933  17.439  0.00  0.00     0.013 A 
HETATM   14  C   UNK N   1      35.207  10.051  18.262  0.00  0.00    -0.024 A 
HETATM   15  C   UNK N   1      35.422  11.345  17.741  0.00  0.00    -0.004 A 
HETATM   16  C   UNK N   1      35.784  11.505  16.389  0.00  0.00    -0.003 A 
HETATM   17  C   UNK N   1      36.611  11.933  12.169  0.00  0.00     0.183 C 
HETATM   18  C   UNK N   1      36.908  13.367  11.689  0.00  0.00     0.180 C 
HETATM   19  C   UNK N   1      36.054  14.388  12.441  0.00  0.00     0.154 C 
HETATM   20  C   UNK N   1      36.447  14.339  13.915  0.00  0.00     0.074 C 
ENDROOT
BRANCH  17  21
HETATM   21  O   UNK N   1      37.633  11.085  11.734  0.00  0.00    -0.388 OA
HETATM   22  H   UNK N   1      37.937  10.247  12.117  0.00  0.00     0.210 HD
ENDBRANCH  17  21
BRANCH  18  23
HETATM   23  O   UNK N   1      36.676  13.453  10.313  0.00  0.00    -0.390 OA
HETATM   24  H   UNK N   1      35.818  13.346   9.873  0.00  0.00     0.210 HD
ENDBRANCH  18  23
BRANCH  19  25
HETATM   25  O   UNK N   1      36.307  15.672  11.956  0.00  0.00    -0.393 OA
HETATM   26  H   UNK N   1      37.207  16.031  11.906  0.00  0.00     0.210 HD
ENDBRANCH  19  25
TORSDOF 3
ENDMDL
MODEL 3
REMARK VINA RESULT:      -7.6     14.933     17.789
REMARK  3 active torsions:
REMARK  status: ('A' for Active; 'I' for Inactive)
REMARK    1  A    between atoms: C_17  and  O_18 
REMARK    2  A    between atoms: C_19  and  O_20 
REMARK    3  A    between atoms: C_21  and  O_22 
ROOT
HETATM    1  C   UNK N   1      35.427  11.662  20.090  0.00  0.00     0.012 A 
HETATM    2  C   UNK N   1      35.490  10.297  20.396  0.00  0.00     0.002 A 
HETATM    3  C   UNK N   1      35.434   9.340  19.376  0.00  0.00     0.012 A 
HETATM    4  C   UNK N   1      35.319   9.744  18.042  0.00  0.00    -0.024 A 
HETATM    5  C   UNK N   1      35.271   8.795  17.018  0.00  0.00     0.013 A 
HETATM    6  C   UNK N   1      35.178   9.204  15.683  0.00  0.00     0.014 A 
HETATM    7  C   UNK N   1      35.133  10.568  15.352  0.00  0.00    -0.017 A 
HETATM    8  C   UNK N   1      35.087  10.993  14.008  0.00  0.00    -0.035 A 
HETATM    9  C   UNK N   1      35.080  12.378  13.707  0.00  0.00    -0.019 A 
HETATM   10  C   UNK N   1      35.104  13.317  14.751  0.00  0.00     0.022 A 
HETATM   11  C   UNK N   1      35.138  12.904  16.080  0.00  0.00    -0.024 A 
HETATM   12  C   UNK N   1      35.178  13.852  17.110  0.00  0.00     0.013 A 
HETATM   13  C   UNK N   1      35.263  13.440  18.446  0.00  0.00     0.013 A 
HETATM   14  C   UNK N   1      35.315  12.079  18.760  0.00  0.00    -0.024 A 
HETATM   15  C   UNK N   1      35.261  11.116  17.729  0.00  0.00    -0.004 A 
HETATM   16  C   UNK N   1      35.168  11.531  16.386  0.00  0.00    -0.003 A 
HETATM   17  C   UNK N   1      35.174  12.882  12.281  0.00  0.00     0.183 C 
HETATM   18  C   UNK N   1      35.038  11.778  11.215  0.00  0.00     0.180 C 
HETATM   19  C   UNK N   1      35.780  10.509  11.638  0.00  0.00     0.154 C 
HETATM   20  C   UNK N   1      35.115   9.971  12.900  0.00  0.00     0.074 C 
ENDROOT
BRANCH  17  21
HETATM   21  O   UNK N   1      34.215  13.870  12.040  0.00  0.00    -0.388 OA
HETATM   22  H   UNK N   1      33.947  14.269  11.198  0.00  0.00     0.210 HD
ENDBRANCH  17  21
BRANCH  18  23
HETATM   23  O   UNK N   1      35.530  12.249   9.994  0.00  0.00    -0.390 OA
HETATM   24  H   UNK N   1      34.998  12.607   9.266  0.00  0.00     0.210 HD
ENDBRANCH  18  23
BRANCH  19  25
HETATM   25  O   UNK N   1      35.683   9.542  10.635  0.00  0.00    -0.393 OA
HETATM   26  H   UNK N   1      35.513   9.782   9.710  0.00  0.00     0.210 HD
ENDBRANCH  19  25
TORSDOF 3
ENDMDL
MODEL 4
REMARK VINA RESULT:      -7.4      4.162      6.440
REMARK  3 active torsions:
REMARK  status: ('A' for Active; 'I' for Inactive)
REMARK    1  A    between atoms: C_17  and  O_18 
REMARK    2  A    between atoms: C_19  and  O_20 
REMARK    3  A    between atoms: C_21  and  O_22 
ROOT
HETATM    1  C   UNK N   1      21.752  12.393  10.782  0.00  0.00     0.012 A 
HETATM    2  C   UNK N   1      22.942  11.658  10.836  0.00  0.00     0.002 A 
HETATM    3  C   UNK N   1      23.968  11.904   9.915  0.00  0.00     0.012 A 
HETATM    4  C   UNK N   1      23.809  12.891   8.937  0.00  0.00    -0.024 A 
HETATM    5  C   UNK N   1      24.831  13.147   8.020  0.00  0.00     0.013 A 
HETATM    6  C   UNK N   1      24.677  14.151   7.057  0.00  0.00     0.014 A 
HETATM    7  C   UNK N   1      23.498  14.912   6.996  0.00  0.00    -0.017 A 
HETATM    8  C   UNK N   1      23.350  15.957   6.060  0.00  0.00    -0.035 A 
HETATM    9  C   UNK N   1      22.163  16.731   6.052  0.00  0.00    -0.019 A 
HETATM   10  C   UNK N   1      21.136  16.442   6.964  0.00  0.00     0.022 A 
HETATM   11  C   UNK N   1      21.272  15.404   7.884  0.00  0.00    -0.024 A 
HETATM   12  C   UNK N   1      20.247  15.138   8.799  0.00  0.00     0.013 A 
HETATM   13  C   UNK N   1      20.400  14.129   9.757  0.00  0.00     0.013 A 
HETATM   14  C   UNK N   1      21.582  13.383   9.810  0.00  0.00    -0.024 A 
HETATM   15  C   UNK N   1      22.615  13.636   8.882  0.00  0.00    -0.004 A 
HETATM   16  C   UNK N   1      22.457  14.647   7.914  0.00  0.00    -0.003 A 
HETATM   17  C   UNK N   1      22.016  17.950   5.163  0.00  0.00     0.183 C 
HETATM   18  C   UNK N   1      23.150  18.117   4.133  0.00  0.00     0.180 C 
HETATM   19  C   UNK N   1      24.507  17.764   4.744  0.00  0.00     0.154 C 
HETATM   20  C   UNK N   1      24.484  16.287   5.123  0.00  0.00     0.074 C 
ENDROOT
BRANCH  17  21
HETATM   21  O   UNK N   1      20.790  17.930   4.493  0.00  0.00    -0.388 OA
HETATM   22  H   UNK N   1      20.611  17.997   3.542  0.00  0.00     0.210 HD
ENDBRANCH  17  21
BRANCH  18  23
HETATM   23  O   UNK N   1      23.154  19.431   3.656  0.00  0.00    -0.390 OA
HETATM   24  H   UNK N   1      23.474  20.210   4.138  0.00  0.00     0.210 HD
ENDBRANCH  18  23
BRANCH  19  25
HETATM   25  O   UNK N   1      25.520  17.969   3.807  0.00  0.00    -0.393 OA
HETATM   26  H   UNK N   1      25.667  17.353   3.071  0.00  0.00     0.210 HD
ENDBRANCH  19  25
TORSDOF 3
ENDMDL
MODEL 5
REMARK VINA RESULT:      -7.3     11.099     12.092
REMARK  3 active torsions:
REMARK  status: ('A' for Active; 'I' for Inactive)
REMARK    1  A    between atoms: C_17  and  O_18 
REMARK    2  A    between atoms: C_19  and  O_20 
REMARK    3  A    between atoms: C_21  and  O_22 
ROOT
HETATM    1  C   UNK N   1      32.640  21.643  -3.073  0.00  0.00     0.012 A 
HETATM    2  C   UNK N   1      33.275  20.560  -3.692  0.00  0.00     0.002 A 
HETATM    3  C   UNK N   1      32.719  19.972  -4.833  0.00  0.00     0.012 A 
HETATM    4  C   UNK N   1      31.524  20.467  -5.365  0.00  0.00    -0.024 A 
HETATM    5  C   UNK N   1      30.967  19.890  -6.509  0.00  0.00     0.013 A 
HETATM    6  C   UNK N   1      29.784  20.403  -7.051  0.00  0.00     0.014 A 
HETATM    7  C   UNK N   1      29.139  21.501  -6.457  0.00  0.00    -0.017 A 
HETATM    8  C   UNK N   1      27.971  22.056  -7.021  0.00  0.00    -0.035 A 
HETATM    9  C   UNK N   1      27.368  23.187  -6.417  0.00  0.00    -0.019 A 
HETATM   10  C   UNK N   1      27.928  23.738  -5.254  0.00  0.00     0.022 A 
HETATM   11  C   UNK N   1      29.075  23.188  -4.686  0.00  0.00    -0.024 A 
HETATM   12  C   UNK N   1      29.632  23.758  -3.535  0.00  0.00     0.013 A 
HETATM   13  C   UNK N   1      30.812  23.238  -2.990  0.00  0.00     0.013 A 
HETATM   14  C   UNK N   1      31.446  22.149  -3.596  0.00  0.00    -0.024 A 
HETATM   15  C   UNK N   1      30.884  21.560  -4.749  0.00  0.00    -0.004 A 
HETATM   16  C   UNK N   1      29.692  22.079  -5.292  0.00  0.00    -0.003 A 
HETATM   17  C   UNK N   1      26.198  23.903  -7.063  0.00  0.00     0.183 C 
HETATM   18  C   UNK N   1      25.599  23.161  -8.274  0.00  0.00     0.180 C 
HETATM   19  C   UNK N   1      26.697  22.537  -9.137  0.00  0.00     0.154 C 
HETATM   20  C   UNK N   1      27.414  21.483  -8.300  0.00  0.00     0.074 C 
ENDROOT
BRANCH  17  21
HETATM   21  O   UNK N   1      25.187  24.144  -6.129  0.00  0.00    -0.388 OA
HETATM   22  H   UNK N   1      24.676  24.954  -5.977  0.00  0.00     0.210 HD
ENDBRANCH  17  21
BRANCH  18  23
HETATM   23  O   UNK N   1      24.829  24.051  -9.029  0.00  0.00    -0.390 OA
HETATM   24  H   UNK N   1      23.862  24.127  -9.007  0.00  0.00     0.210 HD
ENDBRANCH  18  23
BRANCH  19  25
HETATM   25  O   UNK N   1      26.132  21.913 -10.250  0.00  0.00    -0.393 OA
HETATM   26  H   UNK N   1      26.428  22.113 -11.152  0.00  0.00     0.210 HD
ENDBRANCH  19  25
TORSDOF 3
ENDMDL
MODEL 6
REMARK VINA RESULT:      -7.3     16.827     19.202
REMARK  3 active torsions:
REMARK  status: ('A' for Active; 'I' for Inactive)
REMARK    1  A    between atoms: C_17  and  O_18 
REMARK    2  A    between atoms: C_19  and  O_20 
REMARK    3  A    between atoms: C_21  and  O_22 
ROOT
HETATM    1  C   UNK N   1      37.895  11.282  11.499  0.00  0.00     0.012 A 
HETATM    2  C   UNK N   1      37.517  12.563  11.080  0.00  0.00     0.002 A 
HETATM    3  C   UNK N   1      36.830  13.418  11.950  0.00  0.00     0.012 A 
HETATM    4  C   UNK N   1      36.519  12.996  13.247  0.00  0.00    -0.024 A 
HETATM    5  C   UNK N   1      35.841  13.847  14.123  0.00  0.00     0.013 A 
HETATM    6  C   UNK N   1      35.552  13.429  15.427  0.00  0.00     0.014 A 
HETATM    7  C   UNK N   1      35.938  12.154  15.874  0.00  0.00    -0.017 A 
HETATM    8  C   UNK N   1      35.694  11.740  17.200  0.00  0.00    -0.035 A 
HETATM    9  C   UNK N   1      36.130  10.461  17.630  0.00  0.00    -0.019 A 
HETATM   10  C   UNK N   1      36.789   9.611  16.727  0.00  0.00     0.022 A 
HETATM   11  C   UNK N   1      37.022  10.010  15.414  0.00  0.00    -0.024 A 
HETATM   12  C   UNK N   1      37.695   9.157  14.530  0.00  0.00     0.013 A 
HETATM   13  C   UNK N   1      37.976   9.575  13.223  0.00  0.00     0.013 A 
HETATM   14  C   UNK N   1      37.592  10.849  12.794  0.00  0.00    -0.024 A 
HETATM   15  C   UNK N   1      36.902  11.709  13.674  0.00  0.00    -0.004 A 
HETATM   16  C   UNK N   1      36.613  11.286  14.987  0.00  0.00    -0.003 A 
HETATM   17  C   UNK N   1      36.018  10.028  19.078  0.00  0.00     0.183 C 
HETATM   18  C   UNK N   1      35.192  10.987  19.957  0.00  0.00     0.180 C 
HETATM   19  C   UNK N   1      35.483  12.447  19.606  0.00  0.00     0.154 C 
HETATM   20  C   UNK N   1      35.032  12.687  18.169  0.00  0.00     0.074 C 
ENDROOT
BRANCH  17  21
HETATM   21  O   UNK N   1      35.477   8.743  19.170  0.00  0.00    -0.388 OA
HETATM   22  H   UNK N   1      34.575   8.444  18.977  0.00  0.00     0.210 HD
ENDBRANCH  17  21
BRANCH  18  23
HETATM   23  O   UNK N   1      35.475  10.741  21.304  0.00  0.00    -0.390 OA
HETATM   24  H   UNK N   1      36.324  10.902  21.746  0.00  0.00     0.210 HD
ENDBRANCH  18  23
BRANCH  19  25
HETATM   25  O   UNK N   1      34.761  13.294  20.448  0.00  0.00    -0.393 OA
HETATM   26  H   UNK N   1      34.404  12.987  21.297  0.00  0.00     0.210 HD
ENDBRANCH  19  25
TORSDOF 3
ENDMDL
MODEL 7
REMARK VINA RESULT:      -7.3     11.025     11.793
REMARK  3 active torsions:
REMARK  status: ('A' for Active; 'I' for Inactive)
REMARK    1  A    between atoms: C_17  and  O_18 
REMARK    2  A    between atoms: C_19  and  O_20 
REMARK    3  A    between atoms: C_21  and  O_22 
ROOT
HETATM    1  C   UNK N   1      32.265  19.799  -5.137  0.00  0.00     0.012 A 
HETATM    2  C   UNK N   1      33.006  20.169  -4.008  0.00  0.00     0.002 A 
HETATM    3  C   UNK N   1      32.659  21.312  -3.279  0.00  0.00     0.012 A 
HETATM    4  C   UNK N   1      31.565  22.090  -3.673  0.00  0.00    -0.024 A 
HETATM    5  C   UNK N   1      31.209  23.228  -2.945  0.00  0.00     0.013 A 
HETATM    6  C   UNK N   1      30.101  23.991  -3.330  0.00  0.00     0.014 A 
HETATM    7  C   UNK N   1      29.333  23.627  -4.448  0.00  0.00    -0.017 A 
HETATM    8  C   UNK N   1      28.187  24.362  -4.818  0.00  0.00    -0.035 A 
HETATM    9  C   UNK N   1      27.412  23.945  -5.930  0.00  0.00    -0.019 A 
HETATM   10  C   UNK N   1      27.800  22.813  -6.664  0.00  0.00     0.022 A 
HETATM   11  C   UNK N   1      28.938  22.091  -6.311  0.00  0.00    -0.024 A 
HETATM   12  C   UNK N   1      29.303  20.954  -7.042  0.00  0.00     0.013 A 
HETATM   13  C   UNK N   1      30.417  20.197  -6.660  0.00  0.00     0.013 A 
HETATM   14  C   UNK N   1      31.168  20.567  -5.540  0.00  0.00    -0.024 A 
HETATM   15  C   UNK N   1      30.815  21.718  -4.805  0.00  0.00    -0.004 A 
HETATM   16  C   UNK N   1      29.698  22.484  -5.195  0.00  0.00    -0.003 A 
HETATM   17  C   UNK N   1      26.099  24.615  -6.279  0.00  0.00     0.183 C 
HETATM   18  C   UNK N   1      25.819  25.903  -5.479  0.00  0.00     0.180 C 
HETATM   19  C   UNK N   1      26.245  25.749  -4.018  0.00  0.00     0.154 C 
HETATM   20  C   UNK N   1      27.756  25.543  -3.986  0.00  0.00     0.074 C 
ENDROOT
BRANCH  17  21
HETATM   21  O   UNK N   1      26.036  24.903  -7.645  0.00  0.00    -0.388 OA
HETATM   22  H   UNK N   1      25.567  25.622  -8.098  0.00  0.00     0.210 HD
ENDBRANCH  17  21
BRANCH  18  23
HETATM   23  O   UNK N   1      24.458  26.214  -5.563  0.00  0.00    -0.390 OA
HETATM   24  H   UNK N   1      23.784  25.697  -6.030  0.00  0.00     0.210 HD
ENDBRANCH  18  23
BRANCH  19  25
HETATM   25  O   UNK N   1      25.937  26.909  -3.307  0.00  0.00    -0.393 OA
HETATM   26  H   UNK N   1      25.710  26.884  -2.364  0.00  0.00     0.210 HD
ENDBRANCH  19  25
TORSDOF 3
ENDMDL
MODEL 8
REMARK VINA RESULT:      -7.3     16.161     18.565
REMARK  3 active torsions:
REMARK  status: ('A' for Active; 'I' for Inactive)
REMARK    1  A    between atoms: C_17  and  O_18 
REMARK    2  A    between atoms: C_19  and  O_20 
REMARK    3  A    between atoms: C_21  and  O_22 
ROOT
HETATM    1  C   UNK N   1      35.233   9.646  11.410  0.00  0.00     0.012 A 
HETATM    2  C   UNK N   1      35.438   8.271  11.579  0.00  0.00     0.002 A 
HETATM    3  C   UNK N   1      35.641   7.739  12.858  0.00  0.00     0.012 A 
HETATM    4  C   UNK N   1      35.637   8.580  13.976  0.00  0.00    -0.024 A 
HETATM    5  C   UNK N   1      35.832   8.055  15.255  0.00  0.00     0.013 A 
HETATM    6  C   UNK N   1      35.805   8.896  16.373  0.00  0.00     0.014 A 
HETATM    7  C   UNK N   1      35.584  10.276  16.227  0.00  0.00    -0.017 A 
HETATM    8  C   UNK N   1      35.508  11.127  17.350  0.00  0.00    -0.035 A 
HETATM    9  C   UNK N   1      35.245  12.508  17.169  0.00  0.00    -0.019 A 
HETATM   10  C   UNK N   1      35.077  13.022  15.874  0.00  0.00     0.022 A 
HETATM   11  C   UNK N   1      35.161  12.188  14.761  0.00  0.00    -0.024 A 
HETATM   12  C   UNK N   1      34.975  12.712  13.476  0.00  0.00     0.013 A 
HETATM   13  C   UNK N   1      35.010  11.869  12.358  0.00  0.00     0.013 A 
HETATM   14  C   UNK N   1      35.225  10.497  12.519  0.00  0.00    -0.024 A 
HETATM   15  C   UNK N   1      35.427   9.963  13.810  0.00  0.00    -0.004 A 
HETATM   16  C   UNK N   1      35.399  10.813  14.933  0.00  0.00    -0.003 A 
HETATM   17  C   UNK N   1      35.014  13.433  18.348  0.00  0.00     0.183 C 
HETATM   18  C   UNK N   1      35.322  12.795  19.716  0.00  0.00     0.180 C 
HETATM   19  C   UNK N   1      34.845  11.343  19.768  0.00  0.00     0.154 C 
HETATM   20  C   UNK N   1      35.639  10.548  18.736  0.00  0.00     0.074 C 
ENDROOT
BRANCH  17  21
HETATM   21  O   UNK N   1      35.762  14.605  18.211  0.00  0.00    -0.388 OA
HETATM   22  H   UNK N   1      35.914  15.145  17.420  0.00  0.00     0.210 HD
ENDBRANCH  17  21
BRANCH  18  23
HETATM   23  O   UNK N   1      34.713  13.547  20.726  0.00  0.00    -0.390 OA
HETATM   24  H   UNK N   1      35.005  13.601  21.650  0.00  0.00     0.210 HD
ENDBRANCH  18  23
BRANCH  19  25
HETATM   25  O   UNK N   1      35.092  10.804  21.032  0.00  0.00    -0.393 OA
HETATM   26  H   UNK N   1      35.995  10.681  21.367  0.00  0.00     0.210 HD
ENDBRANCH  19  25
TORSDOF 3
ENDMDL
MODEL 9
REMARK VINA RESULT:      -7.1      6.064      9.074
REMARK  3 active torsions:
REMARK  status: ('A' for Active; 'I' for Inactive)
REMARK    1  A    between atoms: C_17  and  O_18 
REMARK    2  A    between atoms: C_19  and  O_20 
REMARK    3  A    between atoms: C_21  and  O_22 
ROOT
HETATM    1  C   UNK N   1      26.606  19.601   4.155  0.00  0.00     0.012 A 
HETATM    2  C   UNK N   1      26.276  20.532   5.147  0.00  0.00     0.002 A 
HETATM    3  C   UNK N   1      26.864  20.453   6.415  0.00  0.00     0.012 A 
HETATM    4  C   UNK N   1      27.790  19.444   6.696  0.00  0.00    -0.024 A 
HETATM    5  C   UNK N   1      28.387  19.364   7.956  0.00  0.00     0.013 A 
HETATM    6  C   UNK N   1      29.330  18.366   8.227  0.00  0.00     0.014 A 
HETATM    7  C   UNK N   1      29.689  17.433   7.240  0.00  0.00    -0.017 A 
HETATM    8  C   UNK N   1      30.672  16.451   7.486  0.00  0.00    -0.035 A 
HETATM    9  C   UNK N   1      31.039  15.549   6.456  0.00  0.00    -0.019 A 
HETATM   10  C   UNK N   1      30.410  15.629   5.203  0.00  0.00     0.022 A 
HETATM   11  C   UNK N   1      29.431  16.589   4.958  0.00  0.00    -0.024 A 
HETATM   12  C   UNK N   1      28.824  16.667   3.699  0.00  0.00     0.013 A 
HETATM   13  C   UNK N   1      27.875  17.663   3.433  0.00  0.00     0.013 A 
HETATM   14  C   UNK N   1      27.532  18.589   4.423  0.00  0.00    -0.024 A 
HETATM   15  C   UNK N   1      28.129  18.508   5.699  0.00  0.00    -0.004 A 
HETATM   16  C   UNK N   1      29.078  17.502   5.968  0.00  0.00    -0.003 A 
HETATM   17  C   UNK N   1      32.186  14.573   6.626  0.00  0.00     0.183 C 
HETATM   18  C   UNK N   1      32.736  14.495   8.063  0.00  0.00     0.180 C 
HETATM   19  C   UNK N   1      32.799  15.882   8.706  0.00  0.00     0.154 C 
HETATM   20  C   UNK N   1      31.374  16.414   8.820  0.00  0.00     0.074 C 
ENDROOT
BRANCH  17  21
HETATM   21  O   UNK N   1      31.812  13.292   6.210  0.00  0.00    -0.388 OA
HETATM   22  H   UNK N   1      31.867  12.452   6.693  0.00  0.00     0.210 HD
ENDBRANCH  17  21
BRANCH  18  23
HETATM   23  O   UNK N   1      34.005  13.907   8.043  0.00  0.00    -0.390 OA
HETATM   24  H   UNK N   1      34.282  13.135   8.561  0.00  0.00     0.210 HD
ENDBRANCH  18  23
BRANCH  19  25
HETATM   25  O   UNK N   1      33.344  15.790   9.987  0.00  0.00    -0.393 OA
HETATM   26  H   UNK N   1      32.799  15.575  10.760  0.00  0.00     0.210 HD
ENDBRANCH  19  25
TORSDOF 3
ENDMDL
