REMARK  4 active torsions:
REMARK  status: ('A' for Active; 'I' for Inactive)
REMARK    1  A    between atoms: C_1  and  N_3 
REMARK    2  A    between atoms: C_4  and  N_3 
REMARK    3  A    between atoms: C_4  and  C_5 
REMARK    4  A    between atoms: C_4  and  C_7 
ROOT
HETATM    1  C   UNK N   1       0.027   0.965  -0.237  0.00  0.00     0.116 C 
ENDROOT
BRANCH   1   2
HETATM    2  N   UNK N   1      -1.204   1.706  -0.046  0.00  0.00    -0.360 N 
HETATM    3  H   UNK N   1      -2.025   1.218   0.193  0.00  0.00     0.162 HD
BRANCH   2   4
HETATM    4  C   UNK N   1      -1.254   3.047  -0.186  0.00  0.00     0.349 C 
HETATM    5  O   UNK N   1      -2.303   3.640   0.003  0.00  0.00    -0.284 OA
ENDBRANCH   2   4
ENDBRANCH   1   2
BRANCH   1   6
HETATM    6  C   UNK N   1       1.069   1.468   0.773  0.00  0.00     0.025 C 
HETATM    7  C   UNK N   1       2.485   1.059   0.401  0.00  0.00     0.007 C 
ENDBRANCH   1   6
BRANCH   1   8
HETATM    8  C   UNK N   1      -0.229  -0.524  -0.077  0.00  0.00    -0.035 A 
HETATM    9  C   UNK N   1       0.824  -1.443  -0.208  0.00  0.00     0.009 A 
HETATM   10  C   UNK N   1       0.593  -2.814  -0.064  0.00  0.00     0.001 A 
HETATM   11  C   UNK N   1      -0.697  -3.283   0.199  0.00  0.00     0.000 A 
HETATM   12  C   UNK N   1      -1.755  -2.380   0.321  0.00  0.00     0.001 A 
HETATM   13  C   UNK N   1      -1.523  -1.009   0.187  0.00  0.00     0.009 A 
ENDBRANCH   1   8
TORSDOF 4
