MODEL 1
REMARK VINA RESULT:      -4.9      0.000      0.000
REMARK  4 active torsions:
REMARK  status: ('A' for Active; 'I' for Inactive)
REMARK    1  A    between atoms: C_1  and  N_3 
REMARK    2  A    between atoms: C_4  and  N_3 
REMARK    3  A    between atoms: C_4  and  C_5 
REMARK    4  A    between atoms: C_4  and  C_7 
ROOT
HETATM    1  C   UNK N   1      34.512  12.053  15.221  0.00  0.00     0.116 C 
ENDROOT
BRANCH   1   2
HETATM    2  N   UNK N   1      35.645  12.456  14.412  0.00  0.00    -0.360 N 
HETATM    3  H   UNK N   1      36.437  11.872  14.372  0.00  0.00     0.162 HD
BRANCH   2   4
HETATM    4  C   UNK N   1      35.644  13.610  13.713  0.00  0.00     0.349 C 
HETATM    5  O   UNK N   1      34.809  13.793  12.842  0.00  0.00    -0.284 OA
ENDBRANCH   2   4
ENDBRANCH   1   2
BRANCH   1   6
HETATM    6  C   UNK N   1      34.134  10.609  14.859  0.00  0.00     0.025 C 
HETATM    7  C   UNK N   1      33.850  10.436  13.376  0.00  0.00     0.007 C 
ENDBRANCH   1   6
BRANCH   1   8
HETATM    8  C   UNK N   1      34.849  12.187  16.696  0.00  0.00    -0.035 A 
HETATM    9  C   UNK N   1      35.135  11.048  17.465  0.00  0.00     0.009 A 
HETATM   10  C   UNK N   1      35.443  11.166  18.823  0.00  0.00     0.001 A 
HETATM   11  C   UNK N   1      35.455  12.424  19.432  0.00  0.00     0.000 A 
HETATM   12  C   UNK N   1      35.162  13.564  18.681  0.00  0.00     0.001 A 
HETATM   13  C   UNK N   1      34.863  13.448  17.321  0.00  0.00     0.009 A 
ENDBRANCH   1   8
TORSDOF 4
ENDMDL
MODEL 2
REMARK VINA RESULT:      -4.9      1.538      2.090
REMARK  4 active torsions:
REMARK  status: ('A' for Active; 'I' for Inactive)
REMARK    1  A    between atoms: C_1  and  N_3 
REMARK    2  A    between atoms: C_4  and  N_3 
REMARK    3  A    between atoms: C_4  and  C_5 
REMARK    4  A    between atoms: C_4  and  C_7 
ROOT
HETATM    1  C   UNK N   1      35.364  12.331  15.622  0.00  0.00     0.116 C 
ENDROOT
BRANCH   1   2
HETATM    2  N   UNK N   1      36.613  12.902  15.157  0.00  0.00    -0.360 N 
HETATM    3  H   UNK N   1      37.363  12.303  14.942  0.00  0.00     0.162 HD
BRANCH   2   4
HETATM    4  C   UNK N   1      36.773  14.234  15.011  0.00  0.00     0.349 C 
HETATM    5  O   UNK N   1      37.539  14.839  15.743  0.00  0.00    -0.284 OA
ENDBRANCH   2   4
ENDBRANCH   1   2
BRANCH   1   6
HETATM    6  C   UNK N   1      35.090  11.038  14.838  0.00  0.00     0.025 C 
HETATM    7  C   UNK N   1      33.605  10.790  14.626  0.00  0.00     0.007 C 
ENDBRANCH   1   6
BRANCH   1   8
HETATM    8  C   UNK N   1      35.432  12.071  17.117  0.00  0.00    -0.035 A 
HETATM    9  C   UNK N   1      35.095  13.084  18.029  0.00  0.00     0.009 A 
HETATM   10  C   UNK N   1      35.159  12.851  19.406  0.00  0.00     0.001 A 
HETATM   11  C   UNK N   1      35.573  11.606  19.887  0.00  0.00     0.000 A 
HETATM   12  C   UNK N   1      35.921  10.593  18.990  0.00  0.00     0.001 A 
HETATM   13  C   UNK N   1      35.849  10.823  17.614  0.00  0.00     0.009 A 
ENDBRANCH   1   8
TORSDOF 4
ENDMDL
MODEL 3
REMARK VINA RESULT:      -4.8      8.779     10.645
REMARK  4 active torsions:
REMARK  status: ('A' for Active; 'I' for Inactive)
REMARK    1  A    between atoms: C_1  and  N_3 
REMARK    2  A    between atoms: C_4  and  N_3 
REMARK    3  A    between atoms: C_4  and  C_5 
REMARK    4  A    between atoms: C_4  and  C_7 
ROOT
HETATM    1  C   UNK N   1      32.221  17.290   7.504  0.00  0.00     0.116 C 
ENDROOT
BRANCH   1   2
HETATM    2  N   UNK N   1      33.176  17.966   8.361  0.00  0.00    -0.360 N 
HETATM    3  H   UNK N   1      32.890  18.265   9.254  0.00  0.00     0.162 HD
BRANCH   2   4
HETATM    4  C   UNK N   1      34.445  18.194   7.966  0.00  0.00     0.349 C 
HETATM    5  O   UNK N   1      35.049  19.165   8.390  0.00  0.00    -0.284 OA
ENDBRANCH   2   4
ENDBRANCH   1   2
BRANCH   1   6
HETATM    6  C   UNK N   1      32.523  15.784   7.518  0.00  0.00     0.025 C 
HETATM    7  C   UNK N   1      32.423  15.184   8.911  0.00  0.00     0.007 C 
ENDBRANCH   1   6
BRANCH   1   8
HETATM    8  C   UNK N   1      30.804  17.578   7.972  0.00  0.00    -0.035 A 
HETATM    9  C   UNK N   1      30.580  18.365   9.113  0.00  0.00     0.009 A 
HETATM   10  C   UNK N   1      29.279  18.631   9.548  0.00  0.00     0.001 A 
HETATM   11  C   UNK N   1      28.186  18.100   8.856  0.00  0.00     0.000 A 
HETATM   12  C   UNK N   1      28.397  17.307   7.726  0.00  0.00     0.001 A 
HETATM   13  C   UNK N   1      29.697  17.049   7.285  0.00  0.00     0.009 A 
ENDBRANCH   1   8
TORSDOF 4
ENDMDL
MODEL 4
REMARK VINA RESULT:      -4.7     25.698     26.815
REMARK  4 active torsions:
REMARK  status: ('A' for Active; 'I' for Inactive)
REMARK    1  A    between atoms: C_1  and  N_3 
REMARK    2  A    between atoms: C_4  and  N_3 
REMARK    3  A    between atoms: C_4  and  C_5 
REMARK    4  A    between atoms: C_4  and  C_7 
ROOT
HETATM    1  C   UNK N   1      26.335  23.685  -5.597  0.00  0.00     0.116 C 
ENDROOT
BRANCH   1   2
HETATM    2  N   UNK N   1      25.206  23.177  -6.352  0.00  0.00    -0.360 N 
HETATM    3  H   UNK N   1      24.311  23.189  -5.942  0.00  0.00     0.162 HD
BRANCH   2   4
HETATM    4  C   UNK N   1      25.350  22.690  -7.602  0.00  0.00     0.349 C 
HETATM    5  O   UNK N   1      24.528  22.964  -8.460  0.00  0.00    -0.284 OA
ENDBRANCH   2   4
ENDBRANCH   1   2
BRANCH   1   6
HETATM    6  C   UNK N   1      27.585  23.644  -6.488  0.00  0.00     0.025 C 
HETATM    7  C   UNK N   1      28.773  22.998  -5.794  0.00  0.00     0.007 C 
ENDBRANCH   1   6
BRANCH   1   8
HETATM    8  C   UNK N   1      26.046  25.095  -5.109  0.00  0.00    -0.035 A 
HETATM    9  C   UNK N   1      26.514  25.522  -3.857  0.00  0.00     0.009 A 
HETATM   10  C   UNK N   1      26.249  26.817  -3.403  0.00  0.00     0.001 A 
HETATM   11  C   UNK N   1      25.500  27.696  -4.191  0.00  0.00     0.000 A 
HETATM   12  C   UNK N   1      25.020  27.280  -5.434  0.00  0.00     0.001 A 
HETATM   13  C   UNK N   1      25.293  25.989  -5.893  0.00  0.00     0.009 A 
ENDBRANCH   1   8
TORSDOF 4
ENDMDL
MODEL 5
REMARK VINA RESULT:      -4.6      1.794      2.268
REMARK  4 active torsions:
REMARK  status: ('A' for Active; 'I' for Inactive)
REMARK    1  A    between atoms: C_1  and  N_3 
REMARK    2  A    between atoms: C_4  and  N_3 
REMARK    3  A    between atoms: C_4  and  C_5 
REMARK    4  A    between atoms: C_4  and  C_7 
ROOT
HETATM    1  C   UNK N   1      35.199  11.655  15.250  0.00  0.00     0.116 C 
ENDROOT
BRANCH   1   2
HETATM    2  N   UNK N   1      36.349  10.851  14.887  0.00  0.00    -0.360 N 
HETATM    3  H   UNK N   1      36.315   9.877  15.026  0.00  0.00     0.162 HD
BRANCH   2   4
HETATM    4  C   UNK N   1      37.463  11.401  14.362  0.00  0.00     0.349 C 
HETATM    5  O   UNK N   1      38.544  10.860  14.525  0.00  0.00    -0.284 OA
ENDBRANCH   2   4
ENDBRANCH   1   2
BRANCH   1   6
HETATM    6  C   UNK N   1      33.921  10.890  14.876  0.00  0.00     0.025 C 
HETATM    7  C   UNK N   1      33.892  10.487  13.410  0.00  0.00     0.007 C 
ENDBRANCH   1   6
BRANCH   1   8
HETATM    8  C   UNK N   1      35.238  11.982  16.734  0.00  0.00    -0.035 A 
HETATM    9  C   UNK N   1      35.099  13.308  17.172  0.00  0.00     0.009 A 
HETATM   10  C   UNK N   1      35.136  13.614  18.535  0.00  0.00     0.001 A 
HETATM   11  C   UNK N   1      35.326  12.597  19.476  0.00  0.00     0.000 A 
HETATM   12  C   UNK N   1      35.475  11.275  19.052  0.00  0.00     0.001 A 
HETATM   13  C   UNK N   1      35.429  10.968  17.690  0.00  0.00     0.009 A 
ENDBRANCH   1   8
TORSDOF 4
ENDMDL
MODEL 6
REMARK VINA RESULT:      -4.6      1.409      2.257
REMARK  4 active torsions:
REMARK  status: ('A' for Active; 'I' for Inactive)
REMARK    1  A    between atoms: C_1  and  N_3 
REMARK    2  A    between atoms: C_4  and  N_3 
REMARK    3  A    between atoms: C_4  and  C_5 
REMARK    4  A    between atoms: C_4  and  C_7 
ROOT
HETATM    1  C   UNK N   1      35.904  12.147  15.135  0.00  0.00     0.116 C 
ENDROOT
BRANCH   1   2
HETATM    2  N   UNK N   1      35.283  10.958  14.585  0.00  0.00    -0.360 N 
HETATM    3  H   UNK N   1      35.757  10.098  14.646  0.00  0.00     0.162 HD
BRANCH   2   4
HETATM    4  C   UNK N   1      34.072  11.000  13.992  0.00  0.00     0.349 C 
HETATM    5  O   UNK N   1      33.072  10.715  14.630  0.00  0.00    -0.284 OA
ENDBRANCH   2   4
ENDBRANCH   1   2
BRANCH   1   6
HETATM    6  C   UNK N   1      35.325  13.381  14.426  0.00  0.00     0.025 C 
HETATM    7  C   UNK N   1      36.399  14.230  13.766  0.00  0.00     0.007 C 
ENDBRANCH   1   6
BRANCH   1   8
HETATM    8  C   UNK N   1      35.675  12.210  16.635  0.00  0.00    -0.035 A 
HETATM    9  C   UNK N   1      35.752  11.044  17.414  0.00  0.00     0.009 A 
HETATM   10  C   UNK N   1      35.540  11.096  18.794  0.00  0.00     0.001 A 
HETATM   11  C   UNK N   1      35.236  12.313  19.411  0.00  0.00     0.000 A 
HETATM   12  C   UNK N   1      35.146  13.478  18.646  0.00  0.00     0.001 A 
HETATM   13  C   UNK N   1      35.367  13.428  17.268  0.00  0.00     0.009 A 
ENDBRANCH   1   8
TORSDOF 4
ENDMDL
MODEL 7
REMARK VINA RESULT:      -4.5     24.930     27.312
REMARK  4 active torsions:
REMARK  status: ('A' for Active; 'I' for Inactive)
REMARK    1  A    between atoms: C_1  and  N_3 
REMARK    2  A    between atoms: C_4  and  N_3 
REMARK    3  A    between atoms: C_4  and  C_5 
REMARK    4  A    between atoms: C_4  and  C_7 
ROOT
HETATM    1  C   UNK N   1      25.767  25.540  -5.148  0.00  0.00     0.116 C 
ENDROOT
BRANCH   1   2
HETATM    2  N   UNK N   1      25.323  25.280  -6.503  0.00  0.00    -0.360 N 
HETATM    3  H   UNK N   1      24.632  25.859  -6.900  0.00  0.00     0.162 HD
BRANCH   2   4
HETATM    4  C   UNK N   1      25.832  24.268  -7.235  0.00  0.00     0.349 C 
HETATM    5  O   UNK N   1      25.088  23.426  -7.709  0.00  0.00    -0.284 OA
ENDBRANCH   2   4
ENDBRANCH   1   2
BRANCH   1   6
HETATM    6  C   UNK N   1      26.924  24.585  -4.816  0.00  0.00     0.025 C 
HETATM    7  C   UNK N   1      27.031  24.297  -3.327  0.00  0.00     0.007 C 
ENDBRANCH   1   6
BRANCH   1   8
HETATM    8  C   UNK N   1      26.187  26.993  -5.004  0.00  0.00    -0.035 A 
HETATM    9  C   UNK N   1      27.035  27.583  -5.954  0.00  0.00     0.009 A 
HETATM   10  C   UNK N   1      27.426  28.919  -5.825  0.00  0.00     0.001 A 
HETATM   11  C   UNK N   1      26.983  29.676  -4.737  0.00  0.00     0.000 A 
HETATM   12  C   UNK N   1      26.147  29.098  -3.780  0.00  0.00     0.001 A 
HETATM   13  C   UNK N   1      25.748  27.765  -3.913  0.00  0.00     0.009 A 
ENDBRANCH   1   8
TORSDOF 4
ENDMDL
MODEL 8
REMARK VINA RESULT:      -4.5      2.020      2.747
REMARK  4 active torsions:
REMARK  status: ('A' for Active; 'I' for Inactive)
REMARK    1  A    between atoms: C_1  and  N_3 
REMARK    2  A    between atoms: C_4  and  N_3 
REMARK    3  A    between atoms: C_4  and  C_5 
REMARK    4  A    between atoms: C_4  and  C_7 
ROOT
HETATM    1  C   UNK N   1      36.073  11.226  15.044  0.00  0.00     0.116 C 
ENDROOT
BRANCH   1   2
HETATM    2  N   UNK N   1      35.070  11.616  14.074  0.00  0.00    -0.360 N 
HETATM    3  H   UNK N   1      35.160  12.482  13.613  0.00  0.00     0.162 HD
BRANCH   2   4
HETATM    4  C   UNK N   1      34.016  10.825  13.785  0.00  0.00     0.349 C 
HETATM    5  O   UNK N   1      33.071  10.765  14.553  0.00  0.00    -0.284 OA
ENDBRANCH   2   4
ENDBRANCH   1   2
BRANCH   1   6
HETATM    6  C   UNK N   1      37.452  11.677  14.539  0.00  0.00     0.025 C 
HETATM    7  C   UNK N   1      38.463  10.543  14.515  0.00  0.00     0.007 C 
ENDBRANCH   1   6
BRANCH   1   8
HETATM    8  C   UNK N   1      35.752  11.831  16.400  0.00  0.00    -0.035 A 
HETATM    9  C   UNK N   1      35.503  13.207  16.522  0.00  0.00     0.009 A 
HETATM   10  C   UNK N   1      35.210  13.768  17.768  0.00  0.00     0.001 A 
HETATM   11  C   UNK N   1      35.176  12.962  18.909  0.00  0.00     0.000 A 
HETATM   12  C   UNK N   1      35.432  11.594  18.803  0.00  0.00     0.001 A 
HETATM   13  C   UNK N   1      35.716  11.030  17.557  0.00  0.00     0.009 A 
ENDBRANCH   1   8
TORSDOF 4
ENDMDL
MODEL 9
REMARK VINA RESULT:      -4.5      2.118      2.637
REMARK  4 active torsions:
REMARK  status: ('A' for Active; 'I' for Inactive)
REMARK    1  A    between atoms: C_1  and  N_3 
REMARK    2  A    between atoms: C_4  and  N_3 
REMARK    3  A    between atoms: C_4  and  C_5 
REMARK    4  A    between atoms: C_4  and  C_7 
ROOT
HETATM    1  C   UNK N   1      35.760  12.350  14.812  0.00  0.00     0.116 C 
ENDROOT
BRANCH   1   2
HETATM    2  N   UNK N   1      37.012  11.892  14.244  0.00  0.00    -0.360 N 
HETATM    3  H   UNK N   1      37.762  11.679  14.845  0.00  0.00     0.162 HD
BRANCH   2   4
HETATM    4  C   UNK N   1      37.177  11.750  12.912  0.00  0.00     0.349 C 
HETATM    5  O   UNK N   1      36.947  10.676  12.382  0.00  0.00    -0.284 OA
ENDBRANCH   2   4
ENDBRANCH   1   2
BRANCH   1   6
HETATM    6  C   UNK N   1      35.032  11.149  15.436  0.00  0.00     0.025 C 
HETATM    7  C   UNK N   1      33.734  10.818  14.718  0.00  0.00     0.007 C 
ENDBRANCH   1   6
BRANCH   1   8
HETATM    8  C   UNK N   1      36.019  13.438  15.840  0.00  0.00    -0.035 A 
HETATM    9  C   UNK N   1      35.302  13.460  17.046  0.00  0.00     0.009 A 
HETATM   10  C   UNK N   1      35.535  14.461  17.994  0.00  0.00     0.001 A 
HETATM   11  C   UNK N   1      36.478  15.460  17.739  0.00  0.00     0.000 A 
HETATM   12  C   UNK N   1      37.190  15.456  16.538  0.00  0.00     0.001 A 
HETATM   13  C   UNK N   1      36.965  14.451  15.595  0.00  0.00     0.009 A 
ENDBRANCH   1   8
TORSDOF 4
ENDMDL
