MODEL 1
REMARK VINA RESULT:      -6.4      0.000      0.000
REMARK  7 active torsions:
REMARK  status: ('A' for Active; 'I' for Inactive)
REMARK    1  A    between atoms: O_1  and  C_2 
REMARK    2  A    between atoms: C_2  and  C_3 
REMARK    3  A    between atoms: C_3  and  O_4 
REMARK    4  A    between atoms: O_4  and  C_5 
REMARK    5  A    between atoms: C_5  and  N_6 
REMARK    6  A    between atoms: C_13  and  C_14 
REMARK    7  A    between atoms: C_14  and  C_15 
ROOT
HETATM    1  N   UNK N   1      34.503  15.276  10.125  0.00  0.00    -0.287 N 
HETATM    2  C   UNK N   1      35.330  16.388  10.182  0.00  0.00     0.331 A 
HETATM    3  O   UNK N   1      36.348  16.389  10.852  0.00  0.00    -0.246 OA
HETATM    4  N   UNK N   1      35.011  17.510   9.480  0.00  0.00    -0.275 N 
HETATM    5  C   UNK N   1      33.889  17.581   8.709  0.00  0.00     0.257 A 
HETATM    6  O   UNK N   1      33.670  18.611   8.113  0.00  0.00    -0.267 OA
HETATM    7  C   UNK N   1      33.376  15.325   9.362  0.00  0.00     0.111 A 
HETATM    8  C   UNK N   1      33.022  16.468   8.627  0.00  0.00     0.030 A 
HETATM    9  H   UNK N   1      35.608  18.291   9.530  0.00  0.00     0.173 HD
ENDROOT
BRANCH   8  10
HETATM   10  C   UNK N   1      31.729  16.357   7.824  0.00  0.00     0.084 C 
BRANCH  10  11
HETATM   11  C   UNK N   1      30.456  17.175   7.927  0.00  0.00    -0.054 A 
HETATM   12  C   UNK N   1      29.559  17.374   6.873  0.00  0.00     0.007 A 
HETATM   13  C   UNK N   1      28.404  18.142   7.041  0.00  0.00     0.001 A 
HETATM   14  C   UNK N   1      28.131  18.724   8.279  0.00  0.00     0.000 A 
HETATM   15  C   UNK N   1      29.015  18.536   9.343  0.00  0.00     0.001 A 
HETATM   16  C   UNK N   1      30.171  17.765   9.166  0.00  0.00     0.007 A 
ENDBRANCH  10  11
ENDBRANCH   8  10
BRANCH   1  17
HETATM   17  C   UNK N   1      34.770  14.021  10.852  0.00  0.00     0.302 C 
BRANCH  17  18
HETATM   18  O   UNK N   1      34.544  14.154  12.225  0.00  0.00    -0.369 OA
BRANCH  18  19
HETATM   19  C   UNK N   1      35.362  13.233  12.872  0.00  0.00     0.196 C 
BRANCH  19  20
HETATM   20  C   UNK N   1      36.053  13.955  14.013  0.00  0.00     0.190 C 
BRANCH  20  21
HETATM   21  O   UNK N   1      36.760  15.053  13.529  0.00  0.00    -0.399 OA
HETATM   22  H   UNK N   1      36.470  15.497  12.717  0.00  0.00     0.209 HD
ENDBRANCH  20  21
ENDBRANCH  19  20
ENDBRANCH  18  19
ENDBRANCH  17  18
ENDBRANCH   1  17
TORSDOF 7
ENDMDL
MODEL 2
REMARK VINA RESULT:      -6.1     10.806     13.645
REMARK  7 active torsions:
REMARK  status: ('A' for Active; 'I' for Inactive)
REMARK    1  A    between atoms: O_1  and  C_2 
REMARK    2  A    between atoms: C_2  and  C_3 
REMARK    3  A    between atoms: C_3  and  O_4 
REMARK    4  A    between atoms: O_4  and  C_5 
REMARK    5  A    between atoms: C_5  and  N_6 
REMARK    6  A    between atoms: C_13  and  C_14 
REMARK    7  A    between atoms: C_14  and  C_15 
ROOT
HETATM    1  N   UNK N   1      20.335  16.755   8.177  0.00  0.00    -0.287 N 
HETATM    2  C   UNK N   1      21.039  17.351   7.142  0.00  0.00     0.331 A 
HETATM    3  O   UNK N   1      20.820  18.502   6.806  0.00  0.00    -0.246 OA
HETATM    4  N   UNK N   1      21.999  16.649   6.479  0.00  0.00    -0.275 N 
HETATM    5  C   UNK N   1      22.297  15.359   6.800  0.00  0.00     0.257 A 
HETATM    6  O   UNK N   1      23.162  14.797   6.167  0.00  0.00    -0.267 OA
HETATM    7  C   UNK N   1      20.616  15.466   8.515  0.00  0.00     0.111 A 
HETATM    8  C   UNK N   1      21.600  14.718   7.849  0.00  0.00     0.030 A 
HETATM    9  H   UNK N   1      22.491  17.086   5.746  0.00  0.00     0.173 HD
ENDROOT
BRANCH   8  10
HETATM   10  C   UNK N   1      21.790  13.289   8.352  0.00  0.00     0.084 C 
BRANCH  10  11
HETATM   11  C   UNK N   1      22.497  12.791   9.599  0.00  0.00    -0.054 A 
HETATM   12  C   UNK N   1      23.881  12.629   9.710  0.00  0.00     0.007 A 
HETATM   13  C   UNK N   1      24.463  12.165  10.892  0.00  0.00     0.001 A 
HETATM   14  C   UNK N   1      23.658  11.854  11.987  0.00  0.00     0.000 A 
HETATM   15  C   UNK N   1      22.273  12.009  11.895  0.00  0.00     0.001 A 
HETATM   16  C   UNK N   1      21.698  12.475  10.706  0.00  0.00     0.007 A 
ENDBRANCH  10  11
ENDBRANCH   8  10
BRANCH   1  17
HETATM   17  C   UNK N   1      19.280  17.438   8.949  0.00  0.00     0.302 C 
BRANCH  17  18
HETATM   18  O   UNK N   1      18.074  16.732   8.926  0.00  0.00    -0.369 OA
BRANCH  18  19
HETATM   19  C   UNK N   1      17.102  17.550   9.491  0.00  0.00     0.196 C 
BRANCH  19  20
HETATM   20  C   UNK N   1      17.775  18.390  10.560  0.00  0.00     0.190 C 
BRANCH  20  21
HETATM   21  O   UNK N   1      16.938  19.431  10.952  0.00  0.00    -0.399 OA
HETATM   22  H   UNK N   1      17.237  20.071  11.617  0.00  0.00     0.209 HD
ENDBRANCH  20  21
ENDBRANCH  19  20
ENDBRANCH  18  19
ENDBRANCH  17  18
ENDBRANCH   1  17
TORSDOF 7
ENDMDL
MODEL 3
REMARK VINA RESULT:      -6.0      1.796      2.687
REMARK  7 active torsions:
REMARK  status: ('A' for Active; 'I' for Inactive)
REMARK    1  A    between atoms: O_1  and  C_2 
REMARK    2  A    between atoms: C_2  and  C_3 
REMARK    3  A    between atoms: C_3  and  O_4 
REMARK    4  A    between atoms: O_4  and  C_5 
REMARK    5  A    between atoms: C_5  and  N_6 
REMARK    6  A    between atoms: C_13  and  C_14 
REMARK    7  A    between atoms: C_14  and  C_15 
ROOT
HETATM    1  N   UNK N   1      34.489  15.484  10.023  0.00  0.00    -0.287 N 
HETATM    2  C   UNK N   1      35.419  16.492  10.224  0.00  0.00     0.331 A 
HETATM    3  O   UNK N   1      36.365  16.342  10.978  0.00  0.00    -0.246 OA
HETATM    4  N   UNK N   1      35.286  17.680   9.573  0.00  0.00    -0.275 N 
HETATM    5  C   UNK N   1      34.254  17.919   8.716  0.00  0.00     0.257 A 
HETATM    6  O   UNK N   1      34.201  18.999   8.173  0.00  0.00    -0.267 OA
HETATM    7  C   UNK N   1      33.449  15.700   9.170  0.00  0.00     0.111 A 
HETATM    8  C   UNK N   1      33.287  16.915   8.486  0.00  0.00     0.030 A 
HETATM    9  H   UNK N   1      35.955  18.387   9.727  0.00  0.00     0.173 HD
ENDROOT
BRANCH   8  10
HETATM   10  C   UNK N   1      32.069  16.993   7.569  0.00  0.00     0.084 C 
BRANCH  10  11
HETATM   11  C   UNK N   1      32.002  17.030   6.054  0.00  0.00    -0.054 A 
HETATM   12  C   UNK N   1      33.103  17.253   5.220  0.00  0.00     0.007 A 
HETATM   13  C   UNK N   1      32.966  17.273   3.830  0.00  0.00     0.001 A 
HETATM   14  C   UNK N   1      31.713  17.068   3.253  0.00  0.00     0.000 A 
HETATM   15  C   UNK N   1      30.603  16.844   4.069  0.00  0.00     0.001 A 
HETATM   16  C   UNK N   1      30.749  16.826   5.461  0.00  0.00     0.007 A 
ENDBRANCH  10  11
ENDBRANCH   8  10
BRANCH   1  17
HETATM   17  C   UNK N   1      34.554  14.167  10.685  0.00  0.00     0.302 C 
BRANCH  17  18
HETATM   18  O   UNK N   1      34.423  14.273  12.073  0.00  0.00    -0.369 OA
BRANCH  18  19
HETATM   19  C   UNK N   1      35.185  13.258  12.641  0.00  0.00     0.196 C 
BRANCH  19  20
HETATM   20  C   UNK N   1      35.896  13.840  13.848  0.00  0.00     0.190 C 
BRANCH  20  21
HETATM   21  O   UNK N   1      36.717  14.895  13.461  0.00  0.00    -0.399 OA
HETATM   22  H   UNK N   1      37.234  14.833  12.641  0.00  0.00     0.209 HD
ENDBRANCH  20  21
ENDBRANCH  19  20
ENDBRANCH  18  19
ENDBRANCH  17  18
ENDBRANCH   1  17
TORSDOF 7
ENDMDL
MODEL 4
REMARK VINA RESULT:      -6.0     14.075     16.557
REMARK  7 active torsions:
REMARK  status: ('A' for Active; 'I' for Inactive)
REMARK    1  A    between atoms: O_1  and  C_2 
REMARK    2  A    between atoms: C_2  and  C_3 
REMARK    3  A    between atoms: C_3  and  O_4 
REMARK    4  A    between atoms: O_4  and  C_5 
REMARK    5  A    between atoms: C_5  and  N_6 
REMARK    6  A    between atoms: C_13  and  C_14 
REMARK    7  A    between atoms: C_14  and  C_15 
ROOT
HETATM    1  N   UNK N   1      30.344  23.049  -3.792  0.00  0.00    -0.287 N 
HETATM    2  C   UNK N   1      29.927  23.184  -2.476  0.00  0.00     0.331 A 
HETATM    3  O   UNK N   1      30.693  23.001  -1.546  0.00  0.00    -0.246 OA
HETATM    4  N   UNK N   1      28.639  23.526  -2.203  0.00  0.00    -0.275 N 
HETATM    5  C   UNK N   1      27.728  23.745  -3.192  0.00  0.00     0.257 A 
HETATM    6  O   UNK N   1      26.599  24.046  -2.873  0.00  0.00    -0.267 OA
HETATM    7  C   UNK N   1      29.450  23.263  -4.797  0.00  0.00     0.111 A 
HETATM    8  C   UNK N   1      28.116  23.617  -4.545  0.00  0.00     0.030 A 
HETATM    9  H   UNK N   1      28.357  23.618  -1.263  0.00  0.00     0.173 HD
ENDROOT
BRANCH   8  10
HETATM   10  C   UNK N   1      27.246  23.821  -5.782  0.00  0.00     0.084 C 
BRANCH  10  11
HETATM   11  C   UNK N   1      26.705  22.796  -6.761  0.00  0.00    -0.054 A 
HETATM   12  C   UNK N   1      27.457  22.206  -7.782  0.00  0.00     0.007 A 
HETATM   13  C   UNK N   1      26.892  21.267  -8.648  0.00  0.00     0.001 A 
HETATM   14  C   UNK N   1      25.553  20.905  -8.501  0.00  0.00     0.000 A 
HETATM   15  C   UNK N   1      24.786  21.483  -7.487  0.00  0.00     0.001 A 
HETATM   16  C   UNK N   1      25.361  22.423  -6.623  0.00  0.00     0.007 A 
ENDBRANCH  10  11
ENDBRANCH   8  10
BRANCH   1  17
HETATM   17  C   UNK N   1      31.719  22.682  -4.181  0.00  0.00     0.302 C 
BRANCH  17  18
HETATM   18  O   UNK N   1      31.750  21.521  -4.959  0.00  0.00    -0.369 OA
BRANCH  18  19
HETATM   19  C   UNK N   1      32.402  20.541  -4.218  0.00  0.00     0.196 C 
BRANCH  19  20
HETATM   20  C   UNK N   1      33.296  21.244  -3.215  0.00  0.00     0.190 C 
BRANCH  20  21
HETATM   21  O   UNK N   1      32.891  20.945  -1.917  0.00  0.00    -0.399 OA
HETATM   22  H   UNK N   1      32.252  20.232  -1.760  0.00  0.00     0.209 HD
ENDBRANCH  20  21
ENDBRANCH  19  20
ENDBRANCH  18  19
ENDBRANCH  17  18
ENDBRANCH   1  17
TORSDOF 7
ENDMDL
MODEL 5
REMARK VINA RESULT:      -5.9     11.564     13.571
REMARK  7 active torsions:
REMARK  status: ('A' for Active; 'I' for Inactive)
REMARK    1  A    between atoms: O_1  and  C_2 
REMARK    2  A    between atoms: C_2  and  C_3 
REMARK    3  A    between atoms: C_3  and  O_4 
REMARK    4  A    between atoms: O_4  and  C_5 
REMARK    5  A    between atoms: C_5  and  N_6 
REMARK    6  A    between atoms: C_13  and  C_14 
REMARK    7  A    between atoms: C_14  and  C_15 
ROOT
HETATM    1  N   UNK N   1      21.704  17.038   6.563  0.00  0.00    -0.287 N 
HETATM    2  C   UNK N   1      20.809  17.861   7.230  0.00  0.00     0.331 A 
HETATM    3  O   UNK N   1      20.785  19.064   7.032  0.00  0.00    -0.246 OA
HETATM    4  N   UNK N   1      19.934  17.330   8.127  0.00  0.00    -0.275 N 
HETATM    5  C   UNK N   1      19.904  15.996   8.399  0.00  0.00     0.257 A 
HETATM    6  O   UNK N   1      19.099  15.595   9.208  0.00  0.00    -0.267 OA
HETATM    7  C   UNK N   1      21.692  15.700   6.819  0.00  0.00     0.111 A 
HETATM    8  C   UNK N   1      20.801  15.125   7.738  0.00  0.00     0.030 A 
HETATM    9  H   UNK N   1      19.305  17.928   8.593  0.00  0.00     0.173 HD
ENDROOT
BRANCH   8  10
HETATM   10  C   UNK N   1      20.919  13.612   7.907  0.00  0.00     0.084 C 
BRANCH  10  11
HETATM   11  C   UNK N   1      21.689  12.814   8.942  0.00  0.00    -0.054 A 
HETATM   12  C   UNK N   1      22.778  11.986   8.649  0.00  0.00     0.007 A 
HETATM   13  C   UNK N   1      23.441  11.280   9.655  0.00  0.00     0.001 A 
HETATM   14  C   UNK N   1      23.017  11.394  10.979  0.00  0.00     0.000 A 
HETATM   15  C   UNK N   1      21.932  12.216  11.290  0.00  0.00     0.001 A 
HETATM   16  C   UNK N   1      21.273  12.921  10.276  0.00  0.00     0.007 A 
ENDBRANCH  10  11
ENDBRANCH   8  10
BRANCH   1  17
HETATM   17  C   UNK N   1      22.685  17.526   5.576  0.00  0.00     0.302 C 
BRANCH  17  18
HETATM   18  O   UNK N   1      22.423  17.037   4.293  0.00  0.00    -0.369 OA
BRANCH  18  19
HETATM   19  C   UNK N   1      21.341  17.751   3.789  0.00  0.00     0.196 C 
BRANCH  19  20
HETATM   20  C   UNK N   1      21.764  19.203   3.671  0.00  0.00     0.190 C 
BRANCH  20  21
HETATM   21  O   UNK N   1      20.777  20.036   4.189  0.00  0.00    -0.399 OA
HETATM   22  H   UNK N   1      20.633  20.081   5.148  0.00  0.00     0.209 HD
ENDBRANCH  20  21
ENDBRANCH  19  20
ENDBRANCH  18  19
ENDBRANCH  17  18
ENDBRANCH   1  17
TORSDOF 7
ENDMDL
MODEL 6
REMARK VINA RESULT:      -5.9     14.262     16.302
REMARK  7 active torsions:
REMARK  status: ('A' for Active; 'I' for Inactive)
REMARK    1  A    between atoms: O_1  and  C_2 
REMARK    2  A    between atoms: C_2  and  C_3 
REMARK    3  A    between atoms: C_3  and  O_4 
REMARK    4  A    between atoms: O_4  and  C_5 
REMARK    5  A    between atoms: C_5  and  N_6 
REMARK    6  A    between atoms: C_13  and  C_14 
REMARK    7  A    between atoms: C_14  and  C_15 
ROOT
HETATM    1  N   UNK N   1      30.788  22.983  -4.001  0.00  0.00    -0.287 N 
HETATM    2  C   UNK N   1      30.693  22.683  -2.651  0.00  0.00     0.331 A 
HETATM    3  O   UNK N   1      31.646  22.245  -2.029  0.00  0.00    -0.246 OA
HETATM    4  N   UNK N   1      29.518  22.876  -1.991  0.00  0.00    -0.275 N 
HETATM    5  C   UNK N   1      28.412  23.362  -2.621  0.00  0.00     0.257 A 
HETATM    6  O   UNK N   1      27.401  23.508  -1.971  0.00  0.00    -0.267 OA
HETATM    7  C   UNK N   1      29.695  23.470  -4.651  0.00  0.00     0.111 A 
HETATM    8  C   UNK N   1      28.470  23.680  -3.997  0.00  0.00     0.030 A 
HETATM    9  H   UNK N   1      29.466  22.658  -1.032  0.00  0.00     0.173 HD
ENDROOT
BRANCH   8  10
HETATM   10  C   UNK N   1      27.346  24.230  -4.870  0.00  0.00     0.084 C 
BRANCH  10  11
HETATM   11  C   UNK N   1      26.581  25.535  -4.750  0.00  0.00    -0.054 A 
HETATM   12  C   UNK N   1      26.663  26.400  -3.654  0.00  0.00     0.007 A 
HETATM   13  C   UNK N   1      25.928  27.587  -3.611  0.00  0.00     0.001 A 
HETATM   14  C   UNK N   1      25.093  27.925  -4.676  0.00  0.00     0.000 A 
HETATM   15  C   UNK N   1      24.998  27.073  -5.779  0.00  0.00     0.001 A 
HETATM   16  C   UNK N   1      25.739  25.886  -5.813  0.00  0.00     0.007 A 
ENDBRANCH  10  11
ENDBRANCH   8  10
BRANCH   1  17
HETATM   17  C   UNK N   1      32.019  22.806  -4.794  0.00  0.00     0.302 C 
BRANCH  17  18
HETATM   18  O   UNK N   1      32.409  21.465  -4.860  0.00  0.00    -0.369 OA
BRANCH  18  19
HETATM   19  C   UNK N   1      33.785  21.442  -5.065  0.00  0.00     0.196 C 
BRANCH  19  20
HETATM   20  C   UNK N   1      34.417  20.774  -3.859  0.00  0.00     0.190 C 
BRANCH  20  21
HETATM   21  O   UNK N   1      33.430  20.282  -3.010  0.00  0.00    -0.399 OA
HETATM   22  H   UNK N   1      32.517  20.194  -3.326  0.00  0.00     0.209 HD
ENDBRANCH  20  21
ENDBRANCH  19  20
ENDBRANCH  18  19
ENDBRANCH  17  18
ENDBRANCH   1  17
TORSDOF 7
ENDMDL
MODEL 7
REMARK VINA RESULT:      -5.7      2.569      3.824
REMARK  7 active torsions:
REMARK  status: ('A' for Active; 'I' for Inactive)
REMARK    1  A    between atoms: O_1  and  C_2 
REMARK    2  A    between atoms: C_2  and  C_3 
REMARK    3  A    between atoms: C_3  and  O_4 
REMARK    4  A    between atoms: O_4  and  C_5 
REMARK    5  A    between atoms: C_5  and  N_6 
REMARK    6  A    between atoms: C_13  and  C_14 
REMARK    7  A    between atoms: C_14  and  C_15 
ROOT
HETATM    1  N   UNK N   1      32.946  16.341   7.225  0.00  0.00    -0.287 N 
HETATM    2  C   UNK N   1      33.744  16.624   6.127  0.00  0.00     0.331 A 
HETATM    3  O   UNK N   1      34.952  16.469   6.165  0.00  0.00    -0.246 OA
HETATM    4  N   UNK N   1      33.181  17.084   4.977  0.00  0.00    -0.275 N 
HETATM    5  C   UNK N   1      31.837  17.281   4.863  0.00  0.00     0.257 A 
HETATM    6  O   UNK N   1      31.407  17.692   3.809  0.00  0.00    -0.267 OA
HETATM    7  C   UNK N   1      31.600  16.530   7.134  0.00  0.00     0.111 A 
HETATM    8  C   UNK N   1      30.991  17.003   5.961  0.00  0.00     0.030 A 
HETATM    9  H   UNK N   1      33.760  17.280   4.206  0.00  0.00     0.173 HD
ENDROOT
BRANCH   8  10
HETATM   10  C   UNK N   1      29.474  17.159   6.026  0.00  0.00     0.084 C 
BRANCH  10  11
HETATM   11  C   UNK N   1      28.622  18.399   5.829  0.00  0.00    -0.054 A 
HETATM   12  C   UNK N   1      28.243  18.906   4.582  0.00  0.00     0.007 A 
HETATM   13  C   UNK N   1      27.455  20.054   4.477  0.00  0.00     0.001 A 
HETATM   14  C   UNK N   1      27.033  20.715   5.630  0.00  0.00     0.000 A 
HETATM   15  C   UNK N   1      27.402  20.224   6.884  0.00  0.00     0.001 A 
HETATM   16  C   UNK N   1      28.192  19.071   6.980  0.00  0.00     0.007 A 
ENDBRANCH  10  11
ENDBRANCH   8  10
BRANCH   1  17
HETATM   17  C   UNK N   1      33.469  15.840   8.510  0.00  0.00     0.302 C 
BRANCH  17  18
HETATM   18  O   UNK N   1      33.625  16.866   9.447  0.00  0.00    -0.369 OA
BRANCH  18  19
HETATM   19  C   UNK N   1      34.990  17.076   9.610  0.00  0.00     0.196 C 
BRANCH  19  20
HETATM   20  C   UNK N   1      35.420  16.343  10.867  0.00  0.00     0.190 C 
BRANCH  20  21
HETATM   21  O   UNK N   1      36.802  16.176  10.877  0.00  0.00    -0.399 OA
HETATM   22  H   UNK N   1      37.186  15.324  11.139  0.00  0.00     0.209 HD
ENDBRANCH  20  21
ENDBRANCH  19  20
ENDBRANCH  18  19
ENDBRANCH  17  18
ENDBRANCH   1  17
TORSDOF 7
ENDMDL
MODEL 8
REMARK VINA RESULT:      -5.6      3.712      5.673
REMARK  7 active torsions:
REMARK  status: ('A' for Active; 'I' for Inactive)
REMARK    1  A    between atoms: O_1  and  C_2 
REMARK    2  A    between atoms: C_2  and  C_3 
REMARK    3  A    between atoms: C_3  and  O_4 
REMARK    4  A    between atoms: O_4  and  C_5 
REMARK    5  A    between atoms: C_5  and  N_6 
REMARK    6  A    between atoms: C_13  and  C_14 
REMARK    7  A    between atoms: C_14  and  C_15 
ROOT
HETATM    1  N   UNK N   1      32.596  16.636   5.070  0.00  0.00    -0.287 N 
HETATM    2  C   UNK N   1      32.650  16.239   3.742  0.00  0.00     0.331 A 
HETATM    3  O   UNK N   1      33.701  15.914   3.219  0.00  0.00    -0.246 OA
HETATM    4  N   UNK N   1      31.513  16.207   2.995  0.00  0.00    -0.275 N 
HETATM    5  C   UNK N   1      30.302  16.557   3.513  0.00  0.00     0.257 A 
HETATM    6  O   UNK N   1      29.333  16.504   2.789  0.00  0.00    -0.267 OA
HETATM    7  C   UNK N   1      31.396  16.990   5.609  0.00  0.00     0.111 A 
HETATM    8  C   UNK N   1      30.208  16.967   4.863  0.00  0.00     0.030 A 
HETATM    9  H   UNK N   1      31.567  15.923   2.054  0.00  0.00     0.173 HD
ENDROOT
BRANCH   8  10
HETATM   10  C   UNK N   1      28.951  17.393   5.617  0.00  0.00     0.084 C 
BRANCH  10  11
HETATM   11  C   UNK N   1      28.170  18.691   5.536  0.00  0.00    -0.054 A 
HETATM   12  C   UNK N   1      27.689  19.249   4.347  0.00  0.00     0.007 A 
HETATM   13  C   UNK N   1      26.976  20.451   4.349  0.00  0.00     0.001 A 
HETATM   14  C   UNK N   1      26.735  21.113   5.552  0.00  0.00     0.000 A 
HETATM   15  C   UNK N   1      27.207  20.571   6.749  0.00  0.00     0.001 A 
HETATM   16  C   UNK N   1      27.921  19.366   6.738  0.00  0.00     0.007 A 
ENDBRANCH  10  11
ENDBRANCH   8  10
BRANCH   1  17
HETATM   17  C   UNK N   1      33.776  16.700   5.953  0.00  0.00     0.302 C 
BRANCH  17  18
HETATM   18  O   UNK N   1      34.039  18.006   6.379  0.00  0.00    -0.369 OA
BRANCH  18  19
HETATM   19  C   UNK N   1      34.462  17.933   7.703  0.00  0.00     0.196 C 
BRANCH  19  20
HETATM   20  C   UNK N   1      33.259  17.557   8.548  0.00  0.00     0.190 C 
BRANCH  20  21
HETATM   21  O   UNK N   1      33.671  16.895   9.701  0.00  0.00    -0.399 OA
HETATM   22  H   UNK N   1      33.967  17.402  10.474  0.00  0.00     0.209 HD
ENDBRANCH  20  21
ENDBRANCH  19  20
ENDBRANCH  18  19
ENDBRANCH  17  18
ENDBRANCH   1  17
TORSDOF 7
ENDMDL
MODEL 9
REMARK VINA RESULT:      -5.4      3.601      5.859
REMARK  7 active torsions:
REMARK  status: ('A' for Active; 'I' for Inactive)
REMARK    1  A    between atoms: O_1  and  C_2 
REMARK    2  A    between atoms: C_2  and  C_3 
REMARK    3  A    between atoms: C_3  and  O_4 
REMARK    4  A    between atoms: O_4  and  C_5 
REMARK    5  A    between atoms: C_5  and  N_6 
REMARK    6  A    between atoms: C_13  and  C_14 
REMARK    7  A    between atoms: C_14  and  C_15 
ROOT
HETATM    1  N   UNK N   1      32.010  16.625   6.761  0.00  0.00    -0.287 N 
HETATM    2  C   UNK N   1      32.633  16.973   7.950  0.00  0.00     0.331 A 
HETATM    3  O   UNK N   1      33.806  16.713   8.151  0.00  0.00    -0.246 OA
HETATM    4  N   UNK N   1      31.932  17.619   8.921  0.00  0.00    -0.275 N 
HETATM    5  C   UNK N   1      30.617  17.942   8.766  0.00  0.00     0.257 A 
HETATM    6  O   UNK N   1      30.058  18.516   9.672  0.00  0.00    -0.267 OA
HETATM    7  C   UNK N   1      30.696  16.938   6.583  0.00  0.00     0.111 A 
HETATM    8  C   UNK N   1      29.949  17.603   7.567  0.00  0.00     0.030 A 
HETATM    9  H   UNK N   1      32.388  17.859   9.760  0.00  0.00     0.173 HD
ENDROOT
BRANCH   8  10
HETATM   10  C   UNK N   1      28.491  17.878   7.209  0.00  0.00     0.084 C 
BRANCH  10  11
HETATM   11  C   UNK N   1      27.906  18.923   6.277  0.00  0.00    -0.054 A 
HETATM   12  C   UNK N   1      27.845  18.794   4.886  0.00  0.00     0.007 A 
HETATM   13  C   UNK N   1      27.291  19.799   4.090  0.00  0.00     0.001 A 
HETATM   14  C   UNK N   1      26.787  20.956   4.683  0.00  0.00     0.000 A 
HETATM   15  C   UNK N   1      26.839  21.103   6.071  0.00  0.00     0.001 A 
HETATM   16  C   UNK N   1      27.396  20.090   6.861  0.00  0.00     0.007 A 
ENDBRANCH  10  11
ENDBRANCH   8  10
BRANCH   1  17
HETATM   17  C   UNK N   1      32.691  15.925   5.655  0.00  0.00     0.302 C 
BRANCH  17  18
HETATM   18  O   UNK N   1      33.325  16.817   4.784  0.00  0.00    -0.369 OA
BRANCH  18  19
HETATM   19  C   UNK N   1      32.981  16.447   3.488  0.00  0.00     0.196 C 
BRANCH  19  20
HETATM   20  C   UNK N   1      33.571  15.073   3.231  0.00  0.00     0.190 C 
BRANCH  20  21
HETATM   21  O   UNK N   1      34.093  15.007   1.943  0.00  0.00    -0.399 OA
HETATM   22  H   UNK N   1      33.884  14.251   1.372  0.00  0.00     0.209 HD
ENDBRANCH  20  21
ENDBRANCH  19  20
ENDBRANCH  18  19
ENDBRANCH  17  18
ENDBRANCH   1  17
TORSDOF 7
ENDMDL
