REMARK  11 active torsions:
REMARK  status: ('A' for Active; 'I' for Inactive)
REMARK    1  A    between atoms: O_1  and  C_2 
REMARK    2  A    between atoms: C_2  and  C_3 
REMARK    3  A    between atoms: C_3  and  O_4 
REMARK    4  A    between atoms: O_4  and  C_5 
REMARK    5  A    between atoms: C_5  and  N_6 
REMARK    6  A    between atoms: C_12  and  O_29 
REMARK    7  A    between atoms: C_13  and  C_14 
REMARK    8  A    between atoms: C_14  and  C_15 
REMARK    9  A    between atoms: C_20  and  O_21 
REMARK   10  A    between atoms: O_21  and  C_22 
REMARK   11  A    between atoms: C_22  and  C_23 
ROOT
HETATM    1  N   UNK N   1      -1.838  -0.506  -0.205  0.00  0.00    -0.257 N 
HETATM    2  C   UNK N   1      -2.012   0.801   0.196  0.00  0.00     0.333 A 
HETATM    3  O   UNK N   1      -3.130   1.287   0.254  0.00  0.00    -0.246 OA
HETATM    4  N   UNK N   1      -0.935   1.558   0.545  0.00  0.00    -0.275 N 
HETATM    5  C   UNK N   1       0.333   1.057   0.477  0.00  0.00     0.260 A 
HETATM    6  O   UNK N   1       1.257   1.758   0.841  0.00  0.00    -0.267 OA
HETATM    7  C   UNK N   1      -0.584  -1.032  -0.312  0.00  0.00     0.160 A 
HETATM    8  C   UNK N   1       0.539  -0.259   0.001  0.00  0.00     0.065 A 
HETATM    9  H   UNK N   1      -1.074   2.484   0.852  0.00  0.00     0.173 HD
ENDROOT
BRANCH   8  10
HETATM   10  C   UNK N   1       1.890  -0.907  -0.204  0.00  0.00     0.087 C 
BRANCH  10  11
HETATM   11  C   UNK N   1       3.104  -0.044  -0.268  0.00  0.00    -0.051 A 
HETATM   12  C   UNK N   1       3.118   1.182  -0.952  0.00  0.00     0.007 A 
HETATM   13  C   UNK N   1       4.278   1.958  -0.980  0.00  0.00     0.003 A 
HETATM   14  C   UNK N   1       5.451   1.472  -0.405  0.00  0.00     0.037 A 
HETATM   15  C   UNK N   1       5.461   0.207   0.181  0.00  0.00     0.069 A 
HETATM   16  C   UNK N   1       4.282  -0.540   0.268  0.00  0.00     0.044 A 
BRANCH  15  17
HETATM   17  O   UNK N   1       6.632  -0.337   0.532  0.00  0.00    -0.347 OA
BRANCH  17  18
HETATM   18  C   UNK N   1       6.920  -1.607   0.093  0.00  0.00     0.214 C 
BRANCH  18  19
HETATM   19  C   UNK N   1       8.381  -1.828   0.069  0.00  0.00    -0.034 A 
HETATM   20  C   UNK N   1       9.272  -0.781  -0.207  0.00  0.00     0.009 A 
HETATM   21  C   UNK N   1      10.648  -1.015  -0.183  0.00  0.00     0.001 A 
HETATM   22  C   UNK N   1      11.131  -2.295   0.106  0.00  0.00     0.000 A 
HETATM   23  C   UNK N   1      10.239  -3.341   0.363  0.00  0.00     0.001 A 
HETATM   24  C   UNK N   1       8.865  -3.105   0.346  0.00  0.00     0.009 A 
ENDBRANCH  18  19
ENDBRANCH  17  18
ENDBRANCH  15  17
ENDBRANCH  10  11
ENDBRANCH   8  10
BRANCH   7  25
HETATM   25  O   UNK N   1      -0.424  -2.308  -0.722  0.00  0.00    -0.345 OA
HETATM   26  H   UNK N   1      -1.136  -2.847  -1.007  0.00  0.00     0.219 HD
ENDBRANCH   7  25
BRANCH   1  27
HETATM   27  C   UNK N   1      -2.987  -1.346  -0.516  0.00  0.00     0.305 C 
BRANCH  27  28
HETATM   28  O   UNK N   1      -3.750  -1.530   0.641  0.00  0.00    -0.369 OA
BRANCH  28  29
HETATM   29  C   UNK N   1      -5.019  -1.881   0.184  0.00  0.00     0.196 C 
BRANCH  29  30
HETATM   30  C   UNK N   1      -5.905  -0.653   0.112  0.00  0.00     0.190 C 
BRANCH  30  31
HETATM   31  O   UNK N   1      -7.193  -1.038  -0.253  0.00  0.00    -0.399 OA
HETATM   32  H   UNK N   1      -7.874  -0.395  -0.508  0.00  0.00     0.209 HD
ENDBRANCH  30  31
ENDBRANCH  29  30
ENDBRANCH  28  29
ENDBRANCH  27  28
ENDBRANCH   1  27
TORSDOF 11
