MODEL 1
REMARK VINA RESULT:      -7.5      0.000      0.000
REMARK  11 active torsions:
REMARK  status: ('A' for Active; 'I' for Inactive)
REMARK    1  A    between atoms: O_1  and  C_2 
REMARK    2  A    between atoms: C_2  and  C_3 
REMARK    3  A    between atoms: C_3  and  O_4 
REMARK    4  A    between atoms: O_4  and  C_5 
REMARK    5  A    between atoms: C_5  and  N_6 
REMARK    6  A    between atoms: C_12  and  O_29 
REMARK    7  A    between atoms: C_13  and  C_14 
REMARK    8  A    between atoms: C_14  and  C_15 
REMARK    9  A    between atoms: C_20  and  O_21 
REMARK   10  A    between atoms: O_21  and  C_22 
REMARK   11  A    between atoms: C_22  and  C_23 
ROOT
HETATM    1  N   UNK N   1      34.475  15.338   9.975  0.00  0.00    -0.257 N 
HETATM    2  C   UNK N   1      35.226  16.484  10.122  0.00  0.00     0.333 A 
HETATM    3  O   UNK N   1      36.175  16.508  10.889  0.00  0.00    -0.246 OA
HETATM    4  N   UNK N   1      34.922  17.598   9.399  0.00  0.00    -0.275 N 
HETATM    5  C   UNK N   1      33.858  17.616   8.544  0.00  0.00     0.260 A 
HETATM    6  O   UNK N   1      33.654  18.620   7.889  0.00  0.00    -0.267 OA
HETATM    7  C   UNK N   1      33.388  15.328   9.151  0.00  0.00     0.160 A 
HETATM    8  C   UNK N   1      33.033  16.473   8.431  0.00  0.00     0.065 A 
HETATM    9  H   UNK N   1      35.480  18.404   9.496  0.00  0.00     0.173 HD
ENDROOT
BRANCH   8  10
HETATM   10  C   UNK N   1      31.780  16.386   7.590  0.00  0.00     0.087 C 
BRANCH  10  11
HETATM   11  C   UNK N   1      30.559  17.119   8.032  0.00  0.00    -0.051 A 
HETATM   12  C   UNK N   1      30.227  17.276   9.387  0.00  0.00     0.007 A 
HETATM   13  C   UNK N   1      29.075  17.975   9.752  0.00  0.00     0.003 A 
HETATM   14  C   UNK N   1      28.205  18.440   8.768  0.00  0.00     0.037 A 
HETATM   15  C   UNK N   1      28.484  18.190   7.425  0.00  0.00     0.069 A 
HETATM   16  C   UNK N   1      29.672  17.550   7.058  0.00  0.00     0.044 A 
BRANCH  15  17
HETATM   17  O   UNK N   1      27.544  18.446   6.508  0.00  0.00    -0.347 OA
BRANCH  17  18
HETATM   18  C   UNK N   1      27.929  19.014   5.317  0.00  0.00     0.214 C 
BRANCH  18  19
HETATM   19  C   UNK N   1      26.747  19.443   4.541  0.00  0.00    -0.034 A 
HETATM   20  C   UNK N   1      26.860  20.365   3.491  0.00  0.00     0.009 A 
HETATM   21  C   UNK N   1      25.730  20.718   2.752  0.00  0.00     0.001 A 
HETATM   22  C   UNK N   1      24.488  20.159   3.069  0.00  0.00     0.000 A 
HETATM   23  C   UNK N   1      24.376  19.254   4.129  0.00  0.00     0.001 A 
HETATM   24  C   UNK N   1      25.507  18.895   4.862  0.00  0.00     0.009 A 
ENDBRANCH  18  19
ENDBRANCH  17  18
ENDBRANCH  15  17
ENDBRANCH  10  11
ENDBRANCH   8  10
BRANCH   7  25
HETATM   25  O   UNK N   1      32.650  14.205   9.028  0.00  0.00    -0.345 OA
HETATM   26  H   UNK N   1      32.448  13.814   8.200  0.00  0.00     0.219 HD
ENDBRANCH   7  25
BRANCH   1  27
HETATM   27  C   UNK N   1      34.832  14.120  10.692  0.00  0.00     0.305 C 
BRANCH  27  28
HETATM   28  O   UNK N   1      34.499  14.266  12.042  0.00  0.00    -0.369 OA
BRANCH  28  29
HETATM   29  C   UNK N   1      35.161  13.225  12.691  0.00  0.00     0.196 C 
BRANCH  29  30
HETATM   30  C   UNK N   1      36.608  13.603  12.938  0.00  0.00     0.190 C 
BRANCH  30  31
HETATM   31  O   UNK N   1      36.664  14.898  13.447  0.00  0.00    -0.399 OA
HETATM   32  H   UNK N   1      35.957  15.269  14.000  0.00  0.00     0.209 HD
ENDBRANCH  30  31
ENDBRANCH  29  30
ENDBRANCH  28  29
ENDBRANCH  27  28
ENDBRANCH   1  27
TORSDOF 11
ENDMDL
MODEL 2
REMARK VINA RESULT:      -7.4      3.107     10.414
REMARK  11 active torsions:
REMARK  status: ('A' for Active; 'I' for Inactive)
REMARK    1  A    between atoms: O_1  and  C_2 
REMARK    2  A    between atoms: C_2  and  C_3 
REMARK    3  A    between atoms: C_3  and  O_4 
REMARK    4  A    between atoms: O_4  and  C_5 
REMARK    5  A    between atoms: C_5  and  N_6 
REMARK    6  A    between atoms: C_12  and  O_29 
REMARK    7  A    between atoms: C_13  and  C_14 
REMARK    8  A    between atoms: C_14  and  C_15 
REMARK    9  A    between atoms: C_20  and  O_21 
REMARK   10  A    between atoms: O_21  and  C_22 
REMARK   11  A    between atoms: C_22  and  C_23 
ROOT
HETATM    1  N   UNK N   1      27.385  19.772   4.939  0.00  0.00    -0.257 N 
HETATM    2  C   UNK N   1      26.955  20.372   6.103  0.00  0.00     0.333 A 
HETATM    3  O   UNK N   1      26.270  21.382   6.063  0.00  0.00    -0.246 OA
HETATM    4  N   UNK N   1      27.281  19.833   7.310  0.00  0.00    -0.275 N 
HETATM    5  C   UNK N   1      28.059  18.715   7.398  0.00  0.00     0.260 A 
HETATM    6  O   UNK N   1      28.286  18.247   8.497  0.00  0.00    -0.267 OA
HETATM    7  C   UNK N   1      28.187  18.671   4.988  0.00  0.00     0.160 A 
HETATM    8  C   UNK N   1      28.569  18.125   6.218  0.00  0.00     0.065 A 
HETATM    9  H   UNK N   1      26.949  20.257   8.135  0.00  0.00     0.173 HD
ENDROOT
BRANCH   8  10
HETATM   10  C   UNK N   1      29.507  16.939   6.175  0.00  0.00     0.087 C 
BRANCH  10  11
HETATM   11  C   UNK N   1      30.975  17.174   6.294  0.00  0.00    -0.051 A 
HETATM   12  C   UNK N   1      31.825  17.197   5.177  0.00  0.00     0.007 A 
HETATM   13  C   UNK N   1      33.192  17.425   5.339  0.00  0.00     0.003 A 
HETATM   14  C   UNK N   1      33.729  17.540   6.621  0.00  0.00     0.037 A 
HETATM   15  C   UNK N   1      32.898  17.410   7.732  0.00  0.00     0.069 A 
HETATM   16  C   UNK N   1      31.518  17.249   7.567  0.00  0.00     0.044 A 
BRANCH  15  17
HETATM   17  O   UNK N   1      33.449  17.304   8.947  0.00  0.00    -0.347 OA
BRANCH  17  18
HETATM   18  C   UNK N   1      34.820  17.310   9.045  0.00  0.00     0.214 C 
BRANCH  18  19
HETATM   19  C   UNK N   1      35.285  16.175   9.868  0.00  0.00    -0.034 A 
HETATM   20  C   UNK N   1      35.444  16.298  11.256  0.00  0.00     0.009 A 
HETATM   21  C   UNK N   1      35.848  15.195  12.010  0.00  0.00     0.001 A 
HETATM   22  C   UNK N   1      36.102  13.974  11.376  0.00  0.00     0.000 A 
HETATM   23  C   UNK N   1      35.960  13.860   9.990  0.00  0.00     0.001 A 
HETATM   24  C   UNK N   1      35.550  14.960   9.238  0.00  0.00     0.009 A 
ENDBRANCH  18  19
ENDBRANCH  17  18
ENDBRANCH  15  17
ENDBRANCH  10  11
ENDBRANCH   8  10
BRANCH   7  25
HETATM   25  O   UNK N   1      28.616  18.101   3.842  0.00  0.00    -0.345 OA
HETATM   26  H   UNK N   1      28.132  18.137   3.040  0.00  0.00     0.219 HD
ENDBRANCH   7  25
BRANCH   1  27
HETATM   27  C   UNK N   1      26.986  20.301   3.641  0.00  0.00     0.305 C 
BRANCH  27  28
HETATM   28  O   UNK N   1      25.921  19.546   3.143  0.00  0.00    -0.369 OA
BRANCH  28  29
HETATM   29  C   UNK N   1      25.000  20.483   2.679  0.00  0.00     0.196 C 
BRANCH  29  30
HETATM   30  C   UNK N   1      23.618  20.165   3.215  0.00  0.00     0.190 C 
BRANCH  30  31
HETATM   31  O   UNK N   1      22.722  21.139   2.778  0.00  0.00    -0.399 OA
HETATM   32  H   UNK N   1      21.840  20.917   2.440  0.00  0.00     0.209 HD
ENDBRANCH  30  31
ENDBRANCH  29  30
ENDBRANCH  28  29
ENDBRANCH  27  28
ENDBRANCH   1  27
TORSDOF 11
ENDMDL
MODEL 3
REMARK VINA RESULT:      -7.4      7.990     11.828
REMARK  11 active torsions:
REMARK  status: ('A' for Active; 'I' for Inactive)
REMARK    1  A    between atoms: O_1  and  C_2 
REMARK    2  A    between atoms: C_2  and  C_3 
REMARK    3  A    between atoms: C_3  and  O_4 
REMARK    4  A    between atoms: O_4  and  C_5 
REMARK    5  A    between atoms: C_5  and  N_6 
REMARK    6  A    between atoms: C_12  and  O_29 
REMARK    7  A    between atoms: C_13  and  C_14 
REMARK    8  A    between atoms: C_14  and  C_15 
REMARK    9  A    between atoms: C_20  and  O_21 
REMARK   10  A    between atoms: O_21  and  C_22 
REMARK   11  A    between atoms: C_22  and  C_23 
ROOT
HETATM    1  N   UNK N   1      23.556  19.410   3.648  0.00  0.00    -0.257 N 
HETATM    2  C   UNK N   1      22.557  20.178   3.091  0.00  0.00     0.333 A 
HETATM    3  O   UNK N   1      22.794  21.307   2.691  0.00  0.00    -0.246 OA
HETATM    4  N   UNK N   1      21.296  19.677   2.969  0.00  0.00    -0.275 N 
HETATM    5  C   UNK N   1      20.986  18.427   3.420  0.00  0.00     0.260 A 
HETATM    6  O   UNK N   1      19.858  18.008   3.249  0.00  0.00    -0.267 OA
HETATM    7  C   UNK N   1      23.277  18.167   4.135  0.00  0.00     0.160 A 
HETATM    8  C   UNK N   1      21.980  17.649   4.059  0.00  0.00     0.065 A 
HETATM    9  H   UNK N   1      20.596  20.228   2.548  0.00  0.00     0.173 HD
ENDROOT
BRANCH   8  10
HETATM   10  C   UNK N   1      21.754  16.287   4.677  0.00  0.00     0.087 C 
BRANCH  10  11
HETATM   11  C   UNK N   1      21.139  16.202   6.032  0.00  0.00    -0.051 A 
HETATM   12  C   UNK N   1      20.858  17.342   6.803  0.00  0.00     0.007 A 
HETATM   13  C   UNK N   1      20.277  17.211   8.065  0.00  0.00     0.003 A 
HETATM   14  C   UNK N   1      20.059  15.943   8.600  0.00  0.00     0.037 A 
HETATM   15  C   UNK N   1      20.436  14.813   7.876  0.00  0.00     0.069 A 
HETATM   16  C   UNK N   1      20.956  14.943   6.584  0.00  0.00     0.044 A 
BRANCH  15  17
HETATM   17  O   UNK N   1      20.425  13.620   8.481  0.00  0.00    -0.347 OA
BRANCH  17  18
HETATM   18  C   UNK N   1      21.434  12.732   8.195  0.00  0.00     0.214 C 
BRANCH  18  19
HETATM   19  C   UNK N   1      22.283  12.510   9.384  0.00  0.00    -0.034 A 
HETATM   20  C   UNK N   1      21.721  12.246  10.641  0.00  0.00     0.009 A 
HETATM   21  C   UNK N   1      22.551  12.002  11.736  0.00  0.00     0.001 A 
HETATM   22  C   UNK N   1      23.940  12.033  11.576  0.00  0.00     0.000 A 
HETATM   23  C   UNK N   1      24.497  12.315  10.325  0.00  0.00     0.001 A 
HETATM   24  C   UNK N   1      23.667  12.551   9.230  0.00  0.00     0.009 A 
ENDBRANCH  18  19
ENDBRANCH  17  18
ENDBRANCH  15  17
ENDBRANCH  10  11
ENDBRANCH   8  10
BRANCH   7  25
HETATM   25  O   UNK N   1      24.260  17.429   4.694  0.00  0.00    -0.345 OA
HETATM   26  H   UNK N   1      24.966  17.059   4.201  0.00  0.00     0.219 HD
ENDBRANCH   7  25
BRANCH   1  27
HETATM   27  C   UNK N   1      24.922  19.910   3.722  0.00  0.00     0.305 C 
BRANCH  27  28
HETATM   28  O   UNK N   1      25.294  20.039   5.064  0.00  0.00    -0.369 OA
BRANCH  28  29
HETATM   29  C   UNK N   1      26.607  20.504   5.031  0.00  0.00     0.196 C 
BRANCH  29  30
HETATM   30  C   UNK N   1      26.916  21.281   6.296  0.00  0.00     0.190 C 
BRANCH  30  31
HETATM   31  O   UNK N   1      26.276  20.675   7.374  0.00  0.00    -0.399 OA
HETATM   32  H   UNK N   1      26.074  21.154   8.194  0.00  0.00     0.209 HD
ENDBRANCH  30  31
ENDBRANCH  29  30
ENDBRANCH  28  29
ENDBRANCH  27  28
ENDBRANCH   1  27
TORSDOF 11
ENDMDL
MODEL 4
REMARK VINA RESULT:      -7.4      5.442     11.039
REMARK  11 active torsions:
REMARK  status: ('A' for Active; 'I' for Inactive)
REMARK    1  A    between atoms: O_1  and  C_2 
REMARK    2  A    between atoms: C_2  and  C_3 
REMARK    3  A    between atoms: C_3  and  O_4 
REMARK    4  A    between atoms: O_4  and  C_5 
REMARK    5  A    between atoms: C_5  and  N_6 
REMARK    6  A    between atoms: C_12  and  O_29 
REMARK    7  A    between atoms: C_13  and  C_14 
REMARK    8  A    between atoms: C_14  and  C_15 
REMARK    9  A    between atoms: C_20  and  O_21 
REMARK   10  A    between atoms: O_21  and  C_22 
REMARK   11  A    between atoms: C_22  and  C_23 
ROOT
HETATM    1  N   UNK N   1      21.999  18.742   4.527  0.00  0.00    -0.257 N 
HETATM    2  C   UNK N   1      21.498  19.714   3.689  0.00  0.00     0.333 A 
HETATM    3  O   UNK N   1      20.298  19.933   3.643  0.00  0.00    -0.246 OA
HETATM    4  N   UNK N   1      22.342  20.451   2.916  0.00  0.00    -0.275 N 
HETATM    5  C   UNK N   1      23.689  20.226   2.926  0.00  0.00     0.260 A 
HETATM    6  O   UNK N   1      24.404  20.940   2.251  0.00  0.00    -0.267 OA
HETATM    7  C   UNK N   1      23.336  18.470   4.544  0.00  0.00     0.160 A 
HETATM    8  C   UNK N   1      24.216  19.186   3.726  0.00  0.00     0.065 A 
HETATM    9  H   UNK N   1      21.974  21.160   2.338  0.00  0.00     0.173 HD
ENDROOT
BRANCH   8  10
HETATM   10  C   UNK N   1      25.671  18.775   3.768  0.00  0.00     0.087 C 
BRANCH  10  11
HETATM   11  C   UNK N   1      26.453  19.010   5.015  0.00  0.00    -0.051 A 
HETATM   12  C   UNK N   1      26.527  20.271   5.628  0.00  0.00     0.007 A 
HETATM   13  C   UNK N   1      27.269  20.442   6.798  0.00  0.00     0.003 A 
HETATM   14  C   UNK N   1      28.012  19.379   7.309  0.00  0.00     0.037 A 
HETATM   15  C   UNK N   1      28.021  18.157   6.638  0.00  0.00     0.069 A 
HETATM   16  C   UNK N   1      27.224  17.968   5.504  0.00  0.00     0.044 A 
BRANCH  15  17
HETATM   17  O   UNK N   1      28.900  17.219   7.009  0.00  0.00    -0.347 OA
BRANCH  17  18
HETATM   18  C   UNK N   1      29.762  17.503   8.041  0.00  0.00     0.214 C 
BRANCH  18  19
HETATM   19  C   UNK N   1      31.157  17.541   7.555  0.00  0.00    -0.034 A 
HETATM   20  C   UNK N   1      32.208  17.955   8.387  0.00  0.00     0.009 A 
HETATM   21  C   UNK N   1      33.519  17.942   7.909  0.00  0.00     0.001 A 
HETATM   22  C   UNK N   1      33.778  17.525   6.599  0.00  0.00     0.000 A 
HETATM   23  C   UNK N   1      32.726  17.129   5.767  0.00  0.00     0.001 A 
HETATM   24  C   UNK N   1      31.417  17.136   6.247  0.00  0.00     0.009 A 
ENDBRANCH  18  19
ENDBRANCH  17  18
ENDBRANCH  15  17
ENDBRANCH  10  11
ENDBRANCH   8  10
BRANCH   7  25
HETATM   25  O   UNK N   1      23.814  17.503   5.356  0.00  0.00    -0.345 OA
HETATM   26  H   UNK N   1      24.260  16.742   5.038  0.00  0.00     0.219 HD
ENDBRANCH   7  25
BRANCH   1  27
HETATM   27  C   UNK N   1      21.113  17.993   5.409  0.00  0.00     0.305 C 
BRANCH  27  28
HETATM   28  O   UNK N   1      21.314  18.412   6.728  0.00  0.00    -0.369 OA
BRANCH  28  29
HETATM   29  C   UNK N   1      20.620  17.490   7.509  0.00  0.00     0.196 C 
BRANCH  29  30
HETATM   30  C   UNK N   1      20.004  16.421   6.628  0.00  0.00     0.190 C 
BRANCH  30  31
HETATM   31  O   UNK N   1      18.870  15.908   7.254  0.00  0.00    -0.399 OA
HETATM   32  H   UNK N   1      18.236  16.475   7.723  0.00  0.00     0.209 HD
ENDBRANCH  30  31
ENDBRANCH  29  30
ENDBRANCH  28  29
ENDBRANCH  27  28
ENDBRANCH   1  27
TORSDOF 11
ENDMDL
MODEL 5
REMARK VINA RESULT:      -7.3      5.621     11.382
REMARK  11 active torsions:
REMARK  status: ('A' for Active; 'I' for Inactive)
REMARK    1  A    between atoms: O_1  and  C_2 
REMARK    2  A    between atoms: C_2  and  C_3 
REMARK    3  A    between atoms: C_3  and  O_4 
REMARK    4  A    between atoms: O_4  and  C_5 
REMARK    5  A    between atoms: C_5  and  N_6 
REMARK    6  A    between atoms: C_12  and  O_29 
REMARK    7  A    between atoms: C_13  and  C_14 
REMARK    8  A    between atoms: C_14  and  C_15 
REMARK    9  A    between atoms: C_20  and  O_21 
REMARK   10  A    between atoms: O_21  and  C_22 
REMARK   11  A    between atoms: C_22  and  C_23 
ROOT
HETATM    1  N   UNK N   1      22.986  19.305   3.847  0.00  0.00    -0.257 N 
HETATM    2  C   UNK N   1      23.234  20.303   2.928  0.00  0.00     0.333 A 
HETATM    3  O   UNK N   1      22.314  20.830   2.324  0.00  0.00    -0.246 OA
HETATM    4  N   UNK N   1      24.510  20.718   2.697  0.00  0.00    -0.275 N 
HETATM    5  C   UNK N   1      25.568  20.141   3.339  0.00  0.00     0.260 A 
HETATM    6  O   UNK N   1      26.684  20.577   3.131  0.00  0.00    -0.267 OA
HETATM    7  C   UNK N   1      24.020  18.687   4.487  0.00  0.00     0.160 A 
HETATM    8  C   UNK N   1      25.342  19.069   4.233  0.00  0.00     0.065 A 
HETATM    9  H   UNK N   1      24.673  21.447   2.055  0.00  0.00     0.173 HD
ENDROOT
BRANCH   8  10
HETATM   10  C   UNK N   1      26.424  18.287   4.944  0.00  0.00     0.087 C 
BRANCH  10  11
HETATM   11  C   UNK N   1      27.327  17.411   4.145  0.00  0.00    -0.051 A 
HETATM   12  C   UNK N   1      26.841  16.373   3.335  0.00  0.00     0.007 A 
HETATM   13  C   UNK N   1      27.726  15.581   2.600  0.00  0.00     0.003 A 
HETATM   14  C   UNK N   1      29.101  15.764   2.743  0.00  0.00     0.037 A 
HETATM   15  C   UNK N   1      29.582  16.726   3.630  0.00  0.00     0.069 A 
HETATM   16  C   UNK N   1      28.695  17.563   4.313  0.00  0.00     0.044 A 
BRANCH  15  17
HETATM   17  O   UNK N   1      30.888  16.745   3.922  0.00  0.00    -0.347 OA
BRANCH  17  18
HETATM   18  C   UNK N   1      31.356  15.878   4.880  0.00  0.00     0.214 C 
BRANCH  18  19
HETATM   19  C   UNK N   1      31.962  16.624   6.002  0.00  0.00    -0.034 A 
HETATM   20  C   UNK N   1      33.295  17.057   5.955  0.00  0.00     0.009 A 
HETATM   21  C   UNK N   1      33.824  17.794   7.016  0.00  0.00     0.001 A 
HETATM   22  C   UNK N   1      33.026  18.088   8.125  0.00  0.00     0.000 A 
HETATM   23  C   UNK N   1      31.702  17.639   8.177  0.00  0.00     0.001 A 
HETATM   24  C   UNK N   1      31.172  16.910   7.114  0.00  0.00     0.009 A 
ENDBRANCH  18  19
ENDBRANCH  17  18
ENDBRANCH  15  17
ENDBRANCH  10  11
ENDBRANCH   8  10
BRANCH   7  25
HETATM   25  O   UNK N   1      23.767  17.700   5.372  0.00  0.00    -0.345 OA
HETATM   26  H   UNK N   1      24.268  16.909   5.413  0.00  0.00     0.219 HD
ENDBRANCH   7  25
BRANCH   1  27
HETATM   27  C   UNK N   1      21.621  18.900   4.152  0.00  0.00     0.305 C 
BRANCH  27  28
HETATM   28  O   UNK N   1      21.363  17.662   3.554  0.00  0.00    -0.369 OA
BRANCH  28  29
HETATM   29  C   UNK N   1      19.978  17.613   3.408  0.00  0.00     0.196 C 
BRANCH  29  30
HETATM   30  C   UNK N   1      19.484  18.864   2.709  0.00  0.00     0.190 C 
BRANCH  30  31
HETATM   31  O   UNK N   1      18.150  18.690   2.347  0.00  0.00    -0.399 OA
HETATM   32  H   UNK N   1      17.435  18.653   3.002  0.00  0.00     0.209 HD
ENDBRANCH  30  31
ENDBRANCH  29  30
ENDBRANCH  28  29
ENDBRANCH  27  28
ENDBRANCH   1  27
TORSDOF 11
ENDMDL
MODEL 6
REMARK VINA RESULT:      -7.1      2.960     10.824
REMARK  11 active torsions:
REMARK  status: ('A' for Active; 'I' for Inactive)
REMARK    1  A    between atoms: O_1  and  C_2 
REMARK    2  A    between atoms: C_2  and  C_3 
REMARK    3  A    between atoms: C_3  and  O_4 
REMARK    4  A    between atoms: O_4  and  C_5 
REMARK    5  A    between atoms: C_5  and  N_6 
REMARK    6  A    between atoms: C_12  and  O_29 
REMARK    7  A    between atoms: C_13  and  C_14 
REMARK    8  A    between atoms: C_14  and  C_15 
REMARK    9  A    between atoms: C_20  and  O_21 
REMARK   10  A    between atoms: O_21  and  C_22 
REMARK   11  A    between atoms: C_22  and  C_23 
ROOT
HETATM    1  N   UNK N   1      33.318  16.188   7.492  0.00  0.00    -0.257 N 
HETATM    2  C   UNK N   1      34.130  17.298   7.394  0.00  0.00     0.333 A 
HETATM    3  O   UNK N   1      34.182  17.937   6.355  0.00  0.00    -0.246 OA
HETATM    4  N   UNK N   1      34.872  17.698   8.463  0.00  0.00    -0.275 N 
HETATM    5  C   UNK N   1      34.855  17.001   9.637  0.00  0.00     0.260 A 
HETATM    6  O   UNK N   1      35.500  17.423  10.576  0.00  0.00    -0.267 OA
HETATM    7  C   UNK N   1      33.296  15.450   8.639  0.00  0.00     0.160 A 
HETATM    8  C   UNK N   1      34.083  15.819   9.735  0.00  0.00     0.065 A 
HETATM    9  H   UNK N   1      35.431  18.506   8.389  0.00  0.00     0.173 HD
ENDROOT
BRANCH   8  10
HETATM   10  C   UNK N   1      34.039  14.909  10.942  0.00  0.00     0.087 C 
BRANCH  10  11
HETATM   11  C   UNK N   1      35.251  14.115  11.294  0.00  0.00    -0.051 A 
HETATM   12  C   UNK N   1      36.122  13.604  10.319  0.00  0.00     0.007 A 
HETATM   13  C   UNK N   1      37.248  12.870  10.697  0.00  0.00     0.003 A 
HETATM   14  C   UNK N   1      37.458  12.568  12.042  0.00  0.00     0.037 A 
HETATM   15  C   UNK N   1      36.534  12.988  12.997  0.00  0.00     0.069 A 
HETATM   16  C   UNK N   1      35.443  13.779  12.624  0.00  0.00     0.044 A 
BRANCH  15  17
HETATM   17  O   UNK N   1      36.627  12.511  14.244  0.00  0.00    -0.347 OA
BRANCH  17  18
HETATM   18  C   UNK N   1      35.544  11.852  14.774  0.00  0.00     0.214 C 
BRANCH  18  19
HETATM   19  C   UNK N   1      35.425  12.129  16.221  0.00  0.00    -0.034 A 
HETATM   20  C   UNK N   1      35.456  11.094  17.166  0.00  0.00     0.009 A 
HETATM   21  C   UNK N   1      35.381  11.394  18.527  0.00  0.00     0.001 A 
HETATM   22  C   UNK N   1      35.265  12.724  18.941  0.00  0.00     0.000 A 
HETATM   23  C   UNK N   1      35.216  13.753  17.995  0.00  0.00     0.001 A 
HETATM   24  C   UNK N   1      35.298  13.453  16.636  0.00  0.00     0.009 A 
ENDBRANCH  18  19
ENDBRANCH  17  18
ENDBRANCH  15  17
ENDBRANCH  10  11
ENDBRANCH   8  10
BRANCH   7  25
HETATM   25  O   UNK N   1      32.511  14.356   8.718  0.00  0.00    -0.345 OA
HETATM   26  H   UNK N   1      32.850  13.488   8.820  0.00  0.00     0.219 HD
ENDBRANCH   7  25
BRANCH   1  27
HETATM   27  C   UNK N   1      32.469  15.789   6.377  0.00  0.00     0.305 C 
BRANCH  27  28
HETATM   28  O   UNK N   1      31.128  15.932   6.745  0.00  0.00    -0.369 OA
BRANCH  28  29
HETATM   29  C   UNK N   1      30.642  16.965   5.946  0.00  0.00     0.196 C 
BRANCH  29  30
HETATM   30  C   UNK N   1      29.265  17.387   6.419  0.00  0.00     0.190 C 
BRANCH  30  31
HETATM   31  O   UNK N   1      29.348  17.828   7.738  0.00  0.00    -0.399 OA
HETATM   32  H   UNK N   1      29.178  17.242   8.493  0.00  0.00     0.209 HD
ENDBRANCH  30  31
ENDBRANCH  29  30
ENDBRANCH  28  29
ENDBRANCH  27  28
ENDBRANCH   1  27
TORSDOF 11
ENDMDL
MODEL 7
REMARK VINA RESULT:      -7.1      1.397      2.142
REMARK  11 active torsions:
REMARK  status: ('A' for Active; 'I' for Inactive)
REMARK    1  A    between atoms: O_1  and  C_2 
REMARK    2  A    between atoms: C_2  and  C_3 
REMARK    3  A    between atoms: C_3  and  O_4 
REMARK    4  A    between atoms: O_4  and  C_5 
REMARK    5  A    between atoms: C_5  and  N_6 
REMARK    6  A    between atoms: C_12  and  O_29 
REMARK    7  A    between atoms: C_13  and  C_14 
REMARK    8  A    between atoms: C_14  and  C_15 
REMARK    9  A    between atoms: C_20  and  O_21 
REMARK   10  A    between atoms: O_21  and  C_22 
REMARK   11  A    between atoms: C_22  and  C_23 
ROOT
HETATM    1  N   UNK N   1      34.587  15.294  10.158  0.00  0.00    -0.257 N 
HETATM    2  C   UNK N   1      35.341  16.448  10.146  0.00  0.00     0.333 A 
HETATM    3  O   UNK N   1      36.400  16.501  10.750  0.00  0.00    -0.246 OA
HETATM    4  N   UNK N   1      34.914  17.535   9.446  0.00  0.00    -0.275 N 
HETATM    5  C   UNK N   1      33.727  17.521   8.773  0.00  0.00     0.260 A 
HETATM    6  O   UNK N   1      33.412  18.502   8.127  0.00  0.00    -0.267 OA
HETATM    7  C   UNK N   1      33.383  15.252   9.520  0.00  0.00     0.160 A 
HETATM    8  C   UNK N   1      32.905  16.371   8.830  0.00  0.00     0.065 A 
HETATM    9  H   UNK N   1      35.473  18.347   9.426  0.00  0.00     0.173 HD
ENDROOT
BRANCH   8  10
HETATM   10  C   UNK N   1      31.534  16.251   8.203  0.00  0.00     0.087 C 
BRANCH  10  11
HETATM   11  C   UNK N   1      31.399  16.396   6.726  0.00  0.00    -0.051 A 
HETATM   12  C   UNK N   1      32.394  15.963   5.835  0.00  0.00     0.007 A 
HETATM   13  C   UNK N   1      32.221  16.116   4.458  0.00  0.00     0.003 A 
HETATM   14  C   UNK N   1      31.097  16.783   3.972  0.00  0.00     0.037 A 
HETATM   15  C   UNK N   1      30.163  17.305   4.864  0.00  0.00     0.069 A 
HETATM   16  C   UNK N   1      30.304  17.092   6.239  0.00  0.00     0.044 A 
BRANCH  15  17
HETATM   17  O   UNK N   1      29.211  18.125   4.403  0.00  0.00    -0.347 OA
BRANCH  17  18
HETATM   18  C   UNK N   1      28.323  18.667   5.301  0.00  0.00     0.214 C 
BRANCH  18  19
HETATM   19  C   UNK N   1      27.095  19.112   4.611  0.00  0.00    -0.034 A 
HETATM   20  C   UNK N   1      27.118  20.171   3.692  0.00  0.00     0.009 A 
HETATM   21  C   UNK N   1      25.947  20.541   3.028  0.00  0.00     0.001 A 
HETATM   22  C   UNK N   1      24.754  19.860   3.290  0.00  0.00     0.000 A 
HETATM   23  C   UNK N   1      24.731  18.816   4.220  0.00  0.00     0.001 A 
HETATM   24  C   UNK N   1      25.902  18.442   4.878  0.00  0.00     0.009 A 
ENDBRANCH  18  19
ENDBRANCH  17  18
ENDBRANCH  15  17
ENDBRANCH  10  11
ENDBRANCH   8  10
BRANCH   7  25
HETATM   25  O   UNK N   1      32.645  14.122   9.552  0.00  0.00    -0.345 OA
HETATM   26  H   UNK N   1      33.023  13.264   9.572  0.00  0.00     0.219 HD
ENDBRANCH   7  25
BRANCH   1  27
HETATM   27  C   UNK N   1      35.065  14.102  10.847  0.00  0.00     0.305 C 
BRANCH  27  28
HETATM   28  O   UNK N   1      34.510  14.058  12.130  0.00  0.00    -0.369 OA
BRANCH  28  29
HETATM   29  C   UNK N   1      35.197  13.036  12.784  0.00  0.00     0.196 C 
BRANCH  29  30
HETATM   30  C   UNK N   1      35.515  13.451  14.207  0.00  0.00     0.190 C 
BRANCH  30  31
HETATM   31  O   UNK N   1      34.464  13.075  15.040  0.00  0.00    -0.399 OA
HETATM   32  H   UNK N   1      33.757  13.689  15.292  0.00  0.00     0.209 HD
ENDBRANCH  30  31
ENDBRANCH  29  30
ENDBRANCH  28  29
ENDBRANCH  27  28
ENDBRANCH   1  27
TORSDOF 11
ENDMDL
MODEL 8
REMARK VINA RESULT:      -7.1      4.801      7.778
REMARK  11 active torsions:
REMARK  status: ('A' for Active; 'I' for Inactive)
REMARK    1  A    between atoms: O_1  and  C_2 
REMARK    2  A    between atoms: C_2  and  C_3 
REMARK    3  A    between atoms: C_3  and  O_4 
REMARK    4  A    between atoms: O_4  and  C_5 
REMARK    5  A    between atoms: C_5  and  N_6 
REMARK    6  A    between atoms: C_12  and  O_29 
REMARK    7  A    between atoms: C_13  and  C_14 
REMARK    8  A    between atoms: C_14  and  C_15 
REMARK    9  A    between atoms: C_20  and  O_21 
REMARK   10  A    between atoms: O_21  and  C_22 
REMARK   11  A    between atoms: C_22  and  C_23 
ROOT
HETATM    1  N   UNK N   1      28.701  18.148   6.621  0.00  0.00    -0.257 N 
HETATM    2  C   UNK N   1      28.328  18.713   7.821  0.00  0.00     0.333 A 
HETATM    3  O   UNK N   1      28.751  18.265   8.874  0.00  0.00    -0.246 OA
HETATM    4  N   UNK N   1      27.494  19.790   7.839  0.00  0.00    -0.275 N 
HETATM    5  C   UNK N   1      26.986  20.310   6.684  0.00  0.00     0.260 A 
HETATM    6  O   UNK N   1      26.281  21.298   6.750  0.00  0.00    -0.267 OA
HETATM    7  C   UNK N   1      28.192  18.623   5.448  0.00  0.00     0.160 A 
HETATM    8  C   UNK N   1      27.300  19.701   5.447  0.00  0.00     0.065 A 
HETATM    9  H   UNK N   1      27.253  20.200   8.702  0.00  0.00     0.173 HD
ENDROOT
BRANCH   8  10
HETATM   10  C   UNK N   1      26.742  20.121   4.105  0.00  0.00     0.087 C 
BRANCH  10  11
HETATM   11  C   UNK N   1      25.299  19.884   3.816  0.00  0.00    -0.051 A 
HETATM   12  C   UNK N   1      24.532  20.773   3.047  0.00  0.00     0.007 A 
HETATM   13  C   UNK N   1      23.184  20.506   2.799  0.00  0.00     0.003 A 
HETATM   14  C   UNK N   1      22.576  19.401   3.392  0.00  0.00     0.037 A 
HETATM   15  C   UNK N   1      23.315  18.579   4.242  0.00  0.00     0.069 A 
HETATM   16  C   UNK N   1      24.681  18.809   4.435  0.00  0.00     0.044 A 
BRANCH  15  17
HETATM   17  O   UNK N   1      22.676  17.658   4.972  0.00  0.00    -0.347 OA
BRANCH  17  18
HETATM   18  C   UNK N   1      21.599  18.055   5.727  0.00  0.00     0.214 C 
BRANCH  18  19
HETATM   19  C   UNK N   1      21.316  17.065   6.788  0.00  0.00    -0.034 A 
HETATM   20  C   UNK N   1      20.342  17.305   7.768  0.00  0.00     0.009 A 
HETATM   21  C   UNK N   1      20.072  16.333   8.732  0.00  0.00     0.001 A 
HETATM   22  C   UNK N   1      20.782  15.128   8.722  0.00  0.00     0.000 A 
HETATM   23  C   UNK N   1      21.765  14.900   7.754  0.00  0.00     0.001 A 
HETATM   24  C   UNK N   1      22.029  15.868   6.787  0.00  0.00     0.009 A 
ENDBRANCH  18  19
ENDBRANCH  17  18
ENDBRANCH  15  17
ENDBRANCH  10  11
ENDBRANCH   8  10
BRANCH   7  25
HETATM   25  O   UNK N   1      28.550  18.051   4.279  0.00  0.00    -0.345 OA
HETATM   26  H   UNK N   1      28.162  17.261   3.956  0.00  0.00     0.219 HD
ENDBRANCH   7  25
BRANCH   1  27
HETATM   27  C   UNK N   1      29.646  17.039   6.584  0.00  0.00     0.305 C 
BRANCH  27  28
HETATM   28  O   UNK N   1      30.872  17.494   6.090  0.00  0.00    -0.369 OA
BRANCH  28  29
HETATM   29  C   UNK N   1      31.428  16.396   5.437  0.00  0.00     0.196 C 
BRANCH  29  30
HETATM   30  C   UNK N   1      31.839  16.780   4.029  0.00  0.00     0.190 C 
BRANCH  30  31
HETATM   31  O   UNK N   1      31.515  18.116   3.806  0.00  0.00    -0.399 OA
HETATM   32  H   UNK N   1      32.193  18.801   3.686  0.00  0.00     0.209 HD
ENDBRANCH  30  31
ENDBRANCH  29  30
ENDBRANCH  28  29
ENDBRANCH  27  28
ENDBRANCH   1  27
TORSDOF 11
ENDMDL
MODEL 9
REMARK VINA RESULT:      -7.0      2.025      3.237
REMARK  11 active torsions:
REMARK  status: ('A' for Active; 'I' for Inactive)
REMARK    1  A    between atoms: O_1  and  C_2 
REMARK    2  A    between atoms: C_2  and  C_3 
REMARK    3  A    between atoms: C_3  and  O_4 
REMARK    4  A    between atoms: O_4  and  C_5 
REMARK    5  A    between atoms: C_5  and  N_6 
REMARK    6  A    between atoms: C_12  and  O_29 
REMARK    7  A    between atoms: C_13  and  C_14 
REMARK    8  A    between atoms: C_14  and  C_15 
REMARK    9  A    between atoms: C_20  and  O_21 
REMARK   10  A    between atoms: O_21  and  C_22 
REMARK   11  A    between atoms: C_22  and  C_23 
ROOT
HETATM    1  N   UNK N   1      34.996  14.594  10.245  0.00  0.00    -0.257 N 
HETATM    2  C   UNK N   1      35.393  13.473   9.548  0.00  0.00     0.333 A 
HETATM    3  O   UNK N   1      35.719  12.458  10.142  0.00  0.00    -0.246 OA
HETATM    4  N   UNK N   1      35.411  13.486   8.186  0.00  0.00    -0.275 N 
HETATM    5  C   UNK N   1      35.071  14.607   7.485  0.00  0.00     0.260 A 
HETATM    6  O   UNK N   1      35.061  14.554   6.271  0.00  0.00    -0.267 OA
HETATM    7  C   UNK N   1      34.675  15.741   9.580  0.00  0.00     0.160 A 
HETATM    8  C   UNK N   1      34.728  15.789   8.183  0.00  0.00     0.065 A 
HETATM    9  H   UNK N   1      35.675  12.672   7.699  0.00  0.00     0.173 HD
ENDROOT
BRANCH   8  10
HETATM   10  C   UNK N   1      34.412  17.119   7.535  0.00  0.00     0.087 C 
BRANCH  10  11
HETATM   11  C   UNK N   1      33.272  17.206   6.580  0.00  0.00    -0.051 A 
HETATM   12  C   UNK N   1      33.452  17.512   5.221  0.00  0.00     0.007 A 
HETATM   13  C   UNK N   1      32.353  17.577   4.363  0.00  0.00     0.003 A 
HETATM   14  C   UNK N   1      31.065  17.429   4.875  0.00  0.00     0.037 A 
HETATM   15  C   UNK N   1      30.883  17.231   6.243  0.00  0.00     0.069 A 
HETATM   16  C   UNK N   1      31.988  17.098   7.090  0.00  0.00     0.044 A 
BRANCH  15  17
HETATM   17  O   UNK N   1      29.648  17.308   6.752  0.00  0.00    -0.347 OA
BRANCH  17  18
HETATM   18  C   UNK N   1      28.580  17.236   5.889  0.00  0.00     0.214 C 
BRANCH  18  19
HETATM   19  C   UNK N   1      27.974  18.571   5.704  0.00  0.00    -0.034 A 
HETATM   20  C   UNK N   1      27.743  19.424   6.792  0.00  0.00     0.009 A 
HETATM   21  C   UNK N   1      27.204  20.694   6.578  0.00  0.00     0.001 A 
HETATM   22  C   UNK N   1      26.888  21.105   5.279  0.00  0.00     0.000 A 
HETATM   23  C   UNK N   1      27.103  20.245   4.198  0.00  0.00     0.001 A 
HETATM   24  C   UNK N   1      27.647  18.979   4.412  0.00  0.00     0.009 A 
ENDBRANCH  18  19
ENDBRANCH  17  18
ENDBRANCH  15  17
ENDBRANCH  10  11
ENDBRANCH   8  10
BRANCH   7  25
HETATM   25  O   UNK N   1      34.304  16.837  10.273  0.00  0.00    -0.345 OA
HETATM   26  H   UNK N   1      34.422  16.922  11.199  0.00  0.00     0.219 HD
ENDBRANCH   7  25
BRANCH   1  27
HETATM   27  C   UNK N   1      34.908  14.571  11.699  0.00  0.00     0.305 C 
BRANCH  27  28
HETATM   28  O   UNK N   1      36.056  15.157  12.240  0.00  0.00    -0.369 OA
BRANCH  28  29
HETATM   29  C   UNK N   1      36.204  14.570  13.495  0.00  0.00     0.196 C 
BRANCH  29  30
HETATM   30  C   UNK N   1      35.377  13.302  13.578  0.00  0.00     0.190 C 
BRANCH  30  31
HETATM   31  O   UNK N   1      34.762  13.236  14.826  0.00  0.00    -0.399 OA
HETATM   32  H   UNK N   1      33.806  13.105  14.927  0.00  0.00     0.209 HD
ENDBRANCH  30  31
ENDBRANCH  29  30
ENDBRANCH  28  29
ENDBRANCH  27  28
ENDBRANCH   1  27
TORSDOF 11
ENDMDL
