MODEL 1
REMARK VINA RESULT:      -5.9      0.000      0.000
REMARK  3 active torsions:
REMARK  status: ('A' for Active; 'I' for Inactive)
REMARK    1  A    between atoms: C_2  and  C_10 
REMARK    2  A    between atoms: C_7  and  S_11 
REMARK    3  A    between atoms: S_11  and  O_14 
ROOT
HETATM    1  C   UNK N   1      26.498  25.159  -3.849  0.00  0.00     0.009 A 
HETATM    2  C   UNK N   1      27.322  24.137  -3.357  0.00  0.00     0.026 A 
HETATM    3  C   UNK N   1      28.713  24.251  -3.461  0.00  0.00     0.072 A 
HETATM    4  C   UNK N   1      29.277  25.394  -4.035  0.00  0.00     0.026 A 
HETATM    5  C   UNK N   1      28.456  26.413  -4.523  0.00  0.00     0.009 A 
HETATM    6  C   UNK N   1      27.059  26.306  -4.437  0.00  0.00    -0.051 A 
ENDROOT
BRANCH   3   7
HETATM    7  S   UNK N   1      29.793  22.974  -2.800  0.00  0.00     0.129 S 
HETATM    8  O   UNK N   1      31.033  22.496  -3.568  0.00  0.00    -0.598 OA
HETATM    9  O   UNK N   1      30.196  23.045  -1.320  0.00  0.00    -0.598 OA
BRANCH   7  10
HETATM   10  O   UNK N   1      30.714  24.427  -2.828  0.00  0.00    -0.292 OA
HETATM   11  H   UNK N   1      31.232  25.156  -2.453  0.00  0.00     0.232 HD
ENDBRANCH   7  10
ENDBRANCH   3   7
BRANCH   6  12
HETATM   12  C   UNK N   1      26.194  27.434  -4.972  0.00  0.00    -0.024 C 
HETATM   13  C   UNK N   1      26.977  28.247  -5.987  0.00  0.00     0.019 C 
HETATM   14  C   UNK N   1      25.780  28.347  -3.831  0.00  0.00     0.019 C 
HETATM   15  C   UNK N   1      24.927  26.935  -5.652  0.00  0.00     0.019 C 
ENDBRANCH   6  12
TORSDOF 3
ENDMDL
MODEL 2
REMARK VINA RESULT:      -5.8      9.897     11.524
REMARK  3 active torsions:
REMARK  status: ('A' for Active; 'I' for Inactive)
REMARK    1  A    between atoms: C_2  and  C_10 
REMARK    2  A    between atoms: C_7  and  S_11 
REMARK    3  A    between atoms: S_11  and  O_14 
ROOT
HETATM    1  C   UNK N   1      25.564  20.289   3.206  0.00  0.00     0.009 A 
HETATM    2  C   UNK N   1      24.277  20.600   2.746  0.00  0.00     0.026 A 
HETATM    3  C   UNK N   1      23.183  19.828   3.157  0.00  0.00     0.072 A 
HETATM    4  C   UNK N   1      23.375  18.765   4.043  0.00  0.00     0.026 A 
HETATM    5  C   UNK N   1      24.658  18.457   4.503  0.00  0.00     0.009 A 
HETATM    6  C   UNK N   1      25.764  19.213   4.088  0.00  0.00    -0.051 A 
ENDROOT
BRANCH   3   7
HETATM    7  S   UNK N   1      21.516  20.233   2.616  0.00  0.00     0.129 S 
HETATM    8  O   UNK N   1      20.509  20.905   3.560  0.00  0.00    -0.598 OA
HETATM    9  O   UNK N   1      21.326  20.883   1.238  0.00  0.00    -0.598 OA
BRANCH   7  10
HETATM   10  O   UNK N   1      22.314  21.730   2.899  0.00  0.00    -0.292 OA
HETATM   11  H   UNK N   1      22.701  22.442   3.433  0.00  0.00     0.232 HD
ENDBRANCH   7  10
ENDBRANCH   3   7
BRANCH   6  12
HETATM   12  C   UNK N   1      27.146  18.857   4.610  0.00  0.00    -0.024 C 
HETATM   13  C   UNK N   1      28.038  20.086   4.588  0.00  0.00     0.019 C 
HETATM   14  C   UNK N   1      27.767  17.788   3.728  0.00  0.00     0.019 C 
HETATM   15  C   UNK N   1      27.120  18.326   6.036  0.00  0.00     0.019 C 
ENDBRANCH   6  12
TORSDOF 3
ENDMDL
MODEL 3
REMARK VINA RESULT:      -5.4     17.418     19.083
REMARK  3 active torsions:
REMARK  status: ('A' for Active; 'I' for Inactive)
REMARK    1  A    between atoms: C_2  and  C_10 
REMARK    2  A    between atoms: C_7  and  S_11 
REMARK    3  A    between atoms: S_11  and  O_14 
ROOT
HETATM    1  C   UNK N   1      21.120  13.500   9.896  0.00  0.00     0.009 A 
HETATM    2  C   UNK N   1      20.195  14.518   9.625  0.00  0.00     0.026 A 
HETATM    3  C   UNK N   1      20.417  15.396   8.557  0.00  0.00     0.072 A 
HETATM    4  C   UNK N   1      21.548  15.240   7.751  0.00  0.00     0.026 A 
HETATM    5  C   UNK N   1      22.468  14.224   8.020  0.00  0.00     0.009 A 
HETATM    6  C   UNK N   1      22.265  13.346   9.096  0.00  0.00    -0.051 A 
ENDROOT
BRANCH   3   7
HETATM    7  S   UNK N   1      19.225  16.683   8.161  0.00  0.00     0.129 S 
HETATM    8  O   UNK N   1      17.890  16.355   7.477  0.00  0.00    -0.598 OA
HETATM    9  O   UNK N   1      18.924  17.758   9.215  0.00  0.00    -0.598 OA
BRANCH   7  10
HETATM   10  O   UNK N   1      18.497  15.697   9.368  0.00  0.00    -0.292 OA
HETATM   11  H   UNK N   1      18.344  15.361  10.265  0.00  0.00     0.232 HD
ENDBRANCH   7  10
ENDBRANCH   3   7
BRANCH   6  12
HETATM   12  C   UNK N   1      23.281  12.248   9.359  0.00  0.00    -0.024 C 
HETATM   13  C   UNK N   1      22.892  11.476  10.608  0.00  0.00     0.019 C 
HETATM   14  C   UNK N   1      24.654  12.860   9.573  0.00  0.00     0.019 C 
HETATM   15  C   UNK N   1      23.389  11.253   8.212  0.00  0.00     0.019 C 
ENDBRANCH   6  12
TORSDOF 3
ENDMDL
MODEL 4
REMARK VINA RESULT:      -5.4     12.364     14.135
REMARK  3 active torsions:
REMARK  status: ('A' for Active; 'I' for Inactive)
REMARK    1  A    between atoms: C_2  and  C_10 
REMARK    2  A    between atoms: C_7  and  S_11 
REMARK    3  A    between atoms: S_11  and  O_14 
ROOT
HETATM    1  C   UNK N   1      31.422  17.157   5.639  0.00  0.00     0.009 A 
HETATM    2  C   UNK N   1      32.658  17.336   6.276  0.00  0.00     0.026 A 
HETATM    3  C   UNK N   1      32.703  17.621   7.646  0.00  0.00     0.072 A 
HETATM    4  C   UNK N   1      31.516  17.703   8.379  0.00  0.00     0.026 A 
HETATM    5  C   UNK N   1      30.285  17.522   7.745  0.00  0.00     0.009 A 
HETATM    6  C   UNK N   1      30.224  17.250   6.369  0.00  0.00    -0.051 A 
ENDROOT
BRANCH   3   7
HETATM    7  S   UNK N   1      34.276  17.812   8.495  0.00  0.00     0.129 S 
HETATM    8  O   UNK N   1      35.338  16.702   8.474  0.00  0.00    -0.598 OA
HETATM    9  O   UNK N   1      35.031  19.142   8.358  0.00  0.00    -0.598 OA
BRANCH   7  10
HETATM   10  O   UNK N   1      34.632  17.761   6.813  0.00  0.00    -0.292 OA
HETATM   11  H   UNK N   1      34.594  18.055   5.889  0.00  0.00     0.232 HD
ENDBRANCH   7  10
ENDBRANCH   3   7
BRANCH   6  12
HETATM   12  C   UNK N   1      28.870  17.053   5.710  0.00  0.00    -0.024 C 
HETATM   13  C   UNK N   1      28.864  15.753   4.925  0.00  0.00     0.019 C 
HETATM   14  C   UNK N   1      28.594  18.200   4.754  0.00  0.00     0.019 C 
HETATM   15  C   UNK N   1      27.727  16.996   6.713  0.00  0.00     0.019 C 
ENDBRANCH   6  12
TORSDOF 3
ENDMDL
MODEL 5
REMARK VINA RESULT:      -5.3     20.209     22.349
REMARK  3 active torsions:
REMARK  status: ('A' for Active; 'I' for Inactive)
REMARK    1  A    between atoms: C_2  and  C_10 
REMARK    2  A    between atoms: C_7  and  S_11 
REMARK    3  A    between atoms: S_11  and  O_14 
ROOT
HETATM    1  C   UNK N   1      36.237  14.222  14.056  0.00  0.00     0.009 A 
HETATM    2  C   UNK N   1      36.201  15.085  12.953  0.00  0.00     0.026 A 
HETATM    3  C   UNK N   1      35.541  14.696  11.781  0.00  0.00     0.072 A 
HETATM    4  C   UNK N   1      34.900  13.455  11.724  0.00  0.00     0.026 A 
HETATM    5  C   UNK N   1      34.934  12.595  12.824  0.00  0.00     0.009 A 
HETATM    6  C   UNK N   1      35.604  12.968  13.999  0.00  0.00    -0.051 A 
ENDROOT
BRANCH   3   7
HETATM    7  S   UNK N   1      35.443  15.803  10.368  0.00  0.00     0.129 S 
HETATM    8  O   UNK N   1      35.585  17.323  10.530  0.00  0.00    -0.598 OA
HETATM    9  O   UNK N   1      36.196  15.427   9.084  0.00  0.00    -0.598 OA
BRANCH   7  10
HETATM   10  O   UNK N   1      37.058  15.898  10.952  0.00  0.00    -0.292 OA
HETATM   11  H   UNK N   1      37.947  15.570  11.160  0.00  0.00     0.232 HD
ENDBRANCH   7  10
ENDBRANCH   3   7
BRANCH   6  12
HETATM   12  C   UNK N   1      35.618  12.013  15.181  0.00  0.00    -0.024 C 
HETATM   13  C   UNK N   1      35.535  12.797  16.478  0.00  0.00     0.019 C 
HETATM   14  C   UNK N   1      36.909  11.213  15.177  0.00  0.00     0.019 C 
HETATM   15  C   UNK N   1      34.459  11.026  15.158  0.00  0.00     0.019 C 
ENDBRANCH   6  12
TORSDOF 3
ENDMDL
MODEL 6
REMARK VINA RESULT:      -5.3     13.679     14.728
REMARK  3 active torsions:
REMARK  status: ('A' for Active; 'I' for Inactive)
REMARK    1  A    between atoms: C_2  and  C_10 
REMARK    2  A    between atoms: C_7  and  S_11 
REMARK    3  A    between atoms: S_11  and  O_14 
ROOT
HETATM    1  C   UNK N   1      30.521  17.051   6.730  0.00  0.00     0.009 A 
HETATM    2  C   UNK N   1      31.923  17.065   6.729  0.00  0.00     0.026 A 
HETATM    3  C   UNK N   1      32.616  17.734   7.745  0.00  0.00     0.072 A 
HETATM    4  C   UNK N   1      31.907  18.366   8.771  0.00  0.00     0.026 A 
HETATM    5  C   UNK N   1      30.511  18.349   8.773  0.00  0.00     0.009 A 
HETATM    6  C   UNK N   1      29.804  17.695   7.753  0.00  0.00    -0.051 A 
ENDROOT
BRANCH   3   7
HETATM    7  S   UNK N   1      34.413  17.730   7.790  0.00  0.00     0.129 S 
HETATM    8  O   UNK N   1      35.201  18.883   8.428  0.00  0.00    -0.598 OA
HETATM    9  O   UNK N   1      35.138  16.435   8.184  0.00  0.00    -0.598 OA
BRANCH   7  10
HETATM   10  O   UNK N   1      33.884  17.597   9.421  0.00  0.00    -0.292 OA
HETATM   11  H   UNK N   1      33.248  17.440  10.138  0.00  0.00     0.232 HD
ENDBRANCH   7  10
ENDBRANCH   3   7
BRANCH   6  12
HETATM   12  C   UNK N   1      28.285  17.690   7.787  0.00  0.00    -0.024 C 
HETATM   13  C   UNK N   1      27.758  19.070   7.436  0.00  0.00     0.019 C 
HETATM   14  C   UNK N   1      27.805  17.325   9.180  0.00  0.00     0.019 C 
HETATM   15  C   UNK N   1      27.675  16.696   6.809  0.00  0.00     0.019 C 
ENDBRANCH   6  12
TORSDOF 3
ENDMDL
MODEL 7
REMARK VINA RESULT:      -5.3     20.287     22.385
REMARK  3 active torsions:
REMARK  status: ('A' for Active; 'I' for Inactive)
REMARK    1  A    between atoms: C_2  and  C_10 
REMARK    2  A    between atoms: C_7  and  S_11 
REMARK    3  A    between atoms: S_11  and  O_14 
ROOT
HETATM    1  C   UNK N   1      34.829  12.501  12.912  0.00  0.00     0.009 A 
HETATM    2  C   UNK N   1      34.958  13.356  11.809  0.00  0.00     0.026 A 
HETATM    3  C   UNK N   1      35.669  14.556  11.934  0.00  0.00     0.072 A 
HETATM    4  C   UNK N   1      36.266  14.887  13.153  0.00  0.00     0.026 A 
HETATM    5  C   UNK N   1      36.139  14.034  14.252  0.00  0.00     0.009 A 
HETATM    6  C   UNK N   1      35.418  12.835  14.144  0.00  0.00    -0.051 A 
ENDROOT
BRANCH   3   7
HETATM    7  S   UNK N   1      35.886  15.648  10.522  0.00  0.00     0.129 S 
HETATM    8  O   UNK N   1      35.332  15.287   9.136  0.00  0.00    -0.598 OA
HETATM    9  O   UNK N   1      35.645  17.153  10.711  0.00  0.00    -0.598 OA
BRANCH   7  10
HETATM   10  O   UNK N   1      34.201  15.622  10.864  0.00  0.00    -0.292 OA
HETATM   11  H   UNK N   1      33.259  15.491  10.673  0.00  0.00     0.232 HD
ENDBRANCH   7  10
ENDBRANCH   3   7
BRANCH   6  12
HETATM   12  C   UNK N   1      35.303  11.926  15.356  0.00  0.00    -0.024 C 
HETATM   13  C   UNK N   1      34.966  12.750  16.587  0.00  0.00     0.019 C 
HETATM   14  C   UNK N   1      36.624  11.216  15.591  0.00  0.00     0.019 C 
HETATM   15  C   UNK N   1      34.225  10.863  15.198  0.00  0.00     0.019 C 
ENDBRANCH   6  12
TORSDOF 3
ENDMDL
MODEL 8
REMARK VINA RESULT:      -5.3     23.799     25.833
REMARK  3 active torsions:
REMARK  status: ('A' for Active; 'I' for Inactive)
REMARK    1  A    between atoms: C_2  and  C_10 
REMARK    2  A    between atoms: C_7  and  S_11 
REMARK    3  A    between atoms: S_11  and  O_14 
ROOT
HETATM    1  C   UNK N   1      35.026  12.523  17.181  0.00  0.00     0.009 A 
HETATM    2  C   UNK N   1      35.108  13.050  15.885  0.00  0.00     0.026 A 
HETATM    3  C   UNK N   1      35.803  12.353  14.889  0.00  0.00     0.072 A 
HETATM    4  C   UNK N   1      36.394  11.122  15.187  0.00  0.00     0.026 A 
HETATM    5  C   UNK N   1      36.311  10.596  16.477  0.00  0.00     0.009 A 
HETATM    6  C   UNK N   1      35.628  11.291  17.488  0.00  0.00    -0.051 A 
ENDROOT
BRANCH   3   7
HETATM    7  S   UNK N   1      35.886  12.986  13.209  0.00  0.00     0.129 S 
HETATM    8  O   UNK N   1      35.819  12.048  11.995  0.00  0.00    -0.598 OA
HETATM    9  O   UNK N   1      35.059  14.229  12.848  0.00  0.00    -0.598 OA
BRANCH   7  10
HETATM   10  O   UNK N   1      34.305  12.340  13.410  0.00  0.00    -0.292 OA
HETATM   11  H   UNK N   1      33.621  11.651  13.408  0.00  0.00     0.232 HD
ENDBRANCH   7  10
ENDBRANCH   3   7
BRANCH   6  12
HETATM   12  C   UNK N   1      35.550  10.689  18.881  0.00  0.00    -0.024 C 
HETATM   13  C   UNK N   1      34.406   9.693  18.948  0.00  0.00     0.019 C 
HETATM   14  C   UNK N   1      35.300  11.787  19.899  0.00  0.00     0.019 C 
HETATM   15  C   UNK N   1      36.825   9.962  19.283  0.00  0.00     0.019 C 
ENDBRANCH   6  12
TORSDOF 3
ENDMDL
MODEL 9
REMARK VINA RESULT:      -5.1     12.511     13.935
REMARK  3 active torsions:
REMARK  status: ('A' for Active; 'I' for Inactive)
REMARK    1  A    between atoms: C_2  and  C_10 
REMARK    2  A    between atoms: C_7  and  S_11 
REMARK    3  A    between atoms: S_11  and  O_14 
ROOT
HETATM    1  C   UNK N   1      30.680  16.930   6.893  0.00  0.00     0.009 A 
HETATM    2  C   UNK N   1      31.831  17.142   7.664  0.00  0.00     0.026 A 
HETATM    3  C   UNK N   1      33.050  17.428   7.037  0.00  0.00     0.072 A 
HETATM    4  C   UNK N   1      33.109  17.524   5.643  0.00  0.00     0.026 A 
HETATM    5  C   UNK N   1      31.962  17.314   4.875  0.00  0.00     0.009 A 
HETATM    6  C   UNK N   1      30.737  17.013   5.490  0.00  0.00    -0.051 A 
ENDROOT
BRANCH   3   7
HETATM    7  S   UNK N   1      34.530  17.748   8.004  0.00  0.00     0.129 S 
HETATM    8  O   UNK N   1      34.940  19.175   8.394  0.00  0.00    -0.598 OA
HETATM    9  O   UNK N   1      34.818  16.862   9.225  0.00  0.00    -0.598 OA
BRANCH   7  10
HETATM   10  O   UNK N   1      33.195  18.190   8.995  0.00  0.00    -0.292 OA
HETATM   11  H   UNK N   1      32.559  18.795   9.408  0.00  0.00     0.232 HD
ENDBRANCH   7  10
ENDBRANCH   3   7
BRANCH   6  12
HETATM   12  C   UNK N   1      29.506  16.796   4.627  0.00  0.00    -0.024 C 
HETATM   13  C   UNK N   1      28.688  15.641   5.178  0.00  0.00     0.019 C 
HETATM   14  C   UNK N   1      29.928  16.460   3.208  0.00  0.00     0.019 C 
HETATM   15  C   UNK N   1      28.602  18.019   4.567  0.00  0.00     0.019 C 
ENDBRANCH   6  12
TORSDOF 3
ENDMDL
