REMARK  3 active torsions:
REMARK  status: ('A' for Active; 'I' for Inactive)
REMARK    1  A    between atoms: C_2  and  C_10 
REMARK    2  A    between atoms: C_7  and  S_11 
REMARK    3  A    between atoms: S_11  and  O_14 
ROOT
HETATM    1  C   UNK N   1       1.063   0.262  -0.558  0.00  0.00     0.009 A 
HETATM    2  C   UNK N   1       1.053  -1.138  -0.625  0.00  0.00     0.026 A 
HETATM    3  C   UNK N   1      -0.085  -1.849  -0.225  0.00  0.00     0.072 A 
HETATM    4  C   UNK N   1      -1.216  -1.158   0.219  0.00  0.00     0.026 A 
HETATM    5  C   UNK N   1      -1.207   0.237   0.284  0.00  0.00     0.009 A 
HETATM    6  C   UNK N   1      -0.068   0.961  -0.101  0.00  0.00    -0.051 A 
ENDROOT
BRANCH   3   7
HETATM    7  S   UNK N   1      -0.139  -3.642  -0.343  0.00  0.00     0.129 S 
HETATM    8  O   UNK N   1       1.145  -4.484  -0.345  0.00  0.00    -0.598 OA
HETATM    9  O   UNK N   1      -1.162  -4.406   0.510  0.00  0.00    -0.598 OA
BRANCH   7  10
HETATM   10  O   UNK N   1       0.470  -3.274   1.223  0.00  0.00    -0.292 OA
HETATM   11  H   UNK N   1       0.822  -3.468   2.106  0.00  0.00     0.232 HD
ENDBRANCH   7  10
ENDBRANCH   3   7
BRANCH   6  12
HETATM   12  C   UNK N   1      -0.091   2.478  -0.024  0.00  0.00    -0.024 C 
HETATM   13  C   UNK N   1      -0.353   2.917   1.406  0.00  0.00     0.019 C 
HETATM   14  C   UNK N   1      -1.199   3.019  -0.910  0.00  0.00     0.019 C 
HETATM   15  C   UNK N   1       1.217   3.113  -0.474  0.00  0.00     0.019 C 
ENDBRANCH   6  12
TORSDOF 3
