MODEL 1
REMARK VINA RESULT:      -7.8      0.000      0.000
REMARK  5 active torsions:
REMARK  status: ('A' for Active; 'I' for Inactive)
REMARK    1  A    between atoms: O_1  and  C_2 
REMARK    2  A    between atoms: C_2  and  C_4 
REMARK    3  A    between atoms: C_4  and  C_5 
REMARK    4  A    between atoms: C_5  and  N_6 
REMARK       I    between atoms: N_6  and  C_7 
REMARK    5  A    between atoms: C_7  and  C_9 
ROOT
HETATM    1  C   UNK N   1      31.949  16.723   7.212  0.00  0.00     0.188 C 
HETATM    2  C   UNK N   1      32.005  15.262   7.390  0.00  0.00     0.089 C 
HETATM    3  N   UNK N   1      32.073  14.114   7.519  0.00  0.00    -0.195 NA
HETATM    4  C   UNK N   1      30.628  17.262   7.771  0.00  0.00     0.005 A 
HETATM    5  C   UNK N   1      30.463  17.398   9.167  0.00  0.00     0.012 A 
HETATM    6  C   UNK N   1      29.293  17.908   9.721  0.00  0.00     0.001 A 
HETATM    7  C   UNK N   1      28.237  18.267   8.894  0.00  0.00     0.002 A 
HETATM    8  C   UNK N   1      28.358  18.115   7.515  0.00  0.00     0.030 A 
HETATM    9  C   UNK N   1      29.547  17.624   6.937  0.00  0.00     0.043 A 
HETATM   10  N   UNK N   1      29.640  17.497   5.526  0.00  0.00    -0.350 N 
HETATM   11  C   UNK N   1      30.886  17.197   4.901  0.00  0.00     0.043 A 
HETATM   12  C   UNK N   1      32.041  16.891   5.675  0.00  0.00     0.005 A 
HETATM   13  C   UNK N   1      33.232  16.566   4.998  0.00  0.00     0.012 A 
HETATM   14  C   UNK N   1      33.290  16.567   3.601  0.00  0.00     0.001 A 
HETATM   15  C   UNK N   1      32.153  16.859   2.852  0.00  0.00     0.002 A 
HETATM   16  C   UNK N   1      30.962  17.172   3.497  0.00  0.00     0.030 A 
HETATM   17  C   UNK N   1      28.460  17.715   4.710  0.00  0.00     0.156 C 
ENDROOT
BRANCH   1  18
HETATM   18  C   UNK N   1      33.110  17.249   8.080  0.00  0.00     0.250 C 
HETATM   19  N   UNK N   1      33.858  16.483   8.913  0.00  0.00    -0.358 N 
HETATM   20  H   UNK N   1      33.664  15.521   8.999  0.00  0.00     0.162 HD
HETATM   21  O   UNK N   1      33.347  18.448   8.020  0.00  0.00    -0.271 OA
BRANCH  19  22
HETATM   22  C   UNK N   1      34.948  17.074   9.681  0.00  0.00     0.133 C 
BRANCH  22  23
HETATM   23  C   UNK N   1      35.216  16.318  10.996  0.00  0.00     0.129 C 
BRANCH  23  24
HETATM   24  C   UNK N   1      34.504  14.990  11.160  0.00  0.00     0.140 C 
HETATM   25  O   UNK N   1      35.126  13.947  11.292  0.00  0.00    -0.650 OA
BRANCH  24  26
HETATM   26  O   UNK N   1      33.157  14.958  11.158  0.00  0.00    -0.776 OA
HETATM   27  H   UNK N   1      32.517  14.302  10.964  0.00  0.00     0.167 HD
ENDBRANCH  24  26
ENDBRANCH  23  24
ENDBRANCH  22  23
ENDBRANCH  19  22
ENDBRANCH   1  18
TORSDOF 5
ENDMDL
MODEL 2
REMARK VINA RESULT:      -7.4      1.375      4.188
REMARK  5 active torsions:
REMARK  status: ('A' for Active; 'I' for Inactive)
REMARK    1  A    between atoms: O_1  and  C_2 
REMARK    2  A    between atoms: C_2  and  C_4 
REMARK    3  A    between atoms: C_4  and  C_5 
REMARK    4  A    between atoms: C_5  and  N_6 
REMARK       I    between atoms: N_6  and  C_7 
REMARK    5  A    between atoms: C_7  and  C_9 
ROOT
HETATM    1  C   UNK N   1      32.015  16.689   7.455  0.00  0.00     0.188 C 
HETATM    2  C   UNK N   1      32.810  17.835   7.929  0.00  0.00     0.089 C 
HETATM    3  N   UNK N   1      33.429  18.728   8.326  0.00  0.00    -0.195 NA
HETATM    4  C   UNK N   1      32.101  16.596   5.928  0.00  0.00     0.005 A 
HETATM    5  C   UNK N   1      33.264  16.073   5.323  0.00  0.00     0.012 A 
HETATM    6  C   UNK N   1      33.379  15.943   3.942  0.00  0.00     0.001 A 
HETATM    7  C   UNK N   1      32.341  16.365   3.121  0.00  0.00     0.002 A 
HETATM    8  C   UNK N   1      31.194  16.914   3.687  0.00  0.00     0.030 A 
HETATM    9  C   UNK N   1      31.052  17.028   5.085  0.00  0.00     0.043 A 
HETATM   10  N   UNK N   1      29.860  17.579   5.627  0.00  0.00    -0.350 N 
HETATM   11  C   UNK N   1      29.603  17.524   7.028  0.00  0.00     0.043 A 
HETATM   12  C   UNK N   1      30.584  17.034   7.937  0.00  0.00     0.005 A 
HETATM   13  C   UNK N   1      30.283  17.042   9.313  0.00  0.00     0.012 A 
HETATM   14  C   UNK N   1      29.044  17.494   9.777  0.00  0.00     0.001 A 
HETATM   15  C   UNK N   1      28.094  17.979   8.882  0.00  0.00     0.002 A 
HETATM   16  C   UNK N   1      28.372  17.993   7.520  0.00  0.00     0.030 A 
HETATM   17  C   UNK N   1      28.877  18.167   4.737  0.00  0.00     0.156 C 
ENDROOT
BRANCH   1  18
HETATM   18  C   UNK N   1      32.722  15.464   8.070  0.00  0.00     0.250 C 
HETATM   19  N   UNK N   1      33.941  15.496   8.665  0.00  0.00    -0.358 N 
HETATM   20  H   UNK N   1      34.439  16.345   8.714  0.00  0.00     0.162 HD
HETATM   21  O   UNK N   1      32.141  14.390   7.988  0.00  0.00    -0.271 OA
BRANCH  19  22
HETATM   22  C   UNK N   1      34.518  14.283   9.232  0.00  0.00     0.133 C 
BRANCH  22  23
HETATM   23  C   UNK N   1      35.177  14.532  10.602  0.00  0.00     0.129 C 
BRANCH  23  24
HETATM   24  C   UNK N   1      35.818  15.891  10.798  0.00  0.00     0.140 C 
HETATM   25  O   UNK N   1      35.142  16.901  10.925  0.00  0.00    -0.650 OA
BRANCH  24  26
HETATM   26  O   UNK N   1      37.162  15.988  10.831  0.00  0.00    -0.776 OA
HETATM   27  H   UNK N   1      37.764  16.678  11.028  0.00  0.00     0.167 HD
ENDBRANCH  24  26
ENDBRANCH  23  24
ENDBRANCH  22  23
ENDBRANCH  19  22
ENDBRANCH   1  18
TORSDOF 5
ENDMDL
MODEL 3
REMARK VINA RESULT:      -7.2      1.839      4.153
REMARK  5 active torsions:
REMARK  status: ('A' for Active; 'I' for Inactive)
REMARK    1  A    between atoms: O_1  and  C_2 
REMARK    2  A    between atoms: C_2  and  C_4 
REMARK    3  A    between atoms: C_4  and  C_5 
REMARK    4  A    between atoms: C_5  and  N_6 
REMARK       I    between atoms: N_6  and  C_7 
REMARK    5  A    between atoms: C_7  and  C_9 
ROOT
HETATM    1  C   UNK N   1      32.279  16.097   6.910  0.00  0.00     0.188 C 
HETATM    2  C   UNK N   1      33.306  17.133   6.707  0.00  0.00     0.089 C 
HETATM    3  N   UNK N   1      34.111  17.953   6.572  0.00  0.00    -0.195 NA
HETATM    4  C   UNK N   1      32.010  15.369   5.590  0.00  0.00     0.005 A 
HETATM    5  C   UNK N   1      32.929  14.404   5.122  0.00  0.00     0.012 A 
HETATM    6  C   UNK N   1      32.715  13.697   3.943  0.00  0.00     0.001 A 
HETATM    7  C   UNK N   1      31.588  13.959   3.176  0.00  0.00     0.002 A 
HETATM    8  C   UNK N   1      30.678  14.927   3.595  0.00  0.00     0.030 A 
HETATM    9  C   UNK N   1      30.868  15.633   4.801  0.00  0.00     0.043 A 
HETATM   10  N   UNK N   1      29.911  16.602   5.204  0.00  0.00    -0.350 N 
HETATM   11  C   UNK N   1      29.967  17.185   6.504  0.00  0.00     0.043 A 
HETATM   12  C   UNK N   1      31.051  16.911   7.386  0.00  0.00     0.005 A 
HETATM   13  C   UNK N   1      31.067  17.549   8.642  0.00  0.00     0.012 A 
HETATM   14  C   UNK N   1      30.034  18.409   9.027  0.00  0.00     0.001 A 
HETATM   15  C   UNK N   1      28.983  18.677   8.154  0.00  0.00     0.002 A 
HETATM   16  C   UNK N   1      28.950  18.069   6.904  0.00  0.00     0.030 A 
HETATM   17  C   UNK N   1      28.842  16.970   4.295  0.00  0.00     0.156 C 
ENDROOT
BRANCH   1  18
HETATM   18  C   UNK N   1      32.934  15.111   7.899  0.00  0.00     0.250 C 
HETATM   19  N   UNK N   1      34.228  15.172   8.304  0.00  0.00    -0.358 N 
HETATM   20  H   UNK N   1      34.818  15.878   7.951  0.00  0.00     0.162 HD
HETATM   21  O   UNK N   1      32.233  14.202   8.322  0.00  0.00    -0.271 OA
BRANCH  19  22
HETATM   22  C   UNK N   1      34.750  14.200   9.257  0.00  0.00     0.133 C 
BRANCH  22  23
HETATM   23  C   UNK N   1      34.951  14.804  10.660  0.00  0.00     0.129 C 
BRANCH  23  24
HETATM   24  C   UNK N   1      35.721  16.107  10.723  0.00  0.00     0.140 C 
HETATM   25  O   UNK N   1      35.156  17.186  10.619  0.00  0.00    -0.650 OA
BRANCH  24  26
HETATM   26  O   UNK N   1      37.057  16.077  10.893  0.00  0.00    -0.776 OA
HETATM   27  H   UNK N   1      37.755  16.676  10.712  0.00  0.00     0.167 HD
ENDBRANCH  24  26
ENDBRANCH  23  24
ENDBRANCH  22  23
ENDBRANCH  19  22
ENDBRANCH   1  18
TORSDOF 5
ENDMDL
MODEL 4
REMARK VINA RESULT:      -7.0      1.728      4.205
REMARK  5 active torsions:
REMARK  status: ('A' for Active; 'I' for Inactive)
REMARK    1  A    between atoms: O_1  and  C_2 
REMARK    2  A    between atoms: C_2  and  C_4 
REMARK    3  A    between atoms: C_4  and  C_5 
REMARK    4  A    between atoms: C_5  and  N_6 
REMARK       I    between atoms: N_6  and  C_7 
REMARK    5  A    between atoms: C_7  and  C_9 
ROOT
HETATM    1  C   UNK N   1      32.371  16.623   7.974  0.00  0.00     0.188 C 
HETATM    2  C   UNK N   1      33.211  17.819   8.156  0.00  0.00     0.089 C 
HETATM    3  N   UNK N   1      33.861  18.761   8.323  0.00  0.00    -0.195 NA
HETATM    4  C   UNK N   1      32.670  15.983   6.615  0.00  0.00     0.005 A 
HETATM    5  C   UNK N   1      33.843  15.217   6.445  0.00  0.00     0.012 A 
HETATM    6  C   UNK N   1      34.145  14.593   5.238  0.00  0.00     0.001 A 
HETATM    7  C   UNK N   1      33.294  14.745   4.151  0.00  0.00     0.002 A 
HETATM    8  C   UNK N   1      32.144  15.521   4.279  0.00  0.00     0.030 A 
HETATM    9  C   UNK N   1      31.812  16.138   5.503  0.00  0.00     0.043 A 
HETATM   10  N   UNK N   1      30.623  16.909   5.600  0.00  0.00    -0.350 N 
HETATM   11  C   UNK N   1      30.158  17.375   6.864  0.00  0.00     0.043 A 
HETATM   12  C   UNK N   1      30.933  17.194   8.045  0.00  0.00     0.005 A 
HETATM   13  C   UNK N   1      30.435  17.712   9.256  0.00  0.00     0.012 A 
HETATM   14  C   UNK N   1      29.200  18.365   9.307  0.00  0.00     0.001 A 
HETATM   15  C   UNK N   1      28.453  18.545   8.146  0.00  0.00     0.002 A 
HETATM   16  C   UNK N   1      28.928  18.054   6.935  0.00  0.00     0.030 A 
HETATM   17  C   UNK N   1      29.854  17.188   4.402  0.00  0.00     0.156 C 
ENDROOT
BRANCH   1  18
HETATM   18  C   UNK N   1      32.837  15.666   9.090  0.00  0.00     0.250 C 
HETATM   19  N   UNK N   1      33.875  15.908   9.929  0.00  0.00    -0.358 N 
HETATM   20  H   UNK N   1      34.394  16.741   9.837  0.00  0.00     0.162 HD
HETATM   21  O   UNK N   1      32.233  14.607   9.200  0.00  0.00    -0.271 OA
BRANCH  19  22
HETATM   22  C   UNK N   1      34.228  14.944  10.965  0.00  0.00     0.133 C 
BRANCH  22  23
HETATM   23  C   UNK N   1      35.473  14.115  10.595  0.00  0.00     0.129 C 
BRANCH  23  24
HETATM   24  C   UNK N   1      36.745  14.898  10.339  0.00  0.00     0.140 C 
HETATM   25  O   UNK N   1      37.664  14.424   9.688  0.00  0.00    -0.650 OA
BRANCH  24  26
HETATM   26  O   UNK N   1      36.867  16.142  10.843  0.00  0.00    -0.776 OA
HETATM   27  H   UNK N   1      37.016  16.989  10.469  0.00  0.00     0.167 HD
ENDBRANCH  24  26
ENDBRANCH  23  24
ENDBRANCH  22  23
ENDBRANCH  19  22
ENDBRANCH   1  18
TORSDOF 5
ENDMDL
MODEL 5
REMARK VINA RESULT:      -6.9      8.052     11.460
REMARK  5 active torsions:
REMARK  status: ('A' for Active; 'I' for Inactive)
REMARK    1  A    between atoms: O_1  and  C_2 
REMARK    2  A    between atoms: C_2  and  C_4 
REMARK    3  A    between atoms: C_4  and  C_5 
REMARK    4  A    between atoms: C_5  and  N_6 
REMARK       I    between atoms: N_6  and  C_7 
REMARK    5  A    between atoms: C_7  and  C_9 
ROOT
HETATM    1  C   UNK N   1      22.267  17.309   4.939  0.00  0.00     0.188 C 
HETATM    2  C   UNK N   1      21.614  18.072   6.016  0.00  0.00     0.089 C 
HETATM    3  N   UNK N   1      21.087  18.684   6.844  0.00  0.00    -0.195 NA
HETATM    4  C   UNK N   1      23.216  16.269   5.544  0.00  0.00     0.005 A 
HETATM    5  C   UNK N   1      22.690  15.083   6.101  0.00  0.00     0.012 A 
HETATM    6  C   UNK N   1      23.512  14.097   6.637  0.00  0.00     0.001 A 
HETATM    7  C   UNK N   1      24.888  14.283   6.662  0.00  0.00     0.002 A 
HETATM    8  C   UNK N   1      25.434  15.457   6.148  0.00  0.00     0.030 A 
HETATM    9  C   UNK N   1      24.616  16.453   5.578  0.00  0.00     0.043 A 
HETATM   10  N   UNK N   1      25.210  17.631   5.049  0.00  0.00    -0.350 N 
HETATM   11  C   UNK N   1      24.438  18.559   4.291  0.00  0.00     0.043 A 
HETATM   12  C   UNK N   1      23.029  18.403   4.151  0.00  0.00     0.005 A 
HETATM   13  C   UNK N   1      22.318  19.376   3.422  0.00  0.00     0.012 A 
HETATM   14  C   UNK N   1      22.979  20.456   2.828  0.00  0.00     0.001 A 
HETATM   15  C   UNK N   1      24.355  20.606   2.978  0.00  0.00     0.002 A 
HETATM   16  C   UNK N   1      25.077  19.665   3.703  0.00  0.00     0.030 A 
HETATM   17  C   UNK N   1      26.627  17.866   5.249  0.00  0.00     0.156 C 
ENDROOT
BRANCH   1  18
HETATM   18  C   UNK N   1      21.104  16.577   4.241  0.00  0.00     0.250 C 
HETATM   19  N   UNK N   1      21.246  15.732   3.189  0.00  0.00    -0.358 N 
HETATM   20  H   UNK N   1      22.142  15.562   2.816  0.00  0.00     0.162 HD
HETATM   21  O   UNK N   1      19.976  16.801   4.661  0.00  0.00    -0.271 OA
BRANCH  19  22
HETATM   22  C   UNK N   1      20.081  15.075   2.608  0.00  0.00     0.133 C 
BRANCH  22  23
HETATM   23  C   UNK N   1      19.885  15.435   1.122  0.00  0.00     0.129 C 
BRANCH  23  24
HETATM   24  C   UNK N   1      19.851  16.913   0.792  0.00  0.00     0.140 C 
HETATM   25  O   UNK N   1      20.357  17.348  -0.232  0.00  0.00    -0.650 OA
BRANCH  24  26
HETATM   26  O   UNK N   1      19.252  17.766   1.646  0.00  0.00    -0.776 OA
HETATM   27  H   UNK N   1      19.349  17.956   2.558  0.00  0.00     0.167 HD
ENDBRANCH  24  26
ENDBRANCH  23  24
ENDBRANCH  22  23
ENDBRANCH  19  22
ENDBRANCH   1  18
TORSDOF 5
ENDMDL
MODEL 6
REMARK VINA RESULT:      -6.9     12.917     15.788
REMARK  5 active torsions:
REMARK  status: ('A' for Active; 'I' for Inactive)
REMARK    1  A    between atoms: O_1  and  C_2 
REMARK    2  A    between atoms: C_2  and  C_4 
REMARK    3  A    between atoms: C_4  and  C_5 
REMARK    4  A    between atoms: C_5  and  N_6 
REMARK       I    between atoms: N_6  and  C_7 
REMARK    5  A    between atoms: C_7  and  C_9 
ROOT
HETATM    1  C   UNK N   1      28.956  26.515  -4.673  0.00  0.00     0.188 C 
HETATM    2  C   UNK N   1      29.760  26.795  -5.875  0.00  0.00     0.089 C 
HETATM    3  N   UNK N   1      30.412  27.008  -6.806  0.00  0.00    -0.195 NA
HETATM    4  C   UNK N   1      27.470  26.719  -4.985  0.00  0.00     0.005 A 
HETATM    5  C   UNK N   1      26.768  25.736  -5.716  0.00  0.00     0.012 A 
HETATM    6  C   UNK N   1      25.412  25.862  -6.000  0.00  0.00     0.001 A 
HETATM    7  C   UNK N   1      24.722  26.996  -5.589  0.00  0.00     0.002 A 
HETATM    8  C   UNK N   1      25.395  27.997  -4.894  0.00  0.00     0.030 A 
HETATM    9  C   UNK N   1      26.763  27.871  -4.575  0.00  0.00     0.043 A 
HETATM   10  N   UNK N   1      27.413  28.906  -3.851  0.00  0.00    -0.350 N 
HETATM   11  C   UNK N   1      28.732  28.723  -3.342  0.00  0.00     0.043 A 
HETATM   12  C   UNK N   1      29.483  27.553  -3.652  0.00  0.00     0.005 A 
HETATM   13  C   UNK N   1      30.795  27.450  -3.150  0.00  0.00     0.012 A 
HETATM   14  C   UNK N   1      31.340  28.456  -2.346  0.00  0.00     0.001 A 
HETATM   15  C   UNK N   1      30.601  29.599  -2.054  0.00  0.00     0.002 A 
HETATM   16  C   UNK N   1      29.308  29.730  -2.548  0.00  0.00     0.030 A 
HETATM   17  C   UNK N   1      26.707  30.147  -3.592  0.00  0.00     0.156 C 
ENDROOT
BRANCH   1  18
HETATM   18  C   UNK N   1      29.208  25.020  -4.396  0.00  0.00     0.250 C 
HETATM   19  N   UNK N   1      30.026  24.226  -5.132  0.00  0.00    -0.358 N 
HETATM   20  H   UNK N   1      30.499  24.601  -5.911  0.00  0.00     0.162 HD
HETATM   21  O   UNK N   1      28.603  24.520  -3.457  0.00  0.00    -0.271 OA
BRANCH  19  22
HETATM   22  C   UNK N   1      30.210  22.824  -4.778  0.00  0.00     0.133 C 
BRANCH  22  23
HETATM   23  C   UNK N   1      31.587  22.556  -4.139  0.00  0.00     0.129 C 
BRANCH  23  24
HETATM   24  C   UNK N   1      31.587  22.253  -2.654  0.00  0.00     0.140 C 
HETATM   25  O   UNK N   1      30.878  22.876  -1.878  0.00  0.00    -0.650 OA
BRANCH  24  26
HETATM   26  O   UNK N   1      32.388  21.280  -2.179  0.00  0.00    -0.776 OA
HETATM   27  H   UNK N   1      32.666  21.019  -1.323  0.00  0.00     0.167 HD
ENDBRANCH  24  26
ENDBRANCH  23  24
ENDBRANCH  22  23
ENDBRANCH  19  22
ENDBRANCH   1  18
TORSDOF 5
ENDMDL
MODEL 7
REMARK VINA RESULT:      -6.8      8.289     12.482
REMARK  5 active torsions:
REMARK  status: ('A' for Active; 'I' for Inactive)
REMARK    1  A    between atoms: O_1  and  C_2 
REMARK    2  A    between atoms: C_2  and  C_4 
REMARK    3  A    between atoms: C_4  and  C_5 
REMARK    4  A    between atoms: C_5  and  N_6 
REMARK       I    between atoms: N_6  and  C_7 
REMARK    5  A    between atoms: C_7  and  C_9 
ROOT
HETATM    1  C   UNK N   1      35.517  10.478  15.646  0.00  0.00     0.188 C 
HETATM    2  C   UNK N   1      34.177  10.706  15.079  0.00  0.00     0.089 C 
HETATM    3  N   UNK N   1      33.130  10.909  14.632  0.00  0.00    -0.195 NA
HETATM    4  C   UNK N   1      35.708   8.987  15.941  0.00  0.00     0.005 A 
HETATM    5  C   UNK N   1      35.975   8.093  14.882  0.00  0.00     0.012 A 
HETATM    6  C   UNK N   1      36.183   6.735  15.102  0.00  0.00     0.001 A 
HETATM    7  C   UNK N   1      36.097   6.223  16.391  0.00  0.00     0.002 A 
HETATM    8  C   UNK N   1      35.804   7.076  17.452  0.00  0.00     0.030 A 
HETATM    9  C   UNK N   1      35.617   8.458  17.248  0.00  0.00     0.043 A 
HETATM   10  N   UNK N   1      35.335   9.299  18.357  0.00  0.00    -0.350 N 
HETATM   11  C   UNK N   1      35.339  10.718  18.216  0.00  0.00     0.043 A 
HETATM   12  C   UNK N   1      35.498  11.329  16.940  0.00  0.00     0.005 A 
HETATM   13  C   UNK N   1      35.454  12.735  16.862  0.00  0.00     0.012 A 
HETATM   14  C   UNK N   1      35.286  13.515  18.010  0.00  0.00     0.001 A 
HETATM   15  C   UNK N   1      35.123  12.908  19.253  0.00  0.00     0.002 A 
HETATM   16  C   UNK N   1      35.150  11.522  19.354  0.00  0.00     0.030 A 
HETATM   17  C   UNK N   1      35.081   8.706  19.656  0.00  0.00     0.156 C 
ENDROOT
BRANCH   1  18
HETATM   18  C   UNK N   1      36.477  10.889  14.511  0.00  0.00     0.250 C 
HETATM   19  N   UNK N   1      36.088  11.207  13.251  0.00  0.00    -0.358 N 
HETATM   20  H   UNK N   1      35.133  11.173  13.010  0.00  0.00     0.162 HD
HETATM   21  O   UNK N   1      37.672  10.903  14.773  0.00  0.00    -0.271 OA
BRANCH  19  22
HETATM   22  C   UNK N   1      37.074  11.600  12.251  0.00  0.00     0.133 C 
BRANCH  22  23
HETATM   23  C   UNK N   1      37.016  13.106  11.930  0.00  0.00     0.129 C 
BRANCH  23  24
HETATM   24  C   UNK N   1      36.167  13.954  12.855  0.00  0.00     0.140 C 
HETATM   25  O   UNK N   1      34.947  13.903  12.825  0.00  0.00    -0.650 OA
BRANCH  24  26
HETATM   26  O   UNK N   1      36.771  14.786  13.727  0.00  0.00    -0.776 OA
HETATM   27  H   UNK N   1      37.562  15.288  13.714  0.00  0.00     0.167 HD
ENDBRANCH  24  26
ENDBRANCH  23  24
ENDBRANCH  22  23
ENDBRANCH  19  22
ENDBRANCH   1  18
TORSDOF 5
ENDMDL
MODEL 8
REMARK VINA RESULT:      -6.6     13.885     16.420
REMARK  5 active torsions:
REMARK  status: ('A' for Active; 'I' for Inactive)
REMARK    1  A    between atoms: O_1  and  C_2 
REMARK    2  A    between atoms: C_2  and  C_4 
REMARK    3  A    between atoms: C_4  and  C_5 
REMARK    4  A    between atoms: C_5  and  N_6 
REMARK       I    between atoms: N_6  and  C_7 
REMARK    5  A    between atoms: C_7  and  C_9 
ROOT
HETATM    1  C   UNK N   1      28.140  24.690  -5.094  0.00  0.00     0.188 C 
HETATM    2  C   UNK N   1      27.250  24.412  -3.954  0.00  0.00     0.089 C 
HETATM    3  N   UNK N   1      26.572  24.195  -3.042  0.00  0.00    -0.195 NA
HETATM    4  C   UNK N   1      27.316  24.780  -6.383  0.00  0.00     0.005 A 
HETATM    5  C   UNK N   1      26.564  25.944  -6.652  0.00  0.00     0.012 A 
HETATM    6  C   UNK N   1      25.822  26.085  -7.821  0.00  0.00     0.001 A 
HETATM    7  C   UNK N   1      25.784  25.048  -8.744  0.00  0.00     0.002 A 
HETATM    8  C   UNK N   1      26.491  23.875  -8.491  0.00  0.00     0.030 A 
HETATM    9  C   UNK N   1      27.268  23.728  -7.324  0.00  0.00     0.043 A 
HETATM   10  N   UNK N   1      27.989  22.523  -7.108  0.00  0.00    -0.350 N 
HETATM   11  C   UNK N   1      28.935  22.419  -6.047  0.00  0.00     0.043 A 
HETATM   12  C   UNK N   1      29.094  23.469  -5.098  0.00  0.00     0.005 A 
HETATM   13  C   UNK N   1      30.018  23.290  -4.051  0.00  0.00     0.012 A 
HETATM   14  C   UNK N   1      30.782  22.122  -3.956  0.00  0.00     0.001 A 
HETATM   15  C   UNK N   1      30.614  21.097  -4.884  0.00  0.00     0.002 A 
HETATM   16  C   UNK N   1      29.699  21.245  -5.920  0.00  0.00     0.030 A 
HETATM   17  C   UNK N   1      27.787  21.400  -8.004  0.00  0.00     0.156 C 
ENDROOT
BRANCH   1  18
HETATM   18  C   UNK N   1      28.728  26.080  -4.779  0.00  0.00     0.250 C 
HETATM   19  N   UNK N   1      28.292  26.893  -3.784  0.00  0.00    -0.358 N 
HETATM   20  H   UNK N   1      27.542  26.607  -3.212  0.00  0.00     0.162 HD
HETATM   21  O   UNK N   1      29.635  26.474  -5.499  0.00  0.00    -0.271 OA
BRANCH  19  22
HETATM   22  C   UNK N   1      28.927  28.186  -3.556  0.00  0.00     0.133 C 
BRANCH  22  23
HETATM   23  C   UNK N   1      27.987  29.184  -2.852  0.00  0.00     0.129 C 
BRANCH  23  24
HETATM   24  C   UNK N   1      26.523  29.105  -3.231  0.00  0.00     0.140 C 
HETATM   25  O   UNK N   1      25.863  28.099  -3.017  0.00  0.00    -0.650 OA
BRANCH  24  26
HETATM   26  O   UNK N   1      25.935  30.165  -3.820  0.00  0.00    -0.776 OA
HETATM   27  H   UNK N   1      25.067  30.349  -4.122  0.00  0.00     0.167 HD
ENDBRANCH  24  26
ENDBRANCH  23  24
ENDBRANCH  22  23
ENDBRANCH  19  22
ENDBRANCH   1  18
TORSDOF 5
ENDMDL
MODEL 9
REMARK VINA RESULT:      -6.5      7.108     11.609
REMARK  5 active torsions:
REMARK  status: ('A' for Active; 'I' for Inactive)
REMARK    1  A    between atoms: O_1  and  C_2 
REMARK    2  A    between atoms: C_2  and  C_4 
REMARK    3  A    between atoms: C_4  and  C_5 
REMARK    4  A    between atoms: C_5  and  N_6 
REMARK       I    between atoms: N_6  and  C_7 
REMARK    5  A    between atoms: C_7  and  C_9 
ROOT
HETATM    1  C   UNK N   1      35.906  11.175  15.202  0.00  0.00     0.188 C 
HETATM    2  C   UNK N   1      37.317  11.352  14.819  0.00  0.00     0.089 C 
HETATM    3  N   UNK N   1      38.420  11.479  14.495  0.00  0.00    -0.195 NA
HETATM    4  C   UNK N   1      35.655  11.824  16.567  0.00  0.00     0.005 A 
HETATM    5  C   UNK N   1      35.532  13.227  16.663  0.00  0.00     0.012 A 
HETATM    6  C   UNK N   1      35.277  13.861  17.875  0.00  0.00     0.001 A 
HETATM    7  C   UNK N   1      35.170  13.109  19.038  0.00  0.00     0.002 A 
HETATM    8  C   UNK N   1      35.317  11.726  18.980  0.00  0.00     0.030 A 
HETATM    9  C   UNK N   1      35.550  11.067  17.756  0.00  0.00     0.043 A 
HETATM   10  N   UNK N   1      35.679   9.652  17.733  0.00  0.00    -0.350 N 
HETATM   11  C   UNK N   1      35.714   8.943  16.497  0.00  0.00     0.043 A 
HETATM   12  C   UNK N   1      35.749   9.635  15.253  0.00  0.00     0.005 A 
HETATM   13  C   UNK N   1      35.822   8.876  14.069  0.00  0.00     0.012 A 
HETATM   14  C   UNK N   1      35.833   7.478  14.108  0.00  0.00     0.001 A 
HETATM   15  C   UNK N   1      35.806   6.811  15.329  0.00  0.00     0.002 A 
HETATM   16  C   UNK N   1      35.747   7.537  16.513  0.00  0.00     0.030 A 
HETATM   17  C   UNK N   1      35.735   8.922  18.985  0.00  0.00     0.156 C 
ENDROOT
BRANCH   1  18
HETATM   18  C   UNK N   1      35.126  11.957  14.127  0.00  0.00     0.250 C 
HETATM   19  N   UNK N   1      35.698  12.726  13.167  0.00  0.00    -0.358 N 
HETATM   20  H   UNK N   1      36.678  12.820  13.135  0.00  0.00     0.162 HD
HETATM   21  O   UNK N   1      33.905  11.889  14.168  0.00  0.00    -0.271 OA
BRANCH  19  22
HETATM   22  C   UNK N   1      34.871  13.415  12.183  0.00  0.00     0.133 C 
BRANCH  22  23
HETATM   23  C   UNK N   1      35.545  13.488  10.799  0.00  0.00     0.129 C 
BRANCH  23  24
HETATM   24  C   UNK N   1      36.926  14.111  10.760  0.00  0.00     0.140 C 
HETATM   25  O   UNK N   1      37.128  15.179  10.202  0.00  0.00    -0.650 OA
BRANCH  24  26
HETATM   26  O   UNK N   1      37.955  13.471  11.351  0.00  0.00    -0.776 OA
HETATM   27  H   UNK N   1      38.406  13.568  12.166  0.00  0.00     0.167 HD
ENDBRANCH  24  26
ENDBRANCH  23  24
ENDBRANCH  22  23
ENDBRANCH  19  22
ENDBRANCH   1  18
TORSDOF 5
ENDMDL
