MODEL 1
REMARK VINA RESULT:      -7.2      0.000      0.000
REMARK  4 active torsions:
REMARK  status: ('A' for Active; 'I' for Inactive)
REMARK    1  A    between atoms: C_6  and  C_7 
REMARK    2  A    between atoms: C_12  and  N_13 
REMARK       I    between atoms: N_13  and  C_14 
REMARK    3  A    between atoms: C_14  and  C_16 
REMARK    4  A    between atoms: C_19  and  O_21 
ROOT
HETATM    1  C   UNK N   1      35.012  15.106   9.377  0.00  0.00     0.141 C 
HETATM    2  C   UNK N   1      36.013  14.347   8.660  0.00  0.00     0.107 C 
HETATM    3  N   UNK N   1      36.821  13.711   8.131  0.00  0.00    -0.191 NA
HETATM    4  C   UNK N   1      34.329  16.126   8.789  0.00  0.00     0.065 C 
HETATM    5  C   UNK N   1      34.582  16.509   7.372  0.00  0.00     0.077 C 
ENDROOT
BRANCH   1   6
HETATM    6  C   UNK N   1      34.771  14.718  10.774  0.00  0.00     0.269 C 
HETATM    7  N   UNK N   1      35.772  14.145  11.479  0.00  0.00    -0.322 N 
HETATM    8  H   UNK N   1      36.629  14.015  11.012  0.00  0.00     0.169 HD
HETATM    9  O   UNK N   1      33.672  14.917  11.279  0.00  0.00    -0.266 OA
BRANCH   7  10
HETATM   10  C   UNK N   1      35.703  13.722  12.810  0.00  0.00     0.035 A 
HETATM   11  C   UNK N   1      36.397  14.451  13.775  0.00  0.00     0.030 A 
HETATM   12  C   UNK N   1      36.346  14.053  15.103  0.00  0.00     0.014 A 
HETATM   13  C   UNK N   1      35.599  12.923  15.461  0.00  0.00    -0.026 A 
HETATM   14  C   UNK N   1      34.909  12.202  14.485  0.00  0.00     0.014 A 
HETATM   15  C   UNK N   1      34.960  12.598  13.170  0.00  0.00     0.030 A 
BRANCH  13  16
HETATM   16  C   UNK N   1      35.523  12.476  16.845  0.00  0.00    -0.026 A 
HETATM   17  C   UNK N   1      35.221  13.404  17.851  0.00  0.00     0.012 A 
HETATM   18  C   UNK N   1      35.143  13.001  19.177  0.00  0.00     0.001 A 
HETATM   19  C   UNK N   1      35.367  11.664  19.507  0.00  0.00     0.000 A 
HETATM   20  C   UNK N   1      35.669  10.731  18.509  0.00  0.00     0.001 A 
HETATM   21  C   UNK N   1      35.747  11.136  17.178  0.00  0.00     0.012 A 
ENDBRANCH  13  16
ENDBRANCH   7  10
ENDBRANCH   1   6
BRANCH   4  22
HETATM   22  O   UNK N   1      33.395  16.828   9.469  0.00  0.00    -0.364 OA
HETATM   23  H   UNK N   1      32.664  17.197   9.013  0.00  0.00     0.217 HD
ENDBRANCH   4  22
TORSDOF 4
ENDMDL
MODEL 2
REMARK VINA RESULT:      -7.1     14.105     15.927
REMARK  4 active torsions:
REMARK  status: ('A' for Active; 'I' for Inactive)
REMARK    1  A    between atoms: C_6  and  C_7 
REMARK    2  A    between atoms: C_12  and  N_13 
REMARK       I    between atoms: N_13  and  C_14 
REMARK    3  A    between atoms: C_14  and  C_16 
REMARK    4  A    between atoms: C_19  and  O_21 
ROOT
HETATM    1  C   UNK N   1      21.523  19.394   2.966  0.00  0.00     0.141 C 
HETATM    2  C   UNK N   1      22.764  20.133   3.042  0.00  0.00     0.107 C 
HETATM    3  N   UNK N   1      23.772  20.690   3.139  0.00  0.00    -0.191 NA
HETATM    4  C   UNK N   1      20.516  19.767   2.130  0.00  0.00     0.065 C 
HETATM    5  C   UNK N   1      20.646  20.961   1.250  0.00  0.00     0.077 C 
ENDROOT
BRANCH   1   6
HETATM    6  C   UNK N   1      21.406  18.217   3.840  0.00  0.00     0.269 C 
HETATM    7  N   UNK N   1      21.817  18.309   5.124  0.00  0.00    -0.322 N 
HETATM    8  H   UNK N   1      22.180  19.177   5.415  0.00  0.00     0.169 HD
HETATM    9  O   UNK N   1      20.941  17.174   3.396  0.00  0.00    -0.266 OA
BRANCH   7  10
HETATM   10  C   UNK N   1      21.773  17.287   6.078  0.00  0.00     0.035 A 
HETATM   11  C   UNK N   1      20.774  17.327   7.048  0.00  0.00     0.030 A 
HETATM   12  C   UNK N   1      20.707  16.326   8.006  0.00  0.00     0.014 A 
HETATM   13  C   UNK N   1      21.644  15.285   7.988  0.00  0.00    -0.026 A 
HETATM   14  C   UNK N   1      22.641  15.256   7.011  0.00  0.00     0.014 A 
HETATM   15  C   UNK N   1      22.704  16.249   6.063  0.00  0.00     0.030 A 
BRANCH  13  16
HETATM   16  C   UNK N   1      21.605  14.216   8.978  0.00  0.00    -0.026 A 
HETATM   17  C   UNK N   1      22.731  13.399   9.151  0.00  0.00     0.012 A 
HETATM   18  C   UNK N   1      22.716  12.374  10.088  0.00  0.00     0.001 A 
HETATM   19  C   UNK N   1      21.574  12.161  10.860  0.00  0.00     0.000 A 
HETATM   20  C   UNK N   1      20.446  12.973  10.694  0.00  0.00     0.001 A 
HETATM   21  C   UNK N   1      20.462  14.001   9.753  0.00  0.00     0.012 A 
ENDBRANCH  13  16
ENDBRANCH   7  10
ENDBRANCH   1   6
BRANCH   4  22
HETATM   22  O   UNK N   1      19.360  19.068   2.067  0.00  0.00    -0.364 OA
HETATM   23  H   UNK N   1      19.186  18.395   2.696  0.00  0.00     0.217 HD
ENDBRANCH   4  22
TORSDOF 4
ENDMDL
MODEL 3
REMARK VINA RESULT:      -6.9      5.316     10.746
REMARK  4 active torsions:
REMARK  status: ('A' for Active; 'I' for Inactive)
REMARK    1  A    between atoms: C_6  and  C_7 
REMARK    2  A    between atoms: C_12  and  N_13 
REMARK       I    between atoms: N_13  and  C_14 
REMARK    3  A    between atoms: C_14  and  C_16 
REMARK    4  A    between atoms: C_19  and  O_21 
ROOT
HETATM    1  C   UNK N   1      34.148  15.294   9.918  0.00  0.00     0.141 C 
HETATM    2  C   UNK N   1      34.042  13.874   9.659  0.00  0.00     0.107 C 
HETATM    3  N   UNK N   1      33.922  12.751   9.414  0.00  0.00    -0.191 NA
HETATM    4  C   UNK N   1      34.979  15.787  10.877  0.00  0.00     0.065 C 
HETATM    5  C   UNK N   1      35.821  14.884  11.708  0.00  0.00     0.077 C 
ENDROOT
BRANCH   1   6
HETATM    6  C   UNK N   1      33.311  16.176   9.091  0.00  0.00     0.269 C 
HETATM    7  N   UNK N   1      31.972  15.993   9.084  0.00  0.00    -0.322 N 
HETATM    8  H   UNK N   1      31.618  15.264   9.643  0.00  0.00     0.169 HD
HETATM    9  O   UNK N   1      33.835  17.060   8.423  0.00  0.00    -0.266 OA
BRANCH   7  10
HETATM   10  C   UNK N   1      31.043  16.743   8.355  0.00  0.00     0.035 A 
HETATM   11  C   UNK N   1      30.328  17.738   9.018  0.00  0.00     0.030 A 
HETATM   12  C   UNK N   1      29.400  18.498   8.320  0.00  0.00     0.014 A 
HETATM   13  C   UNK N   1      29.192  18.256   6.955  0.00  0.00    -0.026 A 
HETATM   14  C   UNK N   1      29.915  17.255   6.303  0.00  0.00     0.014 A 
HETATM   15  C   UNK N   1      30.833  16.505   6.997  0.00  0.00     0.030 A 
BRANCH  13  16
HETATM   16  C   UNK N   1      28.226  19.033   6.190  0.00  0.00    -0.026 A 
HETATM   17  C   UNK N   1      28.057  18.765   4.824  0.00  0.00     0.012 A 
HETATM   18  C   UNK N   1      27.143  19.492   4.075  0.00  0.00     0.001 A 
HETATM   19  C   UNK N   1      26.390  20.495   4.687  0.00  0.00     0.000 A 
HETATM   20  C   UNK N   1      26.553  20.769   6.049  0.00  0.00     0.001 A 
HETATM   21  C   UNK N   1      27.471  20.038   6.801  0.00  0.00     0.012 A 
ENDBRANCH  13  16
ENDBRANCH   7  10
ENDBRANCH   1   6
BRANCH   4  22
HETATM   22  O   UNK N   1      35.070  17.116  11.110  0.00  0.00    -0.364 OA
HETATM   23  H   UNK N   1      35.911  17.517  11.210  0.00  0.00     0.217 HD
ENDBRANCH   4  22
TORSDOF 4
ENDMDL
MODEL 4
REMARK VINA RESULT:      -6.9      2.180      3.343
REMARK  4 active torsions:
REMARK  status: ('A' for Active; 'I' for Inactive)
REMARK    1  A    between atoms: C_6  and  C_7 
REMARK    2  A    between atoms: C_12  and  N_13 
REMARK       I    between atoms: N_13  and  C_14 
REMARK    3  A    between atoms: C_14  and  C_16 
REMARK    4  A    between atoms: C_19  and  O_21 
ROOT
HETATM    1  C   UNK N   1      36.729  14.260  11.246  0.00  0.00     0.141 C 
HETATM    2  C   UNK N   1      36.282  15.582  10.866  0.00  0.00     0.107 C 
HETATM    3  N   UNK N   1      35.891  16.638  10.604  0.00  0.00    -0.191 NA
HETATM    4  C   UNK N   1      37.683  13.595  10.538  0.00  0.00     0.065 C 
HETATM    5  C   UNK N   1      38.314  14.201   9.333  0.00  0.00     0.077 C 
ENDROOT
BRANCH   1   6
HETATM    6  C   UNK N   1      36.099  13.672  12.437  0.00  0.00     0.269 C 
HETATM    7  N   UNK N   1      36.885  13.175  13.417  0.00  0.00    -0.322 N 
HETATM    8  H   UNK N   1      37.859  13.233  13.282  0.00  0.00     0.169 HD
HETATM    9  O   UNK N   1      34.877  13.639  12.525  0.00  0.00    -0.266 OA
BRANCH   7  10
HETATM   10  C   UNK N   1      36.444  12.586  14.607  0.00  0.00     0.035 A 
HETATM   11  C   UNK N   1      36.703  11.232  14.813  0.00  0.00     0.030 A 
HETATM   12  C   UNK N   1      36.277  10.622  15.983  0.00  0.00     0.014 A 
HETATM   13  C   UNK N   1      35.589  11.372  16.947  0.00  0.00    -0.026 A 
HETATM   14  C   UNK N   1      35.335  12.728  16.728  0.00  0.00     0.014 A 
HETATM   15  C   UNK N   1      35.759  13.329  15.568  0.00  0.00     0.030 A 
BRANCH  13  16
HETATM   16  C   UNK N   1      35.126  10.766  18.187  0.00  0.00    -0.026 A 
HETATM   17  C   UNK N   1      34.450   9.539  18.141  0.00  0.00     0.012 A 
HETATM   18  C   UNK N   1      33.999   8.942  19.311  0.00  0.00     0.001 A 
HETATM   19  C   UNK N   1      34.223   9.570  20.537  0.00  0.00     0.000 A 
HETATM   20  C   UNK N   1      34.898  10.794  20.592  0.00  0.00     0.001 A 
HETATM   21  C   UNK N   1      35.349  11.393  19.417  0.00  0.00     0.012 A 
ENDBRANCH  13  16
ENDBRANCH   7  10
ENDBRANCH   1   6
BRANCH   4  22
HETATM   22  O   UNK N   1      38.093  12.359  10.903  0.00  0.00    -0.364 OA
HETATM   23  H   UNK N   1      37.966  11.634  10.322  0.00  0.00     0.217 HD
ENDBRANCH   4  22
TORSDOF 4
ENDMDL
MODEL 5
REMARK VINA RESULT:      -6.8      3.505      5.856
REMARK  4 active torsions:
REMARK  status: ('A' for Active; 'I' for Inactive)
REMARK    1  A    between atoms: C_6  and  C_7 
REMARK    2  A    between atoms: C_12  and  N_13 
REMARK       I    between atoms: N_13  and  C_14 
REMARK    3  A    between atoms: C_14  and  C_16 
REMARK    4  A    between atoms: C_19  and  O_21 
ROOT
HETATM    1  C   UNK N   1      35.818  13.722  14.901  0.00  0.00     0.141 C 
HETATM    2  C   UNK N   1      36.864  14.598  15.381  0.00  0.00     0.107 C 
HETATM    3  N   UNK N   1      37.690  15.281  15.815  0.00  0.00    -0.191 NA
HETATM    4  C   UNK N   1      35.501  13.642  13.579  0.00  0.00     0.065 C 
HETATM    5  C   UNK N   1      36.221  14.457  12.562  0.00  0.00     0.077 C 
ENDROOT
BRANCH   1   6
HETATM    6  C   UNK N   1      35.115  12.922  15.914  0.00  0.00     0.269 C 
HETATM    7  N   UNK N   1      35.816  12.029  16.648  0.00  0.00    -0.322 N 
HETATM    8  H   UNK N   1      36.780  11.957  16.463  0.00  0.00     0.169 HD
HETATM    9  O   UNK N   1      33.910  13.074  16.080  0.00  0.00    -0.266 OA
BRANCH   7  10
HETATM   10  C   UNK N   1      35.297  11.197  17.645  0.00  0.00     0.035 A 
HETATM   11  C   UNK N   1      35.339  11.639  18.966  0.00  0.00     0.030 A 
HETATM   12  C   UNK N   1      34.832  10.834  19.976  0.00  0.00     0.014 A 
HETATM   13  C   UNK N   1      34.283   9.584  19.657  0.00  0.00    -0.026 A 
HETATM   14  C   UNK N   1      34.247   9.153  18.330  0.00  0.00     0.014 A 
HETATM   15  C   UNK N   1      34.750   9.952  17.332  0.00  0.00     0.030 A 
BRANCH  13  16
HETATM   16  C   UNK N   1      33.741   8.712  20.691  0.00  0.00    -0.026 A 
HETATM   17  C   UNK N   1      32.415   8.887  21.111  0.00  0.00     0.012 A 
HETATM   18  C   UNK N   1      31.877   8.067  22.094  0.00  0.00     0.001 A 
HETATM   19  C   UNK N   1      32.664   7.066  22.665  0.00  0.00     0.000 A 
HETATM   20  C   UNK N   1      33.988   6.885  22.251  0.00  0.00     0.001 A 
HETATM   21  C   UNK N   1      34.527   7.708  21.264  0.00  0.00     0.012 A 
ENDBRANCH  13  16
ENDBRANCH   7  10
ENDBRANCH   1   6
BRANCH   4  22
HETATM   22  O   UNK N   1      34.521  12.819  13.141  0.00  0.00    -0.364 OA
HETATM   23  H   UNK N   1      34.022  12.319  13.756  0.00  0.00     0.217 HD
ENDBRANCH   4  22
TORSDOF 4
ENDMDL
MODEL 6
REMARK VINA RESULT:      -6.6      2.635      9.182
REMARK  4 active torsions:
REMARK  status: ('A' for Active; 'I' for Inactive)
REMARK    1  A    between atoms: C_6  and  C_7 
REMARK    2  A    between atoms: C_12  and  N_13 
REMARK       I    between atoms: N_13  and  C_14 
REMARK    3  A    between atoms: C_14  and  C_16 
REMARK    4  A    between atoms: C_19  and  O_21 
ROOT
HETATM    1  C   UNK N   1      35.284  13.106  13.019  0.00  0.00     0.141 C 
HETATM    2  C   UNK N   1      34.646  11.912  13.529  0.00  0.00     0.107 C 
HETATM    3  N   UNK N   1      34.111  10.953  13.889  0.00  0.00    -0.191 NA
HETATM    4  C   UNK N   1      36.158  13.829  13.772  0.00  0.00     0.065 C 
HETATM    5  C   UNK N   1      36.500  13.421  15.163  0.00  0.00     0.077 C 
ENDROOT
BRANCH   1   6
HETATM    6  C   UNK N   1      34.938  13.499  11.645  0.00  0.00     0.269 C 
HETATM    7  N   UNK N   1      34.279  14.661  11.441  0.00  0.00    -0.322 N 
HETATM    8  H   UNK N   1      34.059  15.196  12.237  0.00  0.00     0.169 HD
HETATM    9  O   UNK N   1      35.251  12.773  10.709  0.00  0.00    -0.266 OA
BRANCH   7  10
HETATM   10  C   UNK N   1      33.880  15.174  10.202  0.00  0.00     0.035 A 
HETATM   11  C   UNK N   1      32.596  14.883   9.746  0.00  0.00     0.030 A 
HETATM   12  C   UNK N   1      32.174  15.378   8.520  0.00  0.00     0.014 A 
HETATM   13  C   UNK N   1      33.044  16.166   7.754  0.00  0.00    -0.026 A 
HETATM   14  C   UNK N   1      34.328  16.450   8.222  0.00  0.00     0.014 A 
HETATM   15  C   UNK N   1      34.743  15.958   9.436  0.00  0.00     0.030 A 
BRANCH  13  16
HETATM   16  C   UNK N   1      32.636  16.703   6.463  0.00  0.00    -0.026 A 
HETATM   17  C   UNK N   1      31.273  16.744   6.136  0.00  0.00     0.012 A 
HETATM   18  C   UNK N   1      30.861  17.252   4.911  0.00  0.00     0.001 A 
HETATM   19  C   UNK N   1      31.811  17.723   4.004  0.00  0.00     0.000 A 
HETATM   20  C   UNK N   1      33.172  17.685   4.322  0.00  0.00     0.001 A 
HETATM   21  C   UNK N   1      33.585  17.175   5.552  0.00  0.00     0.012 A 
ENDBRANCH  13  16
ENDBRANCH   7  10
ENDBRANCH   1   6
BRANCH   4  22
HETATM   22  O   UNK N   1      36.748  14.944  13.285  0.00  0.00    -0.364 OA
HETATM   23  H   UNK N   1      36.224  15.678  13.032  0.00  0.00     0.217 HD
ENDBRANCH   4  22
TORSDOF 4
ENDMDL
MODEL 7
REMARK VINA RESULT:      -6.6      5.155     10.680
REMARK  4 active torsions:
REMARK  status: ('A' for Active; 'I' for Inactive)
REMARK    1  A    between atoms: C_6  and  C_7 
REMARK    2  A    between atoms: C_12  and  N_13 
REMARK       I    between atoms: N_13  and  C_14 
REMARK    3  A    between atoms: C_14  and  C_16 
REMARK    4  A    between atoms: C_19  and  O_21 
ROOT
HETATM    1  C   UNK N   1      34.315  15.339  10.149  0.00  0.00     0.141 C 
HETATM    2  C   UNK N   1      35.120  16.526  10.337  0.00  0.00     0.107 C 
HETATM    3  N   UNK N   1      35.729  17.502  10.454  0.00  0.00    -0.191 NA
HETATM    4  C   UNK N   1      34.632  14.157  10.746  0.00  0.00     0.065 C 
HETATM    5  C   UNK N   1      35.828  14.032  11.625  0.00  0.00     0.077 C 
ENDROOT
BRANCH   1   6
HETATM    6  C   UNK N   1      33.137  15.475   9.280  0.00  0.00     0.269 C 
HETATM    7  N   UNK N   1      32.707  16.711   8.947  0.00  0.00    -0.322 N 
HETATM    8  H   UNK N   1      33.213  17.474   9.310  0.00  0.00     0.169 HD
HETATM    9  O   UNK N   1      32.564  14.471   8.872  0.00  0.00    -0.266 OA
BRANCH   7  10
HETATM   10  C   UNK N   1      31.608  17.009   8.135  0.00  0.00     0.035 A 
HETATM   11  C   UNK N   1      30.422  17.416   8.744  0.00  0.00     0.030 A 
HETATM   12  C   UNK N   1      29.317  17.717   7.962  0.00  0.00     0.014 A 
HETATM   13  C   UNK N   1      29.403  17.609   6.568  0.00  0.00    -0.026 A 
HETATM   14  C   UNK N   1      30.596  17.200   5.970  0.00  0.00     0.014 A 
HETATM   15  C   UNK N   1      31.689  16.902   6.746  0.00  0.00     0.030 A 
BRANCH  13  16
HETATM   16  C   UNK N   1      28.263  17.917   5.715  0.00  0.00    -0.026 A 
HETATM   17  C   UNK N   1      28.339  19.003   4.832  0.00  0.00     0.012 A 
HETATM   18  C   UNK N   1      27.265  19.315   4.010  0.00  0.00     0.001 A 
HETATM   19  C   UNK N   1      26.105  18.541   4.065  0.00  0.00     0.000 A 
HETATM   20  C   UNK N   1      26.021  17.456   4.943  0.00  0.00     0.001 A 
HETATM   21  C   UNK N   1      27.099  17.143   5.768  0.00  0.00     0.012 A 
ENDBRANCH  13  16
ENDBRANCH   7  10
ENDBRANCH   1   6
BRANCH   4  22
HETATM   22  O   UNK N   1      33.873  13.053  10.565  0.00  0.00    -0.364 OA
HETATM   23  H   UNK N   1      34.237  12.204  10.722  0.00  0.00     0.217 HD
ENDBRANCH   4  22
TORSDOF 4
ENDMDL
MODEL 8
REMARK VINA RESULT:      -6.6      1.550      2.460
REMARK  4 active torsions:
REMARK  status: ('A' for Active; 'I' for Inactive)
REMARK    1  A    between atoms: C_6  and  C_7 
REMARK    2  A    between atoms: C_12  and  N_13 
REMARK       I    between atoms: N_13  and  C_14 
REMARK    3  A    between atoms: C_14  and  C_16 
REMARK    4  A    between atoms: C_19  and  O_21 
ROOT
HETATM    1  C   UNK N   1      35.332  13.828  10.588  0.00  0.00     0.141 C 
HETATM    2  C   UNK N   1      36.278  13.468   9.554  0.00  0.00     0.107 C 
HETATM    3  N   UNK N   1      37.061  13.153   8.764  0.00  0.00    -0.191 NA
HETATM    4  C   UNK N   1      34.247  14.607  10.328  0.00  0.00     0.065 C 
HETATM    5  C   UNK N   1      33.981  15.127   8.958  0.00  0.00     0.077 C 
ENDROOT
BRANCH   1   6
HETATM    6  C   UNK N   1      35.605  13.309  11.937  0.00  0.00     0.269 C 
HETATM    7  N   UNK N   1      34.589  12.781  12.655  0.00  0.00    -0.322 N 
HETATM    8  H   UNK N   1      33.700  12.772  12.231  0.00  0.00     0.169 HD
HETATM    9  O   UNK N   1      36.743  13.360  12.389  0.00  0.00    -0.266 OA
BRANCH   7  10
HETATM   10  C   UNK N   1      34.683  12.249  13.945  0.00  0.00     0.035 A 
HETATM   11  C   UNK N   1      34.486  10.879  14.113  0.00  0.00     0.030 A 
HETATM   12  C   UNK N   1      34.573  10.324  15.381  0.00  0.00     0.014 A 
HETATM   13  C   UNK N   1      34.859  11.145  16.480  0.00  0.00    -0.026 A 
HETATM   14  C   UNK N   1      35.055  12.515  16.298  0.00  0.00     0.014 A 
HETATM   15  C   UNK N   1      34.968  13.063  15.041  0.00  0.00     0.030 A 
BRANCH  13  16
HETATM   16  C   UNK N   1      34.959  10.597  17.826  0.00  0.00    -0.026 A 
HETATM   17  C   UNK N   1      35.663  11.310  18.807  0.00  0.00     0.012 A 
HETATM   18  C   UNK N   1      35.771  10.807  20.097  0.00  0.00     0.001 A 
HETATM   19  C   UNK N   1      35.174   9.586  20.414  0.00  0.00     0.000 A 
HETATM   20  C   UNK N   1      34.470   8.869  19.441  0.00  0.00     0.001 A 
HETATM   21  C   UNK N   1      34.362   9.374  18.147  0.00  0.00     0.012 A 
ENDBRANCH  13  16
ENDBRANCH   7  10
ENDBRANCH   1   6
BRANCH   4  22
HETATM   22  O   UNK N   1      33.370  14.937  11.302  0.00  0.00    -0.364 OA
HETATM   23  H   UNK N   1      33.661  15.425  12.047  0.00  0.00     0.217 HD
ENDBRANCH   4  22
TORSDOF 4
ENDMDL
MODEL 9
REMARK VINA RESULT:      -6.5      9.591     14.656
REMARK  4 active torsions:
REMARK  status: ('A' for Active; 'I' for Inactive)
REMARK    1  A    between atoms: C_6  and  C_7 
REMARK    2  A    between atoms: C_12  and  N_13 
REMARK       I    between atoms: N_13  and  C_14 
REMARK    3  A    between atoms: C_14  and  C_16 
REMARK    4  A    between atoms: C_19  and  O_21 
ROOT
HETATM    1  C   UNK N   1      30.951  17.305   5.286  0.00  0.00     0.141 C 
HETATM    2  C   UNK N   1      31.562  17.306   6.597  0.00  0.00     0.107 C 
HETATM    3  N   UNK N   1      32.002  17.313   7.666  0.00  0.00    -0.191 NA
HETATM    4  C   UNK N   1      31.688  17.157   4.151  0.00  0.00     0.065 C 
HETATM    5  C   UNK N   1      33.167  16.989   4.208  0.00  0.00     0.077 C 
ENDROOT
BRANCH   1   6
HETATM    6  C   UNK N   1      29.490  17.472   5.242  0.00  0.00     0.269 C 
HETATM    7  N   UNK N   1      28.952  18.307   4.326  0.00  0.00    -0.322 N 
HETATM    8  H   UNK N   1      29.577  18.770   3.722  0.00  0.00     0.169 HD
HETATM    9  O   UNK N   1      28.785  16.856   6.032  0.00  0.00    -0.266 OA
BRANCH   7  10
HETATM   10  C   UNK N   1      27.590  18.573   4.156  0.00  0.00     0.035 A 
HETATM   11  C   UNK N   1      27.128  19.862   4.418  0.00  0.00     0.030 A 
HETATM   12  C   UNK N   1      25.782  20.155   4.258  0.00  0.00     0.014 A 
HETATM   13  C   UNK N   1      24.899  19.152   3.835  0.00  0.00    -0.026 A 
HETATM   14  C   UNK N   1      25.374  17.865   3.576  0.00  0.00     0.014 A 
HETATM   15  C   UNK N   1      26.708  17.578   3.735  0.00  0.00     0.030 A 
BRANCH  13  16
HETATM   16  C   UNK N   1      23.479  19.422   3.656  0.00  0.00    -0.026 A 
HETATM   17  C   UNK N   1      23.080  20.451   2.792  0.00  0.00     0.012 A 
HETATM   18  C   UNK N   1      21.731  20.727   2.605  0.00  0.00     0.001 A 
HETATM   19  C   UNK N   1      20.773  19.973   3.284  0.00  0.00     0.000 A 
HETATM   20  C   UNK N   1      21.163  18.945   4.148  0.00  0.00     0.001 A 
HETATM   21  C   UNK N   1      22.516  18.669   4.334  0.00  0.00     0.012 A 
ENDBRANCH  13  16
ENDBRANCH   7  10
ENDBRANCH   1   6
BRANCH   4  22
HETATM   22  O   UNK N   1      31.106  17.158   2.930  0.00  0.00    -0.364 OA
HETATM   23  H   UNK N   1      30.693  17.935   2.610  0.00  0.00     0.217 HD
ENDBRANCH   4  22
TORSDOF 4
ENDMDL
