MODEL 1
REMARK VINA RESULT:      -7.1      0.000      0.000
REMARK  4 active torsions:
REMARK  status: ('A' for Active; 'I' for Inactive)
REMARK    1  A    between atoms: N_20  and  C_21 
REMARK    2  A    between atoms: C_21  and  C_22 
REMARK    3  A    between atoms: C_22  and  C_23 
REMARK    4  A    between atoms: C_23  and  N_24 
ROOT
HETATM    1  O   UNK N   1      30.842  22.891  -1.792  0.00  0.00    -0.267 OA
HETATM    2  C   UNK N   1      30.798  22.233  -2.816  0.00  0.00     0.260 A 
HETATM    3  N   UNK N   1      31.558  21.121  -3.029  0.00  0.00    -0.289 N 
HETATM    4  C   UNK N   1      31.215  20.687  -4.275  0.00  0.00     0.260 A 
HETATM    5  O   UNK N   1      31.696  19.698  -4.798  0.00  0.00    -0.267 OA
HETATM    6  C   UNK N   1      30.260  21.511  -4.833  0.00  0.00     0.062 A 
HETATM    7  C   UNK N   1      29.987  22.494  -3.907  0.00  0.00     0.055 A 
HETATM    8  C   UNK N   1      29.036  23.511  -4.157  0.00  0.00    -0.043 A 
HETATM    9  C   UNK N   1      28.756  24.580  -3.158  0.00  0.00     0.049 C 
HETATM   10  C   UNK N   1      28.340  23.500  -5.389  0.00  0.00     0.038 A 
HETATM   11  C   UNK N   1      28.641  22.483  -6.316  0.00  0.00     0.047 A 
HETATM   12  C   UNK N   1      29.591  21.509  -6.053  0.00  0.00     0.020 A 
HETATM   13  C   UNK N   1      29.644  20.703  -7.168  0.00  0.00     0.005 A 
HETATM   14  C   UNK N   1      30.422  19.588  -7.466  0.00  0.00     0.021 A 
HETATM   15  C   UNK N   1      30.244  18.980  -8.720  0.00  0.00    -0.061 A 
HETATM   16  C   UNK N   1      31.063  17.794  -9.085  0.00  0.00     0.048 C 
HETATM   17  C   UNK N   1      29.295  19.490  -9.636  0.00  0.00     0.009 A 
HETATM   18  C   UNK N   1      28.518  20.619  -9.308  0.00  0.00     0.031 A 
HETATM   19  C   UNK N   1      28.722  21.209  -8.062  0.00  0.00     0.046 A 
HETATM   20  N   UNK N   1      28.101  22.295  -7.541  0.00  0.00    -0.345 N 
HETATM   21  H   UNK N   1      32.214  20.718  -2.415  0.00  0.00     0.172 HD
ENDROOT
BRANCH  20  22
HETATM   22  C   UNK N   1      27.051  23.101  -8.155  0.00  0.00     0.131 C 
BRANCH  22  23
HETATM   23  C   UNK N   1      25.746  22.950  -7.395  0.00  0.00     0.039 C 
BRANCH  23  24
HETATM   24  C   UNK N   1      25.034  21.686  -7.836  0.00  0.00     0.112 C 
BRANCH  24  25
HETATM   25  N   UNK N   1      23.981  21.362  -6.891  0.00  0.00    -0.430 N 
HETATM   26  H   UNK N   1      23.067  20.967  -7.117  0.00  0.00     0.149 HD
HETATM   27  H   UNK N   1      24.172  21.549  -5.907  0.00  0.00     0.149 HD
ENDBRANCH  24  25
ENDBRANCH  23  24
ENDBRANCH  22  23
ENDBRANCH  20  22
TORSDOF 4
ENDMDL
MODEL 2
REMARK VINA RESULT:      -7.1      1.623      4.821
REMARK  4 active torsions:
REMARK  status: ('A' for Active; 'I' for Inactive)
REMARK    1  A    between atoms: N_20  and  C_21 
REMARK    2  A    between atoms: C_21  and  C_22 
REMARK    3  A    between atoms: C_22  and  C_23 
REMARK    4  A    between atoms: C_23  and  N_24 
ROOT
HETATM    1  O   UNK N   1      32.034  20.414  -4.079  0.00  0.00    -0.267 OA
HETATM    2  C   UNK N   1      31.220  21.318  -4.018  0.00  0.00     0.260 A 
HETATM    3  N   UNK N   1      31.134  22.184  -2.968  0.00  0.00    -0.289 N 
HETATM    4  C   UNK N   1      30.112  23.029  -3.284  0.00  0.00     0.260 A 
HETATM    5  O   UNK N   1      29.754  23.948  -2.569  0.00  0.00    -0.267 OA
HETATM    6  C   UNK N   1      29.567  22.700  -4.508  0.00  0.00     0.062 A 
HETATM    7  C   UNK N   1      30.272  21.615  -4.982  0.00  0.00     0.055 A 
HETATM    8  C   UNK N   1      29.975  21.020  -6.231  0.00  0.00    -0.043 A 
HETATM    9  C   UNK N   1      30.731  19.838  -6.731  0.00  0.00     0.049 C 
HETATM   10  C   UNK N   1      28.934  21.574  -7.014  0.00  0.00     0.038 A 
HETATM   11  C   UNK N   1      28.231  22.682  -6.503  0.00  0.00     0.047 A 
HETATM   12  C   UNK N   1      28.531  23.233  -5.267  0.00  0.00     0.020 A 
HETATM   13  C   UNK N   1      27.647  24.272  -5.077  0.00  0.00     0.005 A 
HETATM   14  C   UNK N   1      27.477  25.158  -4.018  0.00  0.00     0.021 A 
HETATM   15  C   UNK N   1      26.457  26.119  -4.124  0.00  0.00    -0.061 A 
HETATM   16  C   UNK N   1      26.232  27.078  -3.011  0.00  0.00     0.048 C 
HETATM   17  C   UNK N   1      25.644  26.176  -5.280  0.00  0.00     0.009 A 
HETATM   18  C   UNK N   1      25.838  25.269  -6.339  0.00  0.00     0.031 A 
HETATM   19  C   UNK N   1      26.850  24.319  -6.204  0.00  0.00     0.046 A 
HETATM   20  N   UNK N   1      27.209  23.351  -7.081  0.00  0.00    -0.345 N 
HETATM   21  H   UNK N   1      31.690  22.196  -2.155  0.00  0.00     0.172 HD
ENDROOT
BRANCH  20  22
HETATM   22  C   UNK N   1      26.634  23.081  -8.395  0.00  0.00     0.131 C 
BRANCH  22  23
HETATM   23  C   UNK N   1      25.164  22.722  -8.273  0.00  0.00     0.039 C 
BRANCH  23  24
HETATM   24  C   UNK N   1      25.020  21.331  -7.687  0.00  0.00     0.112 C 
BRANCH  24  25
HETATM   25  N   UNK N   1      23.933  21.316  -6.725  0.00  0.00    -0.430 N 
HETATM   26  H   UNK N   1      23.819  21.948  -5.932  0.00  0.00     0.149 HD
HETATM   27  H   UNK N   1      23.214  20.604  -6.854  0.00  0.00     0.149 HD
ENDBRANCH  24  25
ENDBRANCH  23  24
ENDBRANCH  22  23
ENDBRANCH  20  22
TORSDOF 4
ENDMDL
MODEL 3
REMARK VINA RESULT:      -6.8     11.156     13.440
REMARK  4 active torsions:
REMARK  status: ('A' for Active; 'I' for Inactive)
REMARK    1  A    between atoms: N_20  and  C_21 
REMARK    2  A    between atoms: C_21  and  C_22 
REMARK    3  A    between atoms: C_22  and  C_23 
REMARK    4  A    between atoms: C_23  and  N_24 
ROOT
HETATM    1  O   UNK N   1      32.752  15.413   8.887  0.00  0.00    -0.267 OA
HETATM    2  C   UNK N   1      31.902  16.197   8.506  0.00  0.00     0.260 A 
HETATM    3  N   UNK N   1      31.495  17.279   9.232  0.00  0.00    -0.289 N 
HETATM    4  C   UNK N   1      30.547  17.888   8.465  0.00  0.00     0.260 A 
HETATM    5  O   UNK N   1      29.965  18.904   8.798  0.00  0.00    -0.267 OA
HETATM    6  C   UNK N   1      30.361  17.202   7.282  0.00  0.00     0.062 A 
HETATM    7  C   UNK N   1      31.224  16.128   7.302  0.00  0.00     0.055 A 
HETATM    8  C   UNK N   1      31.297  15.211   6.226  0.00  0.00    -0.043 A 
HETATM    9  C   UNK N   1      32.222  14.043   6.259  0.00  0.00     0.049 C 
HETATM   10  C   UNK N   1      30.469  15.422   5.098  0.00  0.00     0.038 A 
HETATM   11  C   UNK N   1      29.597  16.528   5.108  0.00  0.00     0.047 A 
HETATM   12  C   UNK N   1      29.531  17.400   6.183  0.00  0.00     0.020 A 
HETATM   13  C   UNK N   1      28.573  18.337   5.870  0.00  0.00     0.005 A 
HETATM   14  C   UNK N   1      28.083  19.430   6.577  0.00  0.00     0.021 A 
HETATM   15  C   UNK N   1      27.075  20.203   5.976  0.00  0.00    -0.061 A 
HETATM   16  C   UNK N   1      26.514  21.372   6.701  0.00  0.00     0.048 C 
HETATM   17  C   UNK N   1      26.591  19.872   4.688  0.00  0.00     0.009 A 
HETATM   18  C   UNK N   1      27.105  18.762   3.992  0.00  0.00     0.031 A 
HETATM   19  C   UNK N   1      28.098  18.006   4.616  0.00  0.00     0.046 A 
HETATM   20  N   UNK N   1      28.727  16.903   4.145  0.00  0.00    -0.345 N 
HETATM   21  H   UNK N   1      31.818  17.559  10.118  0.00  0.00     0.172 HD
ENDROOT
BRANCH  20  22
HETATM   22  C   UNK N   1      28.531  16.248   2.855  0.00  0.00     0.131 C 
BRANCH  22  23
HETATM   23  C   UNK N   1      27.456  15.181   2.953  0.00  0.00     0.039 C 
BRANCH  23  24
HETATM   24  C   UNK N   1      26.239  15.600   2.151  0.00  0.00     0.112 C 
BRANCH  24  25
HETATM   25  N   UNK N   1      25.130  15.866   3.049  0.00  0.00    -0.430 N 
HETATM   26  H   UNK N   1      24.597  15.171   3.575  0.00  0.00     0.149 HD
HETATM   27  H   UNK N   1      24.855  16.841   3.166  0.00  0.00     0.149 HD
ENDBRANCH  24  25
ENDBRANCH  23  24
ENDBRANCH  22  23
ENDBRANCH  20  22
TORSDOF 4
ENDMDL
MODEL 4
REMARK VINA RESULT:      -6.7     10.991     13.854
REMARK  4 active torsions:
REMARK  status: ('A' for Active; 'I' for Inactive)
REMARK    1  A    between atoms: N_20  and  C_21 
REMARK    2  A    between atoms: C_21  and  C_22 
REMARK    3  A    between atoms: C_22  and  C_23 
REMARK    4  A    between atoms: C_23  and  N_24 
ROOT
HETATM    1  O   UNK N   1      26.291  20.750   6.565  0.00  0.00    -0.267 OA
HETATM    2  C   UNK N   1      27.131  19.951   6.939  0.00  0.00     0.260 A 
HETATM    3  N   UNK N   1      27.425  19.726   8.252  0.00  0.00    -0.289 N 
HETATM    4  C   UNK N   1      28.403  18.776   8.242  0.00  0.00     0.260 A 
HETATM    5  O   UNK N   1      28.907  18.321   9.253  0.00  0.00    -0.267 OA
HETATM    6  C   UNK N   1      28.717  18.413   6.949  0.00  0.00     0.062 A 
HETATM    7  C   UNK N   1      27.907  19.154   6.116  0.00  0.00     0.055 A 
HETATM    8  C   UNK N   1      27.965  19.022   4.708  0.00  0.00    -0.043 A 
HETATM    9  C   UNK N   1      27.097  19.836   3.812  0.00  0.00     0.049 C 
HETATM   10  C   UNK N   1      28.872  18.088   4.152  0.00  0.00     0.038 A 
HETATM   11  C   UNK N   1      29.687  17.346   5.029  0.00  0.00     0.047 A 
HETATM   12  C   UNK N   1      29.623  17.509   6.404  0.00  0.00     0.020 A 
HETATM   13  C   UNK N   1      30.559  16.655   6.943  0.00  0.00     0.005 A 
HETATM   14  C   UNK N   1      30.937  16.411   8.260  0.00  0.00     0.021 A 
HETATM   15  C   UNK N   1      31.953  15.467   8.487  0.00  0.00    -0.061 A 
HETATM   16  C   UNK N   1      32.396  15.185   9.877  0.00  0.00     0.048 C 
HETATM   17  C   UNK N   1      32.555  14.788   7.402  0.00  0.00     0.009 A 
HETATM   18  C   UNK N   1      32.152  15.051   6.079  0.00  0.00     0.031 A 
HETATM   19  C   UNK N   1      31.149  16.000   5.881  0.00  0.00     0.046 A 
HETATM   20  N   UNK N   1      30.614  16.416   4.708  0.00  0.00    -0.345 N 
HETATM   21  H   UNK N   1      27.018  20.158   9.038  0.00  0.00     0.172 HD
ENDROOT
BRANCH  20  22
HETATM   22  C   UNK N   1      30.945  15.954   3.364  0.00  0.00     0.131 C 
BRANCH  22  23
HETATM   23  C   UNK N   1      32.022  16.827   2.747  0.00  0.00     0.039 C 
BRANCH  23  24
HETATM   24  C   UNK N   1      33.385  16.202   2.973  0.00  0.00     0.112 C 
BRANCH  24  25
HETATM   25  N   UNK N   1      33.439  14.901   2.333  0.00  0.00    -0.430 N 
HETATM   26  H   UNK N   1      34.243  14.496   1.851  0.00  0.00     0.149 HD
HETATM   27  H   UNK N   1      32.591  14.336   2.367  0.00  0.00     0.149 HD
ENDBRANCH  24  25
ENDBRANCH  23  24
ENDBRANCH  22  23
ENDBRANCH  20  22
TORSDOF 4
ENDMDL
MODEL 5
REMARK VINA RESULT:      -6.6     22.445     25.409
REMARK  4 active torsions:
REMARK  status: ('A' for Active; 'I' for Inactive)
REMARK    1  A    between atoms: N_20  and  C_21 
REMARK    2  A    between atoms: C_21  and  C_22 
REMARK    3  A    between atoms: C_22  and  C_23 
REMARK    4  A    between atoms: C_23  and  N_24 
ROOT
HETATM    1  O   UNK N   1      35.227  13.030  20.427  0.00  0.00    -0.267 OA
HETATM    2  C   UNK N   1      35.294  12.136  19.603  0.00  0.00     0.260 A 
HETATM    3  N   UNK N   1      35.332  10.812  19.930  0.00  0.00    -0.289 N 
HETATM    4  C   UNK N   1      35.403  10.151  18.739  0.00  0.00     0.260 A 
HETATM    5  O   UNK N   1      35.445   8.938  18.646  0.00  0.00    -0.267 OA
HETATM    6  C   UNK N   1      35.410  11.043  17.686  0.00  0.00     0.062 A 
HETATM    7  C   UNK N   1      35.335  12.307  18.230  0.00  0.00     0.055 A 
HETATM    8  C   UNK N   1      35.314  13.467  17.420  0.00  0.00    -0.043 A 
HETATM    9  C   UNK N   1      35.247  14.831  18.014  0.00  0.00     0.049 C 
HETATM   10  C   UNK N   1      35.354  13.312  16.014  0.00  0.00     0.038 A 
HETATM   11  C   UNK N   1      35.431  12.008  15.488  0.00  0.00     0.047 A 
HETATM   12  C   UNK N   1      35.470  10.889  16.305  0.00  0.00     0.020 A 
HETATM   13  C   UNK N   1      35.565   9.798  15.471  0.00  0.00     0.005 A 
HETATM   14  C   UNK N   1      35.653   8.435  15.738  0.00  0.00     0.021 A 
HETATM   15  C   UNK N   1      35.752   7.557  14.645  0.00  0.00    -0.061 A 
HETATM   16  C   UNK N   1      35.860   6.095  14.885  0.00  0.00     0.048 C 
HETATM   17  C   UNK N   1      35.752   8.058  13.322  0.00  0.00     0.009 A 
HETATM   18  C   UNK N   1      35.659   9.442  13.078  0.00  0.00     0.031 A 
HETATM   19  C   UNK N   1      35.572  10.291  14.181  0.00  0.00     0.046 A 
HETATM   20  N   UNK N   1      35.484  11.643  14.188  0.00  0.00    -0.345 N 
HETATM   21  H   UNK N   1      35.313  10.418  20.832  0.00  0.00     0.172 HD
ENDROOT
BRANCH  20  22
HETATM   22  C   UNK N   1      35.437  12.539  13.037  0.00  0.00     0.131 C 
BRANCH  22  23
HETATM   23  C   UNK N   1      36.822  13.069  12.713  0.00  0.00     0.039 C 
BRANCH  23  24
HETATM   24  C   UNK N   1      37.270  12.550  11.360  0.00  0.00     0.112 C 
BRANCH  24  25
HETATM   25  N   UNK N   1      38.489  13.227  10.956  0.00  0.00    -0.430 N 
HETATM   26  H   UNK N   1      38.554  14.156  10.539  0.00  0.00     0.149 HD
HETATM   27  H   UNK N   1      39.365  12.725  11.102  0.00  0.00     0.149 HD
ENDBRANCH  24  25
ENDBRANCH  23  24
ENDBRANCH  22  23
ENDBRANCH  20  22
TORSDOF 4
ENDMDL
MODEL 6
REMARK VINA RESULT:      -6.5     11.803     14.916
REMARK  4 active torsions:
REMARK  status: ('A' for Active; 'I' for Inactive)
REMARK    1  A    between atoms: N_20  and  C_21 
REMARK    2  A    between atoms: C_21  and  C_22 
REMARK    3  A    between atoms: C_22  and  C_23 
REMARK    4  A    between atoms: C_23  and  N_24 
ROOT
HETATM    1  O   UNK N   1      27.416  18.824   6.467  0.00  0.00    -0.267 OA
HETATM    2  C   UNK N   1      28.383  18.245   6.004  0.00  0.00     0.260 A 
HETATM    3  N   UNK N   1      28.549  18.004   4.672  0.00  0.00    -0.289 N 
HETATM    4  C   UNK N   1      29.739  17.346   4.574  0.00  0.00     0.260 A 
HETATM    5  O   UNK N   1      30.217  16.976   3.517  0.00  0.00    -0.267 OA
HETATM    6  C   UNK N   1      30.308  17.177   5.819  0.00  0.00     0.062 A 
HETATM    7  C   UNK N   1      29.451  17.752   6.733  0.00  0.00     0.055 A 
HETATM    8  C   UNK N   1      29.736  17.763   8.119  0.00  0.00    -0.043 A 
HETATM    9  C   UNK N   1      28.799  18.373   9.103  0.00  0.00     0.049 C 
HETATM   10  C   UNK N   1      30.946  17.180   8.566  0.00  0.00     0.038 A 
HETATM   11  C   UNK N   1      31.800  16.599   7.609  0.00  0.00     0.047 A 
HETATM   12  C   UNK N   1      31.488  16.585   6.259  0.00  0.00     0.020 A 
HETATM   13  C   UNK N   1      32.518  15.929   5.625  0.00  0.00     0.005 A 
HETATM   14  C   UNK N   1      32.727  15.612   4.286  0.00  0.00     0.021 A 
HETATM   15  C   UNK N   1      33.899  14.911   3.952  0.00  0.00    -0.061 A 
HETATM   16  C   UNK N   1      34.155  14.542   2.536  0.00  0.00     0.048 C 
HETATM   17  C   UNK N   1      34.830  14.555   4.955  0.00  0.00     0.009 A 
HETATM   18  C   UNK N   1      34.596  14.890   6.303  0.00  0.00     0.031 A 
HETATM   19  C   UNK N   1      33.422  15.576   6.608  0.00  0.00     0.046 A 
HETATM   20  N   UNK N   1      32.988  15.990   7.823  0.00  0.00    -0.345 N 
HETATM   21  H   UNK N   1      27.941  18.251   3.939  0.00  0.00     0.172 HD
ENDROOT
BRANCH  20  22
HETATM   22  C   UNK N   1      33.660  15.835   9.109  0.00  0.00     0.131 C 
BRANCH  22  23
HETATM   23  C   UNK N   1      34.669  16.948   9.325  0.00  0.00     0.039 C 
BRANCH  23  24
HETATM   24  C   UNK N   1      35.370  16.758  10.656  0.00  0.00     0.112 C 
BRANCH  24  25
HETATM   25  N   UNK N   1      34.748  15.669  11.386  0.00  0.00    -0.430 N 
HETATM   26  H   UNK N   1      35.201  14.805  11.686  0.00  0.00     0.149 HD
HETATM   27  H   UNK N   1      33.761  15.776  11.620  0.00  0.00     0.149 HD
ENDBRANCH  24  25
ENDBRANCH  23  24
ENDBRANCH  22  23
ENDBRANCH  20  22
TORSDOF 4
ENDMDL
MODEL 7
REMARK VINA RESULT:      -6.4      2.746      5.523
REMARK  4 active torsions:
REMARK  status: ('A' for Active; 'I' for Inactive)
REMARK    1  A    between atoms: N_20  and  C_21 
REMARK    2  A    between atoms: C_21  and  C_22 
REMARK    3  A    between atoms: C_22  and  C_23 
REMARK    4  A    between atoms: C_23  and  N_24 
ROOT
HETATM    1  O   UNK N   1      26.870  21.336 -10.079  0.00  0.00    -0.267 OA
HETATM    2  C   UNK N   1      27.614  21.407  -9.118  0.00  0.00     0.260 A 
HETATM    3  N   UNK N   1      28.787  20.716  -9.021  0.00  0.00    -0.289 N 
HETATM    4  C   UNK N   1      29.310  21.067  -7.812  0.00  0.00     0.260 A 
HETATM    5  O   UNK N   1      30.370  20.642  -7.390  0.00  0.00    -0.267 OA
HETATM    6  C   UNK N   1      28.483  21.960  -7.163  0.00  0.00     0.062 A 
HETATM    7  C   UNK N   1      27.404  22.183  -7.992  0.00  0.00     0.055 A 
HETATM    8  C   UNK N   1      26.357  23.064  -7.631  0.00  0.00    -0.043 A 
HETATM    9  C   UNK N   1      25.187  23.290  -8.525  0.00  0.00     0.049 C 
HETATM   10  C   UNK N   1      26.437  23.741  -6.391  0.00  0.00     0.038 A 
HETATM   11  C   UNK N   1      27.551  23.491  -5.566  0.00  0.00     0.047 A 
HETATM   12  C   UNK N   1      28.554  22.609  -5.934  0.00  0.00     0.020 A 
HETATM   13  C   UNK N   1      29.460  22.591  -4.898  0.00  0.00     0.005 A 
HETATM   14  C   UNK N   1      30.643  21.881  -4.718  0.00  0.00     0.021 A 
HETATM   15  C   UNK N   1      31.351  22.078  -3.520  0.00  0.00    -0.061 A 
HETATM   16  C   UNK N   1      32.613  21.331  -3.280  0.00  0.00     0.048 C 
HETATM   17  C   UNK N   1      30.868  22.980  -2.543  0.00  0.00     0.009 A 
HETATM   18  C   UNK N   1      29.668  23.688  -2.751  0.00  0.00     0.031 A 
HETATM   19  C   UNK N   1      28.981  23.466  -3.944  0.00  0.00     0.046 A 
HETATM   20  N   UNK N   1      27.815  24.023  -4.352  0.00  0.00    -0.345 N 
HETATM   21  H   UNK N   1      29.172  20.096  -9.682  0.00  0.00     0.172 HD
ENDROOT
BRANCH  20  22
HETATM   22  C   UNK N   1      27.006  25.011  -3.647  0.00  0.00     0.131 C 
BRANCH  22  23
HETATM   23  C   UNK N   1      27.429  26.419  -4.022  0.00  0.00     0.039 C 
BRANCH  23  24
HETATM   24  C   UNK N   1      26.208  27.307  -4.158  0.00  0.00     0.112 C 
BRANCH  24  25
HETATM   25  N   UNK N   1      25.845  27.843  -2.859  0.00  0.00    -0.430 N 
HETATM   26  H   UNK N   1      25.255  27.389  -2.161  0.00  0.00     0.149 HD
HETATM   27  H   UNK N   1      26.214  28.763  -2.621  0.00  0.00     0.149 HD
ENDBRANCH  24  25
ENDBRANCH  23  24
ENDBRANCH  22  23
ENDBRANCH  20  22
TORSDOF 4
ENDMDL
MODEL 8
REMARK VINA RESULT:      -6.4     21.909     25.530
REMARK  4 active torsions:
REMARK  status: ('A' for Active; 'I' for Inactive)
REMARK    1  A    between atoms: N_20  and  C_21 
REMARK    2  A    between atoms: C_21  and  C_22 
REMARK    3  A    between atoms: C_22  and  C_23 
REMARK    4  A    between atoms: C_23  and  N_24 
ROOT
HETATM    1  O   UNK N   1      37.913  12.254  10.463  0.00  0.00    -0.267 OA
HETATM    2  C   UNK N   1      37.499  12.532  11.574  0.00  0.00     0.260 A 
HETATM    3  N   UNK N   1      37.187  13.801  11.966  0.00  0.00    -0.289 N 
HETATM    4  C   UNK N   1      36.767  13.683  13.257  0.00  0.00     0.260 A 
HETATM    5  O   UNK N   1      36.397  14.627  13.932  0.00  0.00    -0.267 OA
HETATM    6  C   UNK N   1      36.814  12.367  13.668  0.00  0.00     0.062 A 
HETATM    7  C   UNK N   1      37.274  11.630  12.599  0.00  0.00     0.055 A 
HETATM    8  C   UNK N   1      37.437  10.226  12.676  0.00  0.00    -0.043 A 
HETATM    9  C   UNK N   1      37.949   9.436  11.522  0.00  0.00     0.049 C 
HETATM   10  C   UNK N   1      37.099   9.570  13.884  0.00  0.00     0.038 A 
HETATM   11  C   UNK N   1      36.632  10.351  14.959  0.00  0.00     0.047 A 
HETATM   12  C   UNK N   1      36.500  11.727  14.863  0.00  0.00     0.020 A 
HETATM   13  C   UNK N   1      36.047  12.163  16.087  0.00  0.00     0.005 A 
HETATM   14  C   UNK N   1      35.755  13.438  16.563  0.00  0.00     0.021 A 
HETATM   15  C   UNK N   1      35.312  13.556  17.892  0.00  0.00    -0.061 A 
HETATM   16  C   UNK N   1      35.001  14.900  18.446  0.00  0.00     0.048 C 
HETATM   17  C   UNK N   1      35.166  12.407  18.704  0.00  0.00     0.009 A 
HETATM   18  C   UNK N   1      35.466  11.128  18.196  0.00  0.00     0.031 A 
HETATM   19  C   UNK N   1      35.912  11.040  16.878  0.00  0.00     0.046 A 
HETATM   20  N   UNK N   1      36.264   9.928  16.189  0.00  0.00    -0.345 N 
HETATM   21  H   UNK N   1      37.253  14.625  11.431  0.00  0.00     0.172 HD
ENDROOT
BRANCH  20  22
HETATM   22  C   UNK N   1      36.241   8.546  16.656  0.00  0.00     0.131 C 
BRANCH  22  23
HETATM   23  C   UNK N   1      37.563   8.175  17.303  0.00  0.00     0.039 C 
BRANCH  23  24
HETATM   24  C   UNK N   1      38.289   7.155  16.448  0.00  0.00     0.112 C 
BRANCH  24  25
HETATM   25  N   UNK N   1      39.712   7.437  16.453  0.00  0.00    -0.430 N 
HETATM   26  H   UNK N   1      40.169   8.247  16.031  0.00  0.00     0.149 HD
HETATM   27  H   UNK N   1      40.315   6.761  16.922  0.00  0.00     0.149 HD
ENDBRANCH  24  25
ENDBRANCH  23  24
ENDBRANCH  22  23
ENDBRANCH  20  22
TORSDOF 4
ENDMDL
MODEL 9
REMARK VINA RESULT:      -6.4     11.143     13.020
REMARK  4 active torsions:
REMARK  status: ('A' for Active; 'I' for Inactive)
REMARK    1  A    between atoms: N_20  and  C_21 
REMARK    2  A    between atoms: C_21  and  C_22 
REMARK    3  A    between atoms: C_22  and  C_23 
REMARK    4  A    between atoms: C_23  and  N_24 
ROOT
HETATM    1  O   UNK N   1      28.324  19.059   4.535  0.00  0.00    -0.267 OA
HETATM    2  C   UNK N   1      27.205  19.297   4.118  0.00  0.00     0.260 A 
HETATM    3  N   UNK N   1      26.921  20.326   3.268  0.00  0.00    -0.289 N 
HETATM    4  C   UNK N   1      25.578  20.247   3.047  0.00  0.00     0.260 A 
HETATM    5  O   UNK N   1      24.971  21.013   2.320  0.00  0.00    -0.267 OA
HETATM    6  C   UNK N   1      25.030  19.190   3.744  0.00  0.00     0.062 A 
HETATM    7  C   UNK N   1      26.062  18.579   4.423  0.00  0.00     0.055 A 
HETATM    8  C   UNK N   1      25.848  17.444   5.240  0.00  0.00    -0.043 A 
HETATM    9  C   UNK N   1      26.964  16.796   5.983  0.00  0.00     0.049 C 
HETATM   10  C   UNK N   1      24.537  16.920   5.341  0.00  0.00     0.038 A 
HETATM   11  C   UNK N   1      23.503  17.566   4.636  0.00  0.00     0.047 A 
HETATM   12  C   UNK N   1      23.737  18.689   3.858  0.00  0.00     0.020 A 
HETATM   13  C   UNK N   1      22.520  19.067   3.339  0.00  0.00     0.005 A 
HETATM   14  C   UNK N   1      22.156  20.123   2.510  0.00  0.00     0.021 A 
HETATM   15  C   UNK N   1      20.801  20.246   2.159  0.00  0.00    -0.061 A 
HETATM   16  C   UNK N   1      20.367  21.367   1.286  0.00  0.00     0.048 C 
HETATM   17  C   UNK N   1      19.850  19.313   2.636  0.00  0.00     0.009 A 
HETATM   18  C   UNK N   1      20.244  18.251   3.472  0.00  0.00     0.031 A 
HETATM   19  C   UNK N   1      21.593  18.158   3.812  0.00  0.00     0.046 A 
HETATM   20  N   UNK N   1      22.193  17.235   4.602  0.00  0.00    -0.345 N 
HETATM   21  H   UNK N   1      27.551  20.984   2.895  0.00  0.00     0.172 HD
ENDROOT
BRANCH  20  22
HETATM   22  C   UNK N   1      21.572  16.098   5.273  0.00  0.00     0.131 C 
BRANCH  22  23
HETATM   23  C   UNK N   1      21.049  16.501   6.639  0.00  0.00     0.039 C 
BRANCH  23  24
HETATM   24  C   UNK N   1      21.401  15.437   7.661  0.00  0.00     0.112 C 
BRANCH  24  25
HETATM   25  N   UNK N   1      22.427  14.563   7.124  0.00  0.00    -0.430 N 
HETATM   26  H   UNK N   1      23.379  14.831   6.872  0.00  0.00     0.149 HD
HETATM   27  H   UNK N   1      22.172  13.585   6.983  0.00  0.00     0.149 HD
ENDBRANCH  24  25
ENDBRANCH  23  24
ENDBRANCH  22  23
ENDBRANCH  20  22
TORSDOF 4
ENDMDL
