MODEL 1
REMARK VINA RESULT:      -6.8      0.000      0.000
REMARK  2 active torsions:
REMARK  status: ('A' for Active; 'I' for Inactive)
REMARK    1  A    between atoms: C_7  and  C_8 
REMARK       I    between atoms: C_8  and  N_10 
REMARK    2  A    between atoms: C_18  and  O_19 
ROOT
HETATM    1  C   UNK N   1      35.121  16.617   9.773  0.00  0.00     0.271 C 
HETATM    2  O   UNK N   1      35.605  17.636  10.241  0.00  0.00    -0.266 OA
HETATM    3  N   UNK N   1      35.137  15.497  10.540  0.00  0.00    -0.266 N 
HETATM    4  N   UNK N   1      34.635  14.283  10.158  0.00  0.00    -0.308 N 
ATOM      5  HN  UNK N   1      34.217  14.199   9.232  1.00  0.00     0.186 HD
HETATM    6  C   UNK N   1      34.669  13.236  10.919  0.00  0.00     0.121 C 
HETATM    7  C   UNK N   1      35.213  13.052  12.313  0.00  0.00     0.017 A 
HETATM    8  C   UNK N   1      35.066  11.751  12.814  0.00  0.00     0.037 A 
HETATM    9  C   UNK N   1      35.512  11.398  14.088  0.00  0.00     0.046 A 
HETATM   10 Br   UNK N   1      35.277   9.604  14.701  0.00  0.00    -0.048 Br
HETATM   11  C   UNK N   1      36.125  12.354  14.902  0.00  0.00     0.103 A 
HETATM   12  C   UNK N   1      36.288  13.660  14.436  0.00  0.00     0.079 A 
HETATM   13 Br   UNK N   1      37.130  14.973  15.558  0.00  0.00    -0.045 Br
HETATM   14  C   UNK N   1      35.841  14.022  13.156  0.00  0.00     0.097 A 
HETATM   15  O   UNK N   1      36.031  15.291  12.778  0.00  0.00    -0.358 OA
HETATM   16  H   UNK N   1      35.540  15.563  11.435  0.00  0.00     0.190 HD
HETATM   17  H   UNK N   1      35.747  15.574  11.931  0.00  0.00     0.217 HD
ENDROOT
BRANCH   1  18
HETATM   18  C   UNK N   1      34.548  16.671   8.399  0.00  0.00     0.049 A 
HETATM   19  C   UNK N   1      33.500  17.564   8.136  0.00  0.00     0.020 A 
HETATM   20  C   UNK N   1      32.942  17.641   6.863  0.00  0.00     0.018 A 
HETATM   21  C   UNK N   1      33.437  16.818   5.853  0.00  0.00     0.087 A 
HETATM   22  N   UNK N   1      34.454  15.954   6.113  0.00  0.00    -0.374 N 
HETATM   23  C   UNK N   1      35.013  15.865   7.351  0.00  0.00     0.104 A 
ATOM     24  HN  UNK N   1      34.806  15.358   5.364  1.00  0.00     0.164 HD
ENDBRANCH   1  18
BRANCH  11  25
HETATM   25  O   UNK N   1      36.556  12.018  16.131  0.00  0.00    -0.358 OA
HETATM   26  H   UNK N   1      36.071  12.284  16.887  0.00  0.00     0.217 HD
ENDBRANCH  11  25
TORSDOF 2
ENDMDL
MODEL 2
REMARK VINA RESULT:      -6.7      5.225      8.690
REMARK  2 active torsions:
REMARK  status: ('A' for Active; 'I' for Inactive)
REMARK    1  A    between atoms: C_7  and  C_8 
REMARK       I    between atoms: C_8  and  N_10 
REMARK    2  A    between atoms: C_18  and  O_19 
ROOT
HETATM    1  C   UNK N   1      34.978  15.086   8.741  0.00  0.00     0.271 C 
HETATM    2  O   UNK N   1      35.808  14.819   7.886  0.00  0.00    -0.266 OA
HETATM    3  N   UNK N   1      33.793  15.607   8.333  0.00  0.00    -0.266 N 
HETATM    4  N   UNK N   1      32.766  15.955   9.167  0.00  0.00    -0.308 N 
ATOM      5  HN  UNK N   1      32.887  15.820  10.170  1.00  0.00     0.186 HD
HETATM    6  C   UNK N   1      31.648  16.449   8.740  0.00  0.00     0.121 C 
HETATM    7  C   UNK N   1      31.183  16.760   7.340  0.00  0.00     0.017 A 
HETATM    8  C   UNK N   1      29.889  17.297   7.275  0.00  0.00     0.037 A 
HETATM    9  C   UNK N   1      29.296  17.644   6.062  0.00  0.00     0.046 A 
HETATM   10 Br   UNK N   1      27.528  18.371   6.056  0.00  0.00    -0.048 Br
HETATM   11  C   UNK N   1      29.994  17.459   4.867  0.00  0.00     0.103 A 
HETATM   12  C   UNK N   1      31.284  16.927   4.891  0.00  0.00     0.079 A 
HETATM   13 Br   UNK N   1      32.242  16.673   3.245  0.00  0.00    -0.045 Br
HETATM   14  C   UNK N   1      31.887  16.575   6.109  0.00  0.00     0.097 A 
HETATM   15  O   UNK N   1      33.126  16.071   6.055  0.00  0.00    -0.358 OA
HETATM   16  H   UNK N   1      33.663  15.745   7.367  0.00  0.00     0.190 HD
HETATM   17  H   UNK N   1      33.564  15.823   6.845  0.00  0.00     0.217 HD
ENDROOT
BRANCH   1  18
HETATM   18  C   UNK N   1      35.320  14.823  10.167  0.00  0.00     0.049 A 
HETATM   19  C   UNK N   1      34.920  13.611  10.747  0.00  0.00     0.020 A 
HETATM   20  C   UNK N   1      35.223  13.333  12.077  0.00  0.00     0.018 A 
HETATM   21  C   UNK N   1      35.929  14.274  12.825  0.00  0.00     0.087 A 
HETATM   22  N   UNK N   1      36.315  15.447  12.257  0.00  0.00    -0.374 N 
HETATM   23  C   UNK N   1      36.028  15.737  10.958  0.00  0.00     0.104 A 
ATOM     24  HN  UNK N   1      36.831  16.127  12.816  1.00  0.00     0.164 HD
ENDBRANCH   1  18
BRANCH  11  25
HETATM   25  O   UNK N   1      29.425  17.793   3.694  0.00  0.00    -0.358 OA
HETATM   26  H   UNK N   1      29.638  17.315   2.917  0.00  0.00     0.217 HD
ENDBRANCH  11  25
TORSDOF 2
ENDMDL
MODEL 3
REMARK VINA RESULT:      -6.5     11.362     14.292
REMARK  2 active torsions:
REMARK  status: ('A' for Active; 'I' for Inactive)
REMARK    1  A    between atoms: C_7  and  C_8 
REMARK       I    between atoms: C_8  and  N_10 
REMARK    2  A    between atoms: C_18  and  O_19 
ROOT
HETATM    1  C   UNK N   1      26.606  19.285   5.596  0.00  0.00     0.271 C 
HETATM    2  O   UNK N   1      26.633  20.462   5.269  0.00  0.00    -0.266 OA
HETATM    3  N   UNK N   1      25.501  18.564   5.277  0.00  0.00    -0.266 N 
HETATM    4  N   UNK N   1      25.321  17.241   5.573  0.00  0.00    -0.308 N 
ATOM      5  HN  UNK N   1      26.062  16.749   6.071  1.00  0.00     0.186 HD
HETATM    6  C   UNK N   1      24.252  16.586   5.250  0.00  0.00     0.121 C 
HETATM    7  C   UNK N   1      23.007  17.032   4.525  0.00  0.00     0.017 A 
HETATM    8  C   UNK N   1      22.050  16.021   4.361  0.00  0.00     0.037 A 
HETATM    9  C   UNK N   1      20.838  16.254   3.712  0.00  0.00     0.046 A 
HETATM   10 Br   UNK N   1      19.583  14.824   3.528  0.00  0.00    -0.048 Br
HETATM   11  C   UNK N   1      20.550  17.523   3.206  0.00  0.00     0.103 A 
HETATM   12  C   UNK N   1      21.480  18.555   3.350  0.00  0.00     0.079 A 
HETATM   13 Br   UNK N   1      21.082  20.300   2.652  0.00  0.00    -0.045 Br
HETATM   14  C   UNK N   1      22.702  18.327   4.002  0.00  0.00     0.097 A 
HETATM   15  O   UNK N   1      23.543  19.363   4.103  0.00  0.00    -0.358 OA
HETATM   16  H   UNK N   1      24.776  19.027   4.798  0.00  0.00     0.190 HD
HETATM   17  H   UNK N   1      24.370  19.254   4.529  0.00  0.00     0.217 HD
ENDROOT
BRANCH   1  18
HETATM   18  C   UNK N   1      27.780  18.724   6.321  0.00  0.00     0.049 A 
HETATM   19  C   UNK N   1      27.997  19.100   7.654  0.00  0.00     0.020 A 
HETATM   20  C   UNK N   1      29.085  18.594   8.360  0.00  0.00     0.018 A 
HETATM   21  C   UNK N   1      29.957  17.711   7.726  0.00  0.00     0.087 A 
HETATM   22  N   UNK N   1      29.742  17.350   6.432  0.00  0.00    -0.374 N 
HETATM   23  C   UNK N   1      28.684  17.834   5.725  0.00  0.00     0.104 A 
ATOM     24  HN  UNK N   1      30.388  16.703   5.981  1.00  0.00     0.164 HD
ENDBRANCH   1  18
BRANCH  11  25
HETATM   25  O   UNK N   1      19.381  17.752   2.580  0.00  0.00    -0.358 OA
HETATM   26  H   UNK N   1      19.357  17.827   1.646  0.00  0.00     0.217 HD
ENDBRANCH  11  25
TORSDOF 2
ENDMDL
MODEL 4
REMARK VINA RESULT:      -6.5     17.788     20.344
REMARK  2 active torsions:
REMARK  status: ('A' for Active; 'I' for Inactive)
REMARK    1  A    between atoms: C_7  and  C_8 
REMARK       I    between atoms: C_8  and  N_10 
REMARK    2  A    between atoms: C_18  and  O_19 
ROOT
HETATM    1  C   UNK N   1      27.206  26.162  -5.521  0.00  0.00     0.271 C 
HETATM    2  O   UNK N   1      26.510  25.777  -6.448  0.00  0.00    -0.266 OA
HETATM    3  N   UNK N   1      28.207  25.348  -5.101  0.00  0.00    -0.266 N 
HETATM    4  N   UNK N   1      29.070  25.636  -4.079  0.00  0.00    -0.308 N 
ATOM      5  HN  UNK N   1      28.963  26.524  -3.588  1.00  0.00     0.186 HD
HETATM    6  C   UNK N   1      30.015  24.833  -3.707  0.00  0.00     0.121 C 
HETATM    7  C   UNK N   1      30.414  23.476  -4.229  0.00  0.00     0.017 A 
HETATM    8  C   UNK N   1      31.505  22.906  -3.559  0.00  0.00     0.037 A 
HETATM    9  C   UNK N   1      32.011  21.654  -3.909  0.00  0.00     0.046 A 
HETATM   10 Br   UNK N   1      33.501  20.943  -2.947  0.00  0.00    -0.048 Br
HETATM   11  C   UNK N   1      31.428  20.933  -4.953  0.00  0.00     0.103 A 
HETATM   12  C   UNK N   1      30.340  21.470  -5.644  0.00  0.00     0.079 A 
HETATM   13 Br   UNK N   1      29.541  20.476  -7.081  0.00  0.00    -0.045 Br
HETATM   14  C   UNK N   1      29.826  22.729  -5.297  0.00  0.00     0.097 A 
HETATM   15  O   UNK N   1      28.782  23.179  -6.004  0.00  0.00    -0.358 OA
HETATM   16  H   UNK N   1      28.321  24.487  -5.564  0.00  0.00     0.190 HD
HETATM   17  H   UNK N   1      28.409  24.015  -5.806  0.00  0.00     0.217 HD
ENDROOT
BRANCH   1  18
HETATM   18  C   UNK N   1      26.911  27.491  -4.918  0.00  0.00     0.049 A 
HETATM   19  C   UNK N   1      27.516  28.632  -5.463  0.00  0.00     0.020 A 
HETATM   20  C   UNK N   1      27.262  29.890  -4.923  0.00  0.00     0.018 A 
HETATM   21  C   UNK N   1      26.399  30.002  -3.833  0.00  0.00     0.087 A 
HETATM   22  N   UNK N   1      25.815  28.891  -3.309  0.00  0.00    -0.374 N 
HETATM   23  C   UNK N   1      26.051  27.653  -3.823  0.00  0.00     0.104 A 
ATOM     24  HN  UNK N   1      25.187  28.988  -2.512  1.00  0.00     0.164 HD
ENDBRANCH   1  18
BRANCH  11  25
HETATM   25  O   UNK N   1      31.913  19.726  -5.293  0.00  0.00    -0.358 OA
HETATM   26  H   UNK N   1      32.509  19.282  -4.722  0.00  0.00     0.217 HD
ENDBRANCH  11  25
TORSDOF 2
ENDMDL
MODEL 5
REMARK VINA RESULT:      -6.4      1.939      2.934
REMARK  2 active torsions:
REMARK  status: ('A' for Active; 'I' for Inactive)
REMARK    1  A    between atoms: C_7  and  C_8 
REMARK       I    between atoms: C_8  and  N_10 
REMARK    2  A    between atoms: C_18  and  O_19 
ROOT
HETATM    1  C   UNK N   1      33.354  14.126   8.181  0.00  0.00     0.271 C 
HETATM    2  O   UNK N   1      32.800  13.065   7.937  0.00  0.00    -0.266 OA
HETATM    3  N   UNK N   1      33.979  14.255   9.378  0.00  0.00    -0.266 N 
HETATM    4  N   UNK N   1      34.642  15.376   9.796  0.00  0.00    -0.308 N 
ATOM      5  HN  UNK N   1      34.676  16.181   9.171  1.00  0.00     0.186 HD
HETATM    6  C   UNK N   1      35.228  15.460  10.947  0.00  0.00     0.121 C 
HETATM    7  C   UNK N   1      35.347  14.456  12.065  0.00  0.00     0.017 A 
HETATM    8  C   UNK N   1      36.068  14.920  13.174  0.00  0.00     0.037 A 
HETATM    9  C   UNK N   1      36.279  14.125  14.300  0.00  0.00     0.046 A 
HETATM   10 Br   UNK N   1      37.271  14.830  15.774  0.00  0.00    -0.048 Br
HETATM   11  C   UNK N   1      35.765  12.827  14.344  0.00  0.00     0.103 A 
HETATM   12  C   UNK N   1      35.042  12.330  13.257  0.00  0.00     0.079 A 
HETATM   13 Br   UNK N   1      34.337  10.544  13.319  0.00  0.00    -0.045 Br
HETATM   14  C   UNK N   1      34.827  13.125  12.121  0.00  0.00     0.097 A 
HETATM   15  O   UNK N   1      34.126  12.582  11.119  0.00  0.00    -0.358 OA
HETATM   16  H   UNK N   1      33.953  13.486   9.992  0.00  0.00     0.190 HD
HETATM   17  H   UNK N   1      33.960  13.077  10.342  0.00  0.00     0.217 HD
ENDROOT
BRANCH   1  18
HETATM   18  C   UNK N   1      33.306  15.202   7.151  0.00  0.00     0.049 A 
HETATM   19  C   UNK N   1      32.227  16.097   7.156  0.00  0.00     0.020 A 
HETATM   20  C   UNK N   1      32.152  17.114   6.208  0.00  0.00     0.018 A 
HETATM   21  C   UNK N   1      33.162  17.232   5.254  0.00  0.00     0.087 A 
HETATM   22  N   UNK N   1      34.206  16.361   5.255  0.00  0.00    -0.374 N 
HETATM   23  C   UNK N   1      34.297  15.360   6.173  0.00  0.00     0.104 A 
ATOM     24  HN  UNK N   1      34.937  16.458   4.551  1.00  0.00     0.164 HD
ENDBRANCH   1  18
BRANCH  11  25
HETATM   25  O   UNK N   1      35.966  12.057  15.429  0.00  0.00    -0.358 OA
HETATM   26  H   UNK N   1      36.808  11.677  15.584  0.00  0.00     0.217 HD
ENDBRANCH  11  25
TORSDOF 2
ENDMDL
MODEL 6
REMARK VINA RESULT:      -6.3      9.865     12.186
REMARK  2 active torsions:
REMARK  status: ('A' for Active; 'I' for Inactive)
REMARK    1  A    between atoms: C_7  and  C_8 
REMARK       I    between atoms: C_8  and  N_10 
REMARK    2  A    between atoms: C_18  and  O_19 
ROOT
HETATM    1  C   UNK N   1      27.643  18.131   6.415  0.00  0.00     0.271 C 
HETATM    2  O   UNK N   1      27.453  19.128   5.736  0.00  0.00    -0.266 OA
HETATM    3  N   UNK N   1      26.651  17.206   6.472  0.00  0.00    -0.266 N 
HETATM    4  N   UNK N   1      26.712  16.041   7.186  0.00  0.00    -0.308 N 
ATOM      5  HN  UNK N   1      27.558  15.841   7.719  1.00  0.00     0.186 HD
HETATM    6  C   UNK N   1      25.745  15.181   7.216  0.00  0.00     0.121 C 
HETATM    7  C   UNK N   1      24.395  15.197   6.544  0.00  0.00     0.017 A 
HETATM    8  C   UNK N   1      23.607  14.071   6.820  0.00  0.00     0.037 A 
HETATM    9  C   UNK N   1      22.329  13.917   6.283  0.00  0.00     0.046 A 
HETATM   10 Br   UNK N   1      21.316  12.353   6.708  0.00  0.00    -0.048 Br
HETATM   11  C   UNK N   1      21.802  14.901   5.445  0.00  0.00     0.103 A 
HETATM   12  C   UNK N   1      22.558  16.036   5.146  0.00  0.00     0.079 A 
HETATM   13 Br   UNK N   1      21.830  17.388   3.992  0.00  0.00    -0.045 Br
HETATM   14  C   UNK N   1      23.844  16.198   5.683  0.00  0.00     0.097 A 
HETATM   15  O   UNK N   1      24.510  17.311   5.353  0.00  0.00    -0.358 OA
HETATM   16  H   UNK N   1      25.828  17.386   5.964  0.00  0.00     0.190 HD
HETATM   17  H   UNK N   1      25.371  17.458   5.689  0.00  0.00     0.217 HD
ENDROOT
BRANCH   1  18
HETATM   18  C   UNK N   1      28.942  17.998   7.130  0.00  0.00     0.049 A 
HETATM   19  C   UNK N   1      29.090  18.603   8.386  0.00  0.00     0.020 A 
HETATM   20  C   UNK N   1      30.291  18.498   9.082  0.00  0.00     0.018 A 
HETATM   21  C   UNK N   1      31.346  17.785   8.515  0.00  0.00     0.087 A 
HETATM   22  N   UNK N   1      31.197  17.200   7.297  0.00  0.00    -0.374 N 
HETATM   23  C   UNK N   1      30.031  17.291   6.601  0.00  0.00     0.104 A 
ATOM     24  HN  UNK N   1      31.977  16.682   6.894  1.00  0.00     0.164 HD
ENDBRANCH   1  18
BRANCH  11  25
HETATM   25  O   UNK N   1      20.570  14.756   4.925  0.00  0.00    -0.358 OA
HETATM   26  H   UNK N   1      20.082  15.510   4.658  0.00  0.00     0.217 HD
ENDBRANCH  11  25
TORSDOF 2
ENDMDL
MODEL 7
REMARK VINA RESULT:      -6.2      4.755      7.603
REMARK  2 active torsions:
REMARK  status: ('A' for Active; 'I' for Inactive)
REMARK    1  A    between atoms: C_7  and  C_8 
REMARK       I    between atoms: C_8  and  N_10 
REMARK    2  A    between atoms: C_18  and  O_19 
ROOT
HETATM    1  C   UNK N   1      35.391  15.543  10.469  0.00  0.00     0.271 C 
HETATM    2  O   UNK N   1      35.311  16.422  11.313  0.00  0.00    -0.266 OA
HETATM    3  N   UNK N   1      34.410  15.470   9.534  0.00  0.00    -0.266 N 
HETATM    4  N   UNK N   1      34.359  14.546   8.527  0.00  0.00    -0.308 N 
ATOM      5  HN  UNK N   1      35.106  13.854   8.463  1.00  0.00     0.186 HD
HETATM    6  C   UNK N   1      33.406  14.509   7.652  0.00  0.00     0.121 C 
HETATM    7  C   UNK N   1      32.186  15.381   7.490  0.00  0.00     0.017 A 
HETATM    8  C   UNK N   1      31.371  15.025   6.407  0.00  0.00     0.037 A 
HETATM    9  C   UNK N   1      30.201  15.722   6.106  0.00  0.00     0.046 A 
HETATM   10 Br   UNK N   1      29.141  15.176   4.612  0.00  0.00    -0.048 Br
HETATM   11  C   UNK N   1      29.814  16.808   6.893  0.00  0.00     0.103 A 
HETATM   12  C   UNK N   1      30.602  17.193   7.981  0.00  0.00     0.079 A 
HETATM   13 Br   UNK N   1      30.068  18.688   9.062  0.00  0.00    -0.045 Br
HETATM   14  C   UNK N   1      31.780  16.495   8.289  0.00  0.00     0.097 A 
HETATM   15  O   UNK N   1      32.484  16.920   9.345  0.00  0.00    -0.358 OA
HETATM   16  H   UNK N   1      33.681  16.130   9.584  0.00  0.00     0.190 HD
HETATM   17  H   UNK N   1      33.277  16.484   9.585  0.00  0.00     0.217 HD
ENDROOT
BRANCH   1  18
HETATM   18  C   UNK N   1      36.555  14.614  10.522  0.00  0.00     0.049 A 
HETATM   19  C   UNK N   1      37.431  14.562   9.430  0.00  0.00     0.020 A 
HETATM   20  C   UNK N   1      38.529  13.706   9.447  0.00  0.00     0.018 A 
HETATM   21  C   UNK N   1      38.745  12.899  10.562  0.00  0.00     0.087 A 
HETATM   22  N   UNK N   1      37.891  12.953  11.619  0.00  0.00    -0.374 N 
HETATM   23  C   UNK N   1      36.812  13.784  11.621  0.00  0.00     0.104 A 
ATOM     24  HN  UNK N   1      38.060  12.357  12.429  1.00  0.00     0.164 HD
ENDBRANCH   1  18
BRANCH  11  25
HETATM   25  O   UNK N   1      28.686  17.483   6.606  0.00  0.00    -0.358 OA
HETATM   26  H   UNK N   1      28.371  17.515   5.725  0.00  0.00     0.217 HD
ENDBRANCH  11  25
TORSDOF 2
ENDMDL
MODEL 8
REMARK VINA RESULT:      -6.2      2.861      3.770
REMARK  2 active torsions:
REMARK  status: ('A' for Active; 'I' for Inactive)
REMARK    1  A    between atoms: C_7  and  C_8 
REMARK       I    between atoms: C_8  and  N_10 
REMARK    2  A    between atoms: C_18  and  O_19 
ROOT
HETATM    1  C   UNK N   1      36.864  13.840  11.154  0.00  0.00     0.271 C 
HETATM    2  O   UNK N   1      37.907  13.521  10.605  0.00  0.00    -0.266 OA
HETATM    3  N   UNK N   1      36.513  13.177  12.285  0.00  0.00    -0.266 N 
HETATM    4  N   UNK N   1      35.380  13.418  13.011  0.00  0.00    -0.308 N 
ATOM      5  HN  UNK N   1      34.742  14.146  12.690  1.00  0.00     0.186 HD
HETATM    6  C   UNK N   1      35.080  12.764  14.087  0.00  0.00     0.121 C 
HETATM    7  C   UNK N   1      35.810  11.651  14.797  0.00  0.00     0.017 A 
HETATM    8  C   UNK N   1      35.161  11.188  15.950  0.00  0.00     0.037 A 
HETATM    9  C   UNK N   1      35.693  10.163  16.732  0.00  0.00     0.046 A 
HETATM   10 Br   UNK N   1      34.748   9.586  18.290  0.00  0.00    -0.048 Br
HETATM   11  C   UNK N   1      36.904   9.569  16.373  0.00  0.00     0.103 A 
HETATM   12  C   UNK N   1      37.580  10.005  15.231  0.00  0.00     0.079 A 
HETATM   13 Br   UNK N   1      39.247   9.186  14.740  0.00  0.00    -0.045 Br
HETATM   14  C   UNK N   1      37.051  11.036  14.440  0.00  0.00     0.097 A 
HETATM   15  O   UNK N   1      37.753  11.401  13.361  0.00  0.00    -0.358 OA
HETATM   16  H   UNK N   1      37.119  12.470  12.606  0.00  0.00     0.190 HD
HETATM   17  H   UNK N   1      37.436  12.085  12.806  0.00  0.00     0.217 HD
ENDROOT
BRANCH   1  18
HETATM   18  C   UNK N   1      36.050  14.930  10.547  0.00  0.00     0.049 A 
HETATM   19  C   UNK N   1      35.484  14.729   9.281  0.00  0.00     0.020 A 
HETATM   20  C   UNK N   1      34.717  15.727   8.685  0.00  0.00     0.018 A 
HETATM   21  C   UNK N   1      34.520  16.930   9.362  0.00  0.00     0.087 A 
HETATM   22  N   UNK N   1      35.072  17.119  10.591  0.00  0.00    -0.374 N 
HETATM   23  C   UNK N   1      35.824  16.155  11.189  0.00  0.00     0.104 A 
ATOM     24  HN  UNK N   1      34.920  18.004  11.075  1.00  0.00     0.164 HD
ENDBRANCH   1  18
BRANCH  11  25
HETATM   25  O   UNK N   1      37.421   8.580  17.125  0.00  0.00    -0.358 OA
HETATM   26  H   UNK N   1      37.843   8.780  17.937  0.00  0.00     0.217 HD
ENDBRANCH  11  25
TORSDOF 2
ENDMDL
MODEL 9
REMARK VINA RESULT:      -6.1      4.917      6.961
REMARK  2 active torsions:
REMARK  status: ('A' for Active; 'I' for Inactive)
REMARK    1  A    between atoms: C_7  and  C_8 
REMARK       I    between atoms: C_8  and  N_10 
REMARK    2  A    between atoms: C_18  and  O_19 
ROOT
HETATM    1  C   UNK N   1      29.213  17.756   8.153  0.00  0.00     0.271 C 
HETATM    2  O   UNK N   1      28.963  17.754   9.348  0.00  0.00    -0.266 OA
HETATM    3  N   UNK N   1      30.398  17.228   7.753  0.00  0.00    -0.266 N 
HETATM    4  N   UNK N   1      30.821  17.157   6.454  0.00  0.00    -0.308 N 
ATOM      5  HN  UNK N   1      30.212  17.525   5.723  1.00  0.00     0.186 HD
HETATM    6  C   UNK N   1      31.959  16.645   6.111  0.00  0.00     0.121 C 
HETATM    7  C   UNK N   1      33.054  16.034   6.948  0.00  0.00     0.017 A 
HETATM    8  C   UNK N   1      34.154  15.582   6.206  0.00  0.00     0.037 A 
HETATM    9  C   UNK N   1      35.260  14.989   6.816  0.00  0.00     0.046 A 
HETATM   10 Br   UNK N   1      36.722  14.399   5.736  0.00  0.00    -0.048 Br
HETATM   11  C   UNK N   1      35.290  14.831   8.202  0.00  0.00     0.103 A 
HETATM   12  C   UNK N   1      34.212  15.268   8.975  0.00  0.00     0.079 A 
HETATM   13 Br   UNK N   1      34.256  15.049  10.883  0.00  0.00    -0.045 Br
HETATM   14  C   UNK N   1      33.097  15.866   8.368  0.00  0.00     0.097 A 
HETATM   15  O   UNK N   1      32.101  16.260   9.171  0.00  0.00    -0.358 OA
HETATM   16  H   UNK N   1      30.997  16.871   8.447  0.00  0.00     0.190 HD
HETATM   17  H   UNK N   1      31.338  16.662   8.807  0.00  0.00     0.217 HD
ENDROOT
BRANCH   1  18
HETATM   18  C   UNK N   1      28.207  18.334   7.219  0.00  0.00     0.049 A 
HETATM   19  C   UNK N   1      28.054  19.727   7.165  0.00  0.00     0.020 A 
HETATM   20  C   UNK N   1      27.123  20.301   6.304  0.00  0.00     0.018 A 
HETATM   21  C   UNK N   1      26.343  19.474   5.497  0.00  0.00     0.087 A 
HETATM   22  N   UNK N   1      26.495  18.124   5.554  0.00  0.00    -0.374 N 
HETATM   23  C   UNK N   1      27.400  17.544   6.389  0.00  0.00     0.104 A 
ATOM     24  HN  UNK N   1      25.918  17.531   4.958  1.00  0.00     0.164 HD
ENDBRANCH   1  18
BRANCH  11  25
HETATM   25  O   UNK N   1      36.354  14.259   8.794  0.00  0.00    -0.358 OA
HETATM   26  H   UNK N   1      36.414  14.234   9.729  0.00  0.00     0.217 HD
ENDBRANCH  11  25
TORSDOF 2
ENDMDL
