MODEL 1
REMARK VINA RESULT:      -7.3      0.000      0.000
REMARK  8 active torsions:
REMARK  status: ('A' for Active; 'I' for Inactive)
REMARK    1  A    between atoms: C_2  and  O_3 
REMARK    2  A    between atoms: C_2  and  C_4 
REMARK    3  A    between atoms: C_4  and  C_5 
REMARK    4  A    between atoms: C_4  and  N_9 
REMARK    5  A    between atoms: C_5  and  C_6 
REMARK    6  A    between atoms: N_9  and  S_10 
REMARK    7  A    between atoms: S_10  and  C_13 
REMARK    8  A    between atoms: C_18  and  C_19 
ROOT
HETATM    1  S   UNK N   1      32.236  15.304   8.243  0.00  0.00     0.259 S 
HETATM    2  O   UNK N   1      31.961  15.031   9.731  0.00  0.00    -0.201 OA
HETATM    3  O   UNK N   1      32.216  13.892   7.640  0.00  0.00    -0.201 OA
ENDROOT
BRANCH   1   4
HETATM    4  N   UNK N   1      33.935  15.804   8.164  0.00  0.00    -0.300 N 
HETATM    5  H   UNK N   1      34.659  15.312   7.640  0.00  0.00     0.173 HD
BRANCH   4   6
HETATM    6  C   UNK N   1      34.158  17.021   8.956  0.00  0.00     0.191 C 
BRANCH   6   7
HETATM    7  C   UNK N   1      34.596  18.165   8.078  0.00  0.00     0.164 C 
HETATM    8  O   UNK N   1      35.208  19.113   8.545  0.00  0.00    -0.648 OA
BRANCH   7   9
HETATM    9  O   UNK N   1      34.331  18.132   6.757  0.00  0.00    -0.775 OA
HETATM   10  H   UNK N   1      33.883  17.443   6.308  0.00  0.00     0.167 HD
ENDBRANCH   7   9
ENDBRANCH   6   7
BRANCH   6  11
HETATM   11  C   UNK N   1      35.182  16.719  10.052  0.00  0.00     0.040 C 
BRANCH  11  12
HETATM   12  C   UNK N   1      35.417  15.227  10.264  0.00  0.00    -0.020 C 
HETATM   13  C   UNK N   1      34.936  14.839  11.645  0.00  0.00     0.009 C 
HETATM   14  C   UNK N   1      36.892  14.901  10.141  0.00  0.00     0.009 C 
ENDBRANCH  11  12
ENDBRANCH   6  11
ENDBRANCH   4   6
ENDBRANCH   1   4
BRANCH   1  15
HETATM   15  C   UNK N   1      31.047  16.406   7.497  0.00  0.00     0.079 A 
HETATM   16  C   UNK N   1      30.917  16.455   6.109  0.00  0.00     0.026 A 
HETATM   17  C   UNK N   1      29.971  17.302   5.529  0.00  0.00     0.014 A 
HETATM   18  C   UNK N   1      29.143  18.104   6.333  0.00  0.00    -0.026 A 
HETATM   19  C   UNK N   1      29.283  18.046   7.728  0.00  0.00     0.014 A 
HETATM   20  C   UNK N   1      30.231  17.201   8.305  0.00  0.00     0.026 A 
BRANCH  18  21
HETATM   21  C   UNK N   1      28.143  19.003   5.713  0.00  0.00    -0.026 A 
HETATM   22  C   UNK N   1      27.805  18.857   4.358  0.00  0.00     0.012 A 
HETATM   23  C   UNK N   1      26.872  19.712   3.766  0.00  0.00     0.001 A 
HETATM   24  C   UNK N   1      26.265  20.716   4.523  0.00  0.00     0.000 A 
HETATM   25  C   UNK N   1      26.590  20.867   5.873  0.00  0.00     0.001 A 
HETATM   26  C   UNK N   1      27.527  20.016   6.466  0.00  0.00     0.012 A 
ENDBRANCH  18  21
ENDBRANCH   1  15
TORSDOF 8
ENDMDL
MODEL 2
REMARK VINA RESULT:      -7.1      4.729     10.604
REMARK  8 active torsions:
REMARK  status: ('A' for Active; 'I' for Inactive)
REMARK    1  A    between atoms: C_2  and  O_3 
REMARK    2  A    between atoms: C_2  and  C_4 
REMARK    3  A    between atoms: C_4  and  C_5 
REMARK    4  A    between atoms: C_4  and  N_9 
REMARK    5  A    between atoms: C_5  and  C_6 
REMARK    6  A    between atoms: N_9  and  S_10 
REMARK    7  A    between atoms: S_10  and  C_13 
REMARK    8  A    between atoms: C_18  and  C_19 
ROOT
HETATM    1  S   UNK N   1      35.200  12.827  11.033  0.00  0.00     0.259 S 
HETATM    2  O   UNK N   1      36.595  12.958  10.399  0.00  0.00    -0.201 OA
HETATM    3  O   UNK N   1      34.628  11.594  10.319  0.00  0.00    -0.201 OA
ENDROOT
BRANCH   1   4
HETATM    4  N   UNK N   1      34.265  14.192  10.397  0.00  0.00    -0.300 N 
HETATM    5  H   UNK N   1      33.275  14.351  10.583  0.00  0.00     0.173 HD
BRANCH   4   6
HETATM    6  C   UNK N   1      35.110  15.061   9.567  0.00  0.00     0.191 C 
BRANCH   6   7
HETATM    7  C   UNK N   1      35.674  16.201  10.377  0.00  0.00     0.164 C 
HETATM    8  O   UNK N   1      35.033  17.226  10.545  0.00  0.00    -0.648 OA
BRANCH   7   9
HETATM    9  O   UNK N   1      36.891  16.079  10.942  0.00  0.00    -0.775 OA
HETATM   10  H   UNK N   1      37.577  15.514  10.645  0.00  0.00     0.167 HD
ENDBRANCH   7   9
ENDBRANCH   6   7
BRANCH   6  11
HETATM   11  C   UNK N   1      34.289  15.559   8.377  0.00  0.00     0.040 C 
BRANCH  11  12
HETATM   12  C   UNK N   1      32.804  15.227   8.486  0.00  0.00    -0.020 C 
HETATM   13  C   UNK N   1      32.372  14.472   7.248  0.00  0.00     0.009 C 
HETATM   14  C   UNK N   1      31.985  16.497   8.605  0.00  0.00     0.009 C 
ENDBRANCH  11  12
ENDBRANCH   6  11
ENDBRANCH   4   6
ENDBRANCH   1   4
BRANCH   1  15
HETATM   15  C   UNK N   1      35.247  12.653  12.809  0.00  0.00     0.079 A 
HETATM   16  C   UNK N   1      36.024  13.522  13.575  0.00  0.00     0.026 A 
HETATM   17  C   UNK N   1      36.042  13.397  14.965  0.00  0.00     0.014 A 
HETATM   18  C   UNK N   1      35.277  12.405  15.602  0.00  0.00    -0.026 A 
HETATM   19  C   UNK N   1      34.498  11.537  14.822  0.00  0.00     0.014 A 
HETATM   20  C   UNK N   1      34.485  11.662  13.432  0.00  0.00     0.026 A 
BRANCH  18  21
HETATM   21  C   UNK N   1      35.301  12.275  17.077  0.00  0.00    -0.026 A 
HETATM   22  C   UNK N   1      35.099  13.402  17.890  0.00  0.00     0.012 A 
HETATM   23  C   UNK N   1      35.133  13.286  19.281  0.00  0.00     0.001 A 
HETATM   24  C   UNK N   1      35.365  12.043  19.873  0.00  0.00     0.000 A 
HETATM   25  C   UNK N   1      35.562  10.914  19.075  0.00  0.00     0.001 A 
HETATM   26  C   UNK N   1      35.533  11.029  17.682  0.00  0.00     0.012 A 
ENDBRANCH  18  21
ENDBRANCH   1  15
TORSDOF 8
ENDMDL
MODEL 3
REMARK VINA RESULT:      -7.1      3.953     10.134
REMARK  8 active torsions:
REMARK  status: ('A' for Active; 'I' for Inactive)
REMARK    1  A    between atoms: C_2  and  O_3 
REMARK    2  A    between atoms: C_2  and  C_4 
REMARK    3  A    between atoms: C_4  and  C_5 
REMARK    4  A    between atoms: C_4  and  N_9 
REMARK    5  A    between atoms: C_5  and  C_6 
REMARK    6  A    between atoms: N_9  and  S_10 
REMARK    7  A    between atoms: S_10  and  C_13 
REMARK    8  A    between atoms: C_18  and  C_19 
ROOT
HETATM    1  S   UNK N   1      35.624  15.354  10.720  0.00  0.00     0.259 S 
HETATM    2  O   UNK N   1      36.760  16.384  10.612  0.00  0.00    -0.201 OA
HETATM    3  O   UNK N   1      35.859  14.471   9.486  0.00  0.00    -0.201 OA
ENDROOT
BRANCH   1   4
HETATM    4  N   UNK N   1      34.140  16.254  10.355  0.00  0.00    -0.300 N 
HETATM    5  H   UNK N   1      33.524  16.662  11.057  0.00  0.00     0.173 HD
BRANCH   4   6
HETATM    6  C   UNK N   1      33.921  16.331   8.905  0.00  0.00     0.191 C 
BRANCH   6   7
HETATM    7  C   UNK N   1      34.551  17.574   8.328  0.00  0.00     0.164 C 
HETATM    8  O   UNK N   1      34.450  17.831   7.138  0.00  0.00    -0.648 OA
BRANCH   7   9
HETATM    9  O   UNK N   1      35.212  18.424   9.137  0.00  0.00    -0.775 OA
HETATM   10  H   UNK N   1      35.024  18.573  10.043  0.00  0.00     0.167 HD
ENDBRANCH   7   9
ENDBRANCH   6   7
BRANCH   6  11
HETATM   11  C   UNK N   1      32.419  16.271   8.626  0.00  0.00     0.040 C 
BRANCH  11  12
HETATM   12  C   UNK N   1      32.036  15.208   7.601  0.00  0.00    -0.020 C 
HETATM   13  C   UNK N   1      33.265  14.401   7.242  0.00  0.00     0.009 C 
HETATM   14  C   UNK N   1      31.483  15.856   6.348  0.00  0.00     0.009 C 
ENDBRANCH  11  12
ENDBRANCH   6  11
ENDBRANCH   4   6
ENDBRANCH   1   4
BRANCH   1  15
HETATM   15  C   UNK N   1      35.643  14.441  12.254  0.00  0.00     0.079 A 
HETATM   16  C   UNK N   1      34.969  13.224  12.349  0.00  0.00     0.026 A 
HETATM   17  C   UNK N   1      35.004  12.502  13.543  0.00  0.00     0.014 A 
HETATM   18  C   UNK N   1      35.718  12.988  14.651  0.00  0.00    -0.026 A 
HETATM   19  C   UNK N   1      36.392  14.214  14.544  0.00  0.00     0.014 A 
HETATM   20  C   UNK N   1      36.353  14.935  13.350  0.00  0.00     0.026 A 
BRANCH  18  21
HETATM   21  C   UNK N   1      35.750  12.220  15.916  0.00  0.00    -0.026 A 
HETATM   22  C   UNK N   1      36.331  10.943  15.953  0.00  0.00     0.012 A 
HETATM   23  C   UNK N   1      36.352  10.209  17.142  0.00  0.00     0.001 A 
HETATM   24  C   UNK N   1      35.796  10.746  18.305  0.00  0.00     0.000 A 
HETATM   25  C   UNK N   1      35.219  12.018  18.281  0.00  0.00     0.001 A 
HETATM   26  C   UNK N   1      35.193  12.752  17.091  0.00  0.00     0.012 A 
ENDBRANCH  18  21
ENDBRANCH   1  15
TORSDOF 8
ENDMDL
MODEL 4
REMARK VINA RESULT:      -7.0      4.343     10.289
REMARK  8 active torsions:
REMARK  status: ('A' for Active; 'I' for Inactive)
REMARK    1  A    between atoms: C_2  and  O_3 
REMARK    2  A    between atoms: C_2  and  C_4 
REMARK    3  A    between atoms: C_4  and  C_5 
REMARK    4  A    between atoms: C_4  and  N_9 
REMARK    5  A    between atoms: C_5  and  C_6 
REMARK    6  A    between atoms: N_9  and  S_10 
REMARK    7  A    between atoms: S_10  and  C_13 
REMARK    8  A    between atoms: C_18  and  C_19 
ROOT
HETATM    1  S   UNK N   1      36.177  14.847  10.625  0.00  0.00     0.259 S 
HETATM    2  O   UNK N   1      36.082  16.381  10.563  0.00  0.00    -0.201 OA
HETATM    3  O   UNK N   1      37.550  14.575   9.992  0.00  0.00    -0.201 OA
ENDROOT
BRANCH   1   4
HETATM    4  N   UNK N   1      35.005  14.258   9.432  0.00  0.00    -0.300 N 
HETATM    5  H   UNK N   1      35.028  13.330   9.009  0.00  0.00     0.173 HD
BRANCH   4   6
HETATM    6  C   UNK N   1      34.000  15.286   9.136  0.00  0.00     0.191 C 
BRANCH   6   7
HETATM    7  C   UNK N   1      32.603  14.745   9.313  0.00  0.00     0.164 C 
HETATM    8  O   UNK N   1      32.195  13.829   8.616  0.00  0.00    -0.648 OA
BRANCH   7   9
HETATM    9  O   UNK N   1      31.804  15.260  10.267  0.00  0.00    -0.775 OA
HETATM   10  H   UNK N   1      30.950  15.619  10.129  0.00  0.00     0.167 HD
ENDBRANCH   7   9
ENDBRANCH   6   7
BRANCH   6  11
HETATM   11  C   UNK N   1      34.231  15.813   7.719  0.00  0.00     0.040 C 
BRANCH  11  12
HETATM   12  C   UNK N   1      33.603  17.181   7.473  0.00  0.00    -0.020 C 
HETATM   13  C   UNK N   1      33.566  17.451   5.985  0.00  0.00     0.009 C 
HETATM   14  C   UNK N   1      34.414  18.265   8.154  0.00  0.00     0.009 C 
ENDBRANCH  11  12
ENDBRANCH   6  11
ENDBRANCH   4   6
ENDBRANCH   1   4
BRANCH   1  15
HETATM   15  C   UNK N   1      36.023  14.197  12.279  0.00  0.00     0.079 A 
HETATM   16  C   UNK N   1      36.546  14.908  13.360  0.00  0.00     0.026 A 
HETATM   17  C   UNK N   1      36.405  14.407  14.655  0.00  0.00     0.014 A 
HETATM   18  C   UNK N   1      35.736  13.192  14.882  0.00  0.00    -0.026 A 
HETATM   19  C   UNK N   1      35.214  12.486  13.787  0.00  0.00     0.014 A 
HETATM   20  C   UNK N   1      35.358  12.988  12.494  0.00  0.00     0.026 A 
BRANCH  18  21
HETATM   21  C   UNK N   1      35.591  12.663  16.257  0.00  0.00    -0.026 A 
HETATM   22  C   UNK N   1      35.743  11.290  16.506  0.00  0.00     0.012 A 
HETATM   23  C   UNK N   1      35.595  10.784  17.800  0.00  0.00     0.001 A 
HETATM   24  C   UNK N   1      35.298  11.647  18.857  0.00  0.00     0.000 A 
HETATM   25  C   UNK N   1      35.149  13.016  18.622  0.00  0.00     0.001 A 
HETATM   26  C   UNK N   1      35.292  13.523  17.327  0.00  0.00     0.012 A 
ENDBRANCH  18  21
ENDBRANCH   1  15
TORSDOF 8
ENDMDL
MODEL 5
REMARK VINA RESULT:      -7.0     10.328     12.777
REMARK  8 active torsions:
REMARK  status: ('A' for Active; 'I' for Inactive)
REMARK    1  A    between atoms: C_2  and  O_3 
REMARK    2  A    between atoms: C_2  and  C_4 
REMARK    3  A    between atoms: C_4  and  C_5 
REMARK    4  A    between atoms: C_4  and  N_9 
REMARK    5  A    between atoms: C_5  and  C_6 
REMARK    6  A    between atoms: N_9  and  S_10 
REMARK    7  A    between atoms: S_10  and  C_13 
REMARK    8  A    between atoms: C_18  and  C_19 
ROOT
HETATM    1  S   UNK N   1      19.217  15.036   4.931  0.00  0.00     0.259 S 
HETATM    2  O   UNK N   1      18.315  13.962   4.301  0.00  0.00    -0.201 OA
HETATM    3  O   UNK N   1      18.203  16.108   5.361  0.00  0.00    -0.201 OA
ENDROOT
BRANCH   1   4
HETATM    4  N   UNK N   1      20.096  15.765   3.575  0.00  0.00    -0.300 N 
HETATM    5  H   UNK N   1      20.347  15.272   2.718  0.00  0.00     0.173 HD
BRANCH   4   6
HETATM    6  C   UNK N   1      20.412  17.171   3.854  0.00  0.00     0.191 C 
BRANCH   6   7
HETATM    7  C   UNK N   1      19.712  18.087   2.881  0.00  0.00     0.164 C 
HETATM    8  O   UNK N   1      19.641  19.287   3.093  0.00  0.00    -0.648 OA
BRANCH   7   9
HETATM    9  O   UNK N   1      19.179  17.579   1.753  0.00  0.00    -0.775 OA
HETATM   10  H   UNK N   1      18.279  17.350   1.630  0.00  0.00     0.167 HD
ENDBRANCH   7   9
ENDBRANCH   6   7
BRANCH   6  11
HETATM   11  C   UNK N   1      21.931  17.354   3.817  0.00  0.00     0.040 C 
BRANCH  11  12
HETATM   12  C   UNK N   1      22.530  17.697   5.177  0.00  0.00    -0.020 C 
HETATM   13  C   UNK N   1      23.190  16.464   5.754  0.00  0.00     0.009 C 
HETATM   14  C   UNK N   1      21.449  18.173   6.127  0.00  0.00     0.009 C 
ENDBRANCH  11  12
ENDBRANCH   6  11
ENDBRANCH   4   6
ENDBRANCH   1   4
BRANCH   1  15
HETATM   15  C   UNK N   1      20.207  14.422   6.283  0.00  0.00     0.079 A 
HETATM   16  C   UNK N   1      20.283  15.142   7.475  0.00  0.00     0.026 A 
HETATM   17  C   UNK N   1      21.041  14.648   8.538  0.00  0.00     0.014 A 
HETATM   18  C   UNK N   1      21.726  13.427   8.420  0.00  0.00    -0.026 A 
HETATM   19  C   UNK N   1      21.642  12.711   7.216  0.00  0.00     0.014 A 
HETATM   20  C   UNK N   1      20.886  13.208   6.154  0.00  0.00     0.026 A 
BRANCH  18  21
HETATM   21  C   UNK N   1      22.531  12.908   9.549  0.00  0.00    -0.026 A 
HETATM   22  C   UNK N   1      21.901  12.486  10.731  0.00  0.00     0.012 A 
HETATM   23  C   UNK N   1      22.658  12.009  11.804  0.00  0.00     0.001 A 
HETATM   24  C   UNK N   1      24.049  11.943  11.704  0.00  0.00     0.000 A 
HETATM   25  C   UNK N   1      24.686  12.356  10.531  0.00  0.00     0.001 A 
HETATM   26  C   UNK N   1      23.931  12.839   9.458  0.00  0.00     0.012 A 
ENDBRANCH  18  21
ENDBRANCH   1  15
TORSDOF 8
ENDMDL
MODEL 6
REMARK VINA RESULT:      -6.6      2.486      8.885
REMARK  8 active torsions:
REMARK  status: ('A' for Active; 'I' for Inactive)
REMARK    1  A    between atoms: C_2  and  O_3 
REMARK    2  A    between atoms: C_2  and  C_4 
REMARK    3  A    between atoms: C_4  and  C_5 
REMARK    4  A    between atoms: C_4  and  N_9 
REMARK    5  A    between atoms: C_5  and  C_6 
REMARK    6  A    between atoms: N_9  and  S_10 
REMARK    7  A    between atoms: S_10  and  C_13 
REMARK    8  A    between atoms: C_18  and  C_19 
ROOT
HETATM    1  S   UNK N   1      34.386  17.441   7.882  0.00  0.00     0.259 S 
HETATM    2  O   UNK N   1      34.998  18.849   7.958  0.00  0.00    -0.201 OA
HETATM    3  O   UNK N   1      34.806  16.974   6.480  0.00  0.00    -0.201 OA
ENDROOT
BRANCH   1   4
HETATM    4  N   UNK N   1      32.636  17.696   7.767  0.00  0.00    -0.300 N 
HETATM    5  H   UNK N   1      32.193  18.595   7.579  0.00  0.00     0.173 HD
BRANCH   4   6
HETATM    6  C   UNK N   1      31.911  16.436   7.980  0.00  0.00     0.191 C 
BRANCH   6   7
HETATM    7  C   UNK N   1      31.531  15.802   6.665  0.00  0.00     0.164 C 
HETATM    8  O   UNK N   1      31.484  16.466   5.641  0.00  0.00    -0.648 OA
BRANCH   7   9
HETATM    9  O   UNK N   1      31.264  14.483   6.614  0.00  0.00    -0.775 OA
HETATM   10  H   UNK N   1      31.835  13.823   6.274  0.00  0.00     0.167 HD
ENDBRANCH   7   9
ENDBRANCH   6   7
BRANCH   6  11
HETATM   11  C   UNK N   1      30.686  16.710   8.854  0.00  0.00     0.040 C 
BRANCH  11  12
HETATM   12  C   UNK N   1      29.980  18.018   8.511  0.00  0.00    -0.020 C 
HETATM   13  C   UNK N   1      29.757  18.810   9.781  0.00  0.00     0.009 C 
HETATM   14  C   UNK N   1      28.641  17.741   7.856  0.00  0.00     0.009 C 
ENDBRANCH  11  12
ENDBRANCH   6  11
ENDBRANCH   4   6
ENDBRANCH   1   4
BRANCH   1  15
HETATM   15  C   UNK N   1      34.949  16.356   9.182  0.00  0.00     0.079 A 
HETATM   16  C   UNK N   1      35.198  15.011   8.909  0.00  0.00     0.026 A 
HETATM   17  C   UNK N   1      35.658  14.169   9.923  0.00  0.00     0.014 A 
HETATM   18  C   UNK N   1      35.879  14.667  11.219  0.00  0.00    -0.026 A 
HETATM   19  C   UNK N   1      35.626  16.022  11.482  0.00  0.00     0.014 A 
HETATM   20  C   UNK N   1      35.163  16.860  10.467  0.00  0.00     0.026 A 
BRANCH  18  21
HETATM   21  C   UNK N   1      36.365  13.770  12.292  0.00  0.00    -0.026 A 
HETATM   22  C   UNK N   1      36.192  14.123  13.640  0.00  0.00     0.012 A 
HETATM   23  C   UNK N   1      36.660  13.286  14.656  0.00  0.00     0.001 A 
HETATM   24  C   UNK N   1      37.302  12.088  14.335  0.00  0.00     0.000 A 
HETATM   25  C   UNK N   1      37.476  11.726  12.997  0.00  0.00     0.001 A 
HETATM   26  C   UNK N   1      37.012  12.563  11.979  0.00  0.00     0.012 A 
ENDBRANCH  18  21
ENDBRANCH   1  15
TORSDOF 8
ENDMDL
MODEL 7
REMARK VINA RESULT:      -6.6      7.112     10.933
REMARK  8 active torsions:
REMARK  status: ('A' for Active; 'I' for Inactive)
REMARK    1  A    between atoms: C_2  and  O_3 
REMARK    2  A    between atoms: C_2  and  C_4 
REMARK    3  A    between atoms: C_4  and  C_5 
REMARK    4  A    between atoms: C_4  and  N_9 
REMARK    5  A    between atoms: C_5  and  C_6 
REMARK    6  A    between atoms: N_9  and  S_10 
REMARK    7  A    between atoms: S_10  and  C_13 
REMARK    8  A    between atoms: C_18  and  C_19 
ROOT
HETATM    1  S   UNK N   1      34.891   9.415  11.104  0.00  0.00     0.259 S 
HETATM    2  O   UNK N   1      35.903   8.283  10.863  0.00  0.00    -0.201 OA
HETATM    3  O   UNK N   1      33.551   8.730  10.799  0.00  0.00    -0.201 OA
ENDROOT
BRANCH   1   4
HETATM    4  N   UNK N   1      35.132  10.552   9.764  0.00  0.00    -0.300 N 
HETATM    5  H   UNK N   1      35.655  10.341   8.914  0.00  0.00     0.173 HD
BRANCH   4   6
HETATM    6  C   UNK N   1      34.476  11.835  10.046  0.00  0.00     0.191 C 
BRANCH   6   7
HETATM    7  C   UNK N   1      33.154  11.936   9.328  0.00  0.00     0.164 C 
HETATM    8  O   UNK N   1      32.970  12.787   8.472  0.00  0.00    -0.648 OA
BRANCH   7   9
HETATM    9  O   UNK N   1      32.170  11.062   9.616  0.00  0.00    -0.775 OA
HETATM   10  H   UNK N   1      31.317  11.285   9.933  0.00  0.00     0.167 HD
ENDBRANCH   7   9
ENDBRANCH   6   7
BRANCH   6  11
HETATM   11  C   UNK N   1      35.423  12.972   9.657  0.00  0.00     0.040 C 
BRANCH  11  12
HETATM   12  C   UNK N   1      35.970  13.738  10.856  0.00  0.00    -0.020 C 
HETATM   13  C   UNK N   1      37.285  13.123  11.282  0.00  0.00     0.009 C 
HETATM   14  C   UNK N   1      34.994  13.676  12.014  0.00  0.00     0.009 C 
ENDBRANCH  11  12
ENDBRANCH   6  11
ENDBRANCH   4   6
ENDBRANCH   1   4
BRANCH   1  15
HETATM   15  C   UNK N   1      34.975  10.098  12.751  0.00  0.00     0.079 A 
HETATM   16  C   UNK N   1      36.214  10.352  13.338  0.00  0.00     0.026 A 
HETATM   17  C   UNK N   1      36.276  10.906  14.618  0.00  0.00     0.014 A 
HETATM   18  C   UNK N   1      35.099  11.216  15.320  0.00  0.00    -0.026 A 
HETATM   19  C   UNK N   1      33.857  10.956  14.719  0.00  0.00     0.014 A 
HETATM   20  C   UNK N   1      33.799  10.399  13.440  0.00  0.00     0.026 A 
BRANCH  18  21
HETATM   21  C   UNK N   1      35.169  11.801  16.678  0.00  0.00    -0.026 A 
HETATM   22  C   UNK N   1      35.306  10.968  17.800  0.00  0.00     0.012 A 
HETATM   23  C   UNK N   1      35.360  11.514  19.085  0.00  0.00     0.001 A 
HETATM   24  C   UNK N   1      35.281  12.898  19.259  0.00  0.00     0.000 A 
HETATM   25  C   UNK N   1      35.149  13.736  18.150  0.00  0.00     0.001 A 
HETATM   26  C   UNK N   1      35.090  13.191  16.864  0.00  0.00     0.012 A 
ENDBRANCH  18  21
ENDBRANCH   1  15
TORSDOF 8
ENDMDL
MODEL 8
REMARK VINA RESULT:      -6.5      2.504      4.172
REMARK  8 active torsions:
REMARK  status: ('A' for Active; 'I' for Inactive)
REMARK    1  A    between atoms: C_2  and  O_3 
REMARK    2  A    between atoms: C_2  and  C_4 
REMARK    3  A    between atoms: C_4  and  C_5 
REMARK    4  A    between atoms: C_4  and  N_9 
REMARK    5  A    between atoms: C_5  and  C_6 
REMARK    6  A    between atoms: N_9  and  S_10 
REMARK    7  A    between atoms: S_10  and  C_13 
REMARK    8  A    between atoms: C_18  and  C_19 
ROOT
HETATM    1  S   UNK N   1      29.711  17.994   9.291  0.00  0.00     0.259 S 
HETATM    2  O   UNK N   1      29.694  19.004  10.451  0.00  0.00    -0.201 OA
HETATM    3  O   UNK N   1      29.263  16.695   9.978  0.00  0.00    -0.201 OA
ENDROOT
BRANCH   1   4
HETATM    4  N   UNK N   1      31.425  17.738   8.918  0.00  0.00    -0.300 N 
HETATM    5  H   UNK N   1      32.177  18.372   9.190  0.00  0.00     0.173 HD
BRANCH   4   6
HETATM    6  C   UNK N   1      31.614  16.493   8.164  0.00  0.00     0.191 C 
BRANCH   6   7
HETATM    7  C   UNK N   1      32.384  15.481   8.975  0.00  0.00     0.164 C 
HETATM    8  O   UNK N   1      33.436  15.018   8.562  0.00  0.00    -0.648 OA
BRANCH   7   9
HETATM    9  O   UNK N   1      31.919  15.099  10.180  0.00  0.00    -0.775 OA
HETATM   10  H   UNK N   1      31.713  15.672  10.892  0.00  0.00     0.167 HD
ENDBRANCH   7   9
ENDBRANCH   6   7
BRANCH   6  11
HETATM   11  C   UNK N   1      32.313  16.814   6.842  0.00  0.00     0.040 C 
BRANCH  11  12
HETATM   12  C   UNK N   1      31.557  16.303   5.620  0.00  0.00    -0.020 C 
HETATM   13  C   UNK N   1      32.455  15.372   4.834  0.00  0.00     0.009 C 
HETATM   14  C   UNK N   1      31.143  17.459   4.732  0.00  0.00     0.009 C 
ENDBRANCH  11  12
ENDBRANCH   6  11
ENDBRANCH   4   6
ENDBRANCH   1   4
BRANCH   1  15
HETATM   15  C   UNK N   1      28.661  18.468   7.928  0.00  0.00     0.079 A 
HETATM   16  C   UNK N   1      28.247  17.511   7.002  0.00  0.00     0.026 A 
HETATM   17  C   UNK N   1      27.409  17.880   5.948  0.00  0.00     0.014 A 
HETATM   18  C   UNK N   1      26.973  19.209   5.815  0.00  0.00    -0.026 A 
HETATM   19  C   UNK N   1      27.396  20.163   6.753  0.00  0.00     0.014 A 
HETATM   20  C   UNK N   1      28.236  19.792   7.803  0.00  0.00     0.026 A 
BRANCH  18  21
HETATM   21  C   UNK N   1      26.086  19.597   4.695  0.00  0.00    -0.026 A 
HETATM   22  C   UNK N   1      24.758  19.145   4.656  0.00  0.00     0.012 A 
HETATM   23  C   UNK N   1      23.921  19.497   3.594  0.00  0.00     0.001 A 
HETATM   24  C   UNK N   1      24.402  20.308   2.565  0.00  0.00     0.000 A 
HETATM   25  C   UNK N   1      25.721  20.768   2.595  0.00  0.00     0.001 A 
HETATM   26  C   UNK N   1      26.561  20.412   3.654  0.00  0.00     0.012 A 
ENDBRANCH  18  21
ENDBRANCH   1  15
TORSDOF 8
ENDMDL
MODEL 9
REMARK VINA RESULT:      -6.4      2.958      4.970
REMARK  8 active torsions:
REMARK  status: ('A' for Active; 'I' for Inactive)
REMARK    1  A    between atoms: C_2  and  O_3 
REMARK    2  A    between atoms: C_2  and  C_4 
REMARK    3  A    between atoms: C_4  and  C_5 
REMARK    4  A    between atoms: C_4  and  N_9 
REMARK    5  A    between atoms: C_5  and  C_6 
REMARK    6  A    between atoms: N_9  and  S_10 
REMARK    7  A    between atoms: S_10  and  C_13 
REMARK    8  A    between atoms: C_18  and  C_19 
ROOT
HETATM    1  S   UNK N   1      35.632  15.220  10.552  0.00  0.00     0.259 S 
HETATM    2  O   UNK N   1      36.412  14.175   9.738  0.00  0.00    -0.201 OA
HETATM    3  O   UNK N   1      36.695  16.299  10.809  0.00  0.00    -0.201 OA
ENDROOT
BRANCH   1   4
HETATM    4  N   UNK N   1      35.359  14.471  12.136  0.00  0.00    -0.300 N 
HETATM    5  H   UNK N   1      34.829  14.900  12.894  0.00  0.00     0.173 HD
BRANCH   4   6
HETATM    6  C   UNK N   1      35.997  13.150  12.205  0.00  0.00     0.191 C 
BRANCH   6   7
HETATM    7  C   UNK N   1      35.001  12.053  11.928  0.00  0.00     0.164 C 
HETATM    8  O   UNK N   1      34.833  11.144  12.726  0.00  0.00    -0.648 OA
BRANCH   7   9
HETATM    9  O   UNK N   1      34.270  12.086  10.797  0.00  0.00    -0.775 OA
HETATM   10  H   UNK N   1      34.382  11.522  10.057  0.00  0.00     0.167 HD
ENDBRANCH   7   9
ENDBRANCH   6   7
BRANCH   6  11
HETATM   11  C   UNK N   1      36.655  12.989  13.576  0.00  0.00     0.040 C 
BRANCH  11  12
HETATM   12  C   UNK N   1      36.008  13.845  14.660  0.00  0.00    -0.020 C 
HETATM   13  C   UNK N   1      37.087  14.594  15.411  0.00  0.00     0.009 C 
HETATM   14  C   UNK N   1      35.239  12.974  15.633  0.00  0.00     0.009 C 
ENDBRANCH  11  12
ENDBRANCH   6  11
ENDBRANCH   4   6
ENDBRANCH   1   4
BRANCH   1  15
HETATM   15  C   UNK N   1      34.189  15.841   9.705  0.00  0.00     0.079 A 
HETATM   16  C   UNK N   1      33.036  15.060   9.628  0.00  0.00     0.026 A 
HETATM   17  C   UNK N   1      31.902  15.556   8.984  0.00  0.00     0.014 A 
HETATM   18  C   UNK N   1      31.909  16.841   8.416  0.00  0.00    -0.026 A 
HETATM   19  C   UNK N   1      33.074  17.618   8.500  0.00  0.00     0.014 A 
HETATM   20  C   UNK N   1      34.208  17.118   9.142  0.00  0.00     0.026 A 
BRANCH  18  21
HETATM   21  C   UNK N   1      30.704  17.363   7.731  0.00  0.00    -0.026 A 
HETATM   22  C   UNK N   1      30.499  17.104   6.367  0.00  0.00     0.012 A 
HETATM   23  C   UNK N   1      29.370  17.606   5.713  0.00  0.00     0.001 A 
HETATM   24  C   UNK N   1      28.435  18.366   6.418  0.00  0.00     0.000 A 
HETATM   25  C   UNK N   1      28.627  18.626   7.777  0.00  0.00     0.001 A 
HETATM   26  C   UNK N   1      29.758  18.129   8.432  0.00  0.00     0.012 A 
ENDBRANCH  18  21
ENDBRANCH   1  15
TORSDOF 8
ENDMDL
