REMARK  12 active torsions:
REMARK  status: ('A' for Active; 'I' for Inactive)
REMARK    1  A    between atoms: P_2  and  O_1 
REMARK    2  A    between atoms: P_2  and  C_4 
REMARK    3  A    between atoms: P_2  and  C_14 
REMARK    4  A    between atoms: C_4  and  C_5 
REMARK    5  A    between atoms: C_4  and  N_13 
REMARK    6  A    between atoms: C_5  and  C_6 
REMARK    7  A    between atoms: C_6  and  C_7 
REMARK    8  A    between atoms: C_14  and  C_15 
REMARK    9  A    between atoms: C_15  and  C_16 
REMARK   10  A    between atoms: C_15  and  C_19 
REMARK   11  A    between atoms: C_16  and  O_18 
REMARK   12  A    between atoms: C_19  and  C_20 
ROOT
HETATM    1  P   UNK N   1      -0.696   0.060   0.503  0.00  0.00     0.121 P 
HETATM    2  O   UNK N   1      -1.342   1.386   0.978  0.00  0.00    -0.672 OA
ENDROOT
BRANCH   1   3
HETATM    3  O   UNK N   1       0.149  -0.252   1.983  0.00  0.00    -0.348 OA
HETATM    4  H   UNK N   1       0.234  -0.749   2.811  0.00  0.00     0.218 HD
ENDBRANCH   1   3
BRANCH   1   5
HETATM    5  C   UNK N   1      -2.032  -1.266   0.601  0.00  0.00     0.158 C 
BRANCH   5   6
HETATM    6  C   UNK N   1      -3.454  -0.707   0.720  0.00  0.00     0.039 C 
BRANCH   6   7
HETATM    7  C   UNK N   1      -3.971  -0.028  -0.540  0.00  0.00     0.041 C 
BRANCH   7   8
HETATM    8  C   UNK N   1      -4.562   1.296  -0.189  0.00  0.00    -0.058 A 
HETATM    9  C   UNK N   1      -5.921   1.413   0.131  0.00  0.00     0.007 A 
HETATM   10  C   UNK N   1      -6.453   2.664   0.468  0.00  0.00     0.001 A 
HETATM   11  C   UNK N   1      -5.628   3.794   0.489  0.00  0.00     0.000 A 
HETATM   12  C   UNK N   1      -4.274   3.676   0.166  0.00  0.00     0.001 A 
HETATM   13  C   UNK N   1      -3.746   2.430  -0.176  0.00  0.00     0.007 A 
ENDBRANCH   7   8
ENDBRANCH   6   7
ENDBRANCH   5   6
BRANCH   5  14
HETATM   14  N   UNK N   1      -1.925  -2.212  -0.495  0.00  0.00    -0.418 N 
HETATM   15  H   UNK N   1      -2.462  -2.610  -1.266  0.00  0.00     0.150 HD
HETATM   16  H   UNK N   1      -0.989  -2.619  -0.495  0.00  0.00     0.150 HD
ENDBRANCH   5  14
ENDBRANCH   1   5
BRANCH   1  17
HETATM   17  C   UNK N   1       0.708   0.567  -0.656  0.00  0.00     0.111 C 
BRANCH  17  18
HETATM   18  C   UNK N   1       1.998  -0.238  -0.444  0.00  0.00     0.097 C 
BRANCH  18  19
HETATM   19  C   UNK N   1       2.015  -1.482  -1.298  0.00  0.00     0.144 C 
HETATM   20  O   UNK N   1       2.891  -1.667  -2.123  0.00  0.00    -0.650 OA
BRANCH  19  21
HETATM   21  O   UNK N   1       1.058  -2.415  -1.126  0.00  0.00    -0.776 OA
HETATM   22  H   UNK N   1       0.163  -2.164  -1.006  0.00  0.00     0.167 HD
ENDBRANCH  19  21
ENDBRANCH  18  19
BRANCH  18  23
HETATM   23  C   UNK N   1       3.216   0.677  -0.680  0.00  0.00     0.054 C 
BRANCH  23  24
HETATM   24  C   UNK N   1       4.507   0.028  -0.253  0.00  0.00    -0.057 A 
HETATM   25  C   UNK N   1       5.570  -0.081  -1.157  0.00  0.00     0.007 A 
HETATM   26  C   UNK N   1       6.760  -0.707  -0.769  0.00  0.00     0.001 A 
HETATM   27  C   UNK N   1       6.888  -1.233   0.521  0.00  0.00     0.000 A 
HETATM   28  C   UNK N   1       5.832  -1.121   1.428  0.00  0.00     0.001 A 
HETATM   29  C   UNK N   1       4.648  -0.487   1.045  0.00  0.00     0.007 A 
ENDBRANCH  23  24
ENDBRANCH  18  23
ENDBRANCH  17  18
ENDBRANCH   1  17
TORSDOF 12
