MODEL 1
REMARK VINA RESULT:      -7.4      0.000      0.000
REMARK  12 active torsions:
REMARK  status: ('A' for Active; 'I' for Inactive)
REMARK    1  A    between atoms: P_2  and  O_1 
REMARK    2  A    between atoms: P_2  and  C_4 
REMARK    3  A    between atoms: P_2  and  C_14 
REMARK    4  A    between atoms: C_4  and  C_5 
REMARK    5  A    between atoms: C_4  and  N_13 
REMARK    6  A    between atoms: C_5  and  C_6 
REMARK    7  A    between atoms: C_6  and  C_7 
REMARK    8  A    between atoms: C_14  and  C_15 
REMARK    9  A    between atoms: C_15  and  C_16 
REMARK   10  A    between atoms: C_15  and  C_19 
REMARK   11  A    between atoms: C_16  and  O_18 
REMARK   12  A    between atoms: C_19  and  C_20 
ROOT
HETATM    1  P   UNK N   1      34.220  14.819  10.238  0.00  0.00     0.121 P 
HETATM    2  O   UNK N   1      34.104  13.278  10.121  0.00  0.00    -0.672 OA
ENDROOT
BRANCH   1   3
HETATM    3  O   UNK N   1      32.696  15.041  11.031  0.00  0.00    -0.348 OA
HETATM    4  H   UNK N   1      31.734  15.148  10.983  0.00  0.00     0.218 HD
ENDBRANCH   1   3
BRANCH   1   5
HETATM    5  C   UNK N   1      35.392  15.173  11.672  0.00  0.00     0.158 C 
BRANCH   5   6
HETATM    6  C   UNK N   1      35.569  13.993  12.634  0.00  0.00     0.039 C 
BRANCH   6   7
HETATM    7  C   UNK N   1      36.407  14.306  13.866  0.00  0.00     0.041 C 
BRANCH   7   8
HETATM    8  C   UNK N   1      36.291  13.188  14.847  0.00  0.00    -0.058 A 
HETATM    9  C   UNK N   1      35.469  13.307  15.976  0.00  0.00     0.007 A 
HETATM   10  C   UNK N   1      35.367  12.241  16.879  0.00  0.00     0.001 A 
HETATM   11  C   UNK N   1      36.081  11.059  16.652  0.00  0.00     0.000 A 
HETATM   12  C   UNK N   1      36.902  10.944  15.528  0.00  0.00     0.001 A 
HETATM   13  C   UNK N   1      37.009  12.009  14.632  0.00  0.00     0.007 A 
ENDBRANCH   7   8
ENDBRANCH   6   7
ENDBRANCH   5   6
BRANCH   5  14
HETATM   14  N   UNK N   1      36.672  15.671  11.203  0.00  0.00    -0.418 N 
HETATM   15  H   UNK N   1      37.532  15.367  10.745  0.00  0.00     0.150 HD
HETATM   16  H   UNK N   1      36.733  16.671  11.398  0.00  0.00     0.150 HD
ENDBRANCH   5  14
ENDBRANCH   1   5
BRANCH   1  17
HETATM   17  C   UNK N   1      33.867  15.487   8.506  0.00  0.00     0.111 C 
BRANCH  17  18
HETATM   18  C   UNK N   1      33.366  16.938   8.499  0.00  0.00     0.097 C 
BRANCH  18  19
HETATM   19  C   UNK N   1      34.515  17.914   8.437  0.00  0.00     0.144 C 
HETATM   20  O   UNK N   1      34.732  18.568   7.433  0.00  0.00    -0.650 OA
BRANCH  19  21
HETATM   21  O   UNK N   1      35.299  18.083   9.520  0.00  0.00    -0.776 OA
HETATM   22  H   UNK N   1      35.288  18.890   9.996  0.00  0.00     0.167 HD
ENDBRANCH  19  21
ENDBRANCH  18  19
BRANCH  18  23
HETATM   23  C   UNK N   1      32.350  17.123   7.355  0.00  0.00     0.054 C 
BRANCH  23  24
HETATM   24  C   UNK N   1      30.982  17.497   7.863  0.00  0.00    -0.057 A 
HETATM   25  C   UNK N   1      30.851  18.253   9.034  0.00  0.00     0.007 A 
HETATM   26  C   UNK N   1      29.580  18.578   9.521  0.00  0.00     0.001 A 
HETATM   27  C   UNK N   1      28.436  18.143   8.843  0.00  0.00     0.000 A 
HETATM   28  C   UNK N   1      28.563  17.394   7.671  0.00  0.00     0.001 A 
HETATM   29  C   UNK N   1      29.831  17.078   7.179  0.00  0.00     0.007 A 
ENDBRANCH  23  24
ENDBRANCH  18  23
ENDBRANCH  17  18
ENDBRANCH   1  17
TORSDOF 12
ENDMDL
MODEL 2
REMARK VINA RESULT:      -7.2     13.621     15.477
REMARK  12 active torsions:
REMARK  status: ('A' for Active; 'I' for Inactive)
REMARK    1  A    between atoms: P_2  and  O_1 
REMARK    2  A    between atoms: P_2  and  C_4 
REMARK    3  A    between atoms: P_2  and  C_14 
REMARK    4  A    between atoms: C_4  and  C_5 
REMARK    5  A    between atoms: C_4  and  N_13 
REMARK    6  A    between atoms: C_5  and  C_6 
REMARK    7  A    between atoms: C_6  and  C_7 
REMARK    8  A    between atoms: C_14  and  C_15 
REMARK    9  A    between atoms: C_15  and  C_16 
REMARK   10  A    between atoms: C_15  and  C_19 
REMARK   11  A    between atoms: C_16  and  O_18 
REMARK   12  A    between atoms: C_19  and  C_20 
ROOT
HETATM    1  P   UNK N   1      19.847  16.921   1.003  0.00  0.00     0.121 P 
HETATM    2  O   UNK N   1      20.596  17.395  -0.268  0.00  0.00    -0.672 OA
ENDROOT
BRANCH   1   3
HETATM    3  O   UNK N   1      18.262  17.023   0.310  0.00  0.00    -0.348 OA
HETATM    4  H   UNK N   1      17.638  16.786  -0.393  0.00  0.00     0.218 HD
ENDBRANCH   1   3
BRANCH   1   5
HETATM    5  C   UNK N   1      20.047  15.048   1.090  0.00  0.00     0.158 C 
BRANCH   5   6
HETATM    6  C   UNK N   1      20.962  14.574   2.225  0.00  0.00     0.039 C 
BRANCH   6   7
HETATM    7  C   UNK N   1      21.977  15.609   2.689  0.00  0.00     0.041 C 
BRANCH   7   8
HETATM    8  C   UNK N   1      22.009  15.645   4.180  0.00  0.00    -0.058 A 
HETATM    9  C   UNK N   1      20.983  16.265   4.905  0.00  0.00     0.007 A 
HETATM   10  C   UNK N   1      21.028  16.278   6.305  0.00  0.00     0.001 A 
HETATM   11  C   UNK N   1      22.093  15.670   6.978  0.00  0.00     0.000 A 
HETATM   12  C   UNK N   1      23.117  15.055   6.253  0.00  0.00     0.001 A 
HETATM   13  C   UNK N   1      23.075  15.048   4.858  0.00  0.00     0.007 A 
ENDBRANCH   7   8
ENDBRANCH   6   7
ENDBRANCH   5   6
BRANCH   5  14
HETATM   14  N   UNK N   1      18.761  14.376   1.132  0.00  0.00    -0.418 N 
HETATM   15  H   UNK N   1      18.035  14.074   1.781  0.00  0.00     0.150 HD
HETATM   16  H   UNK N   1      18.489  14.117   0.183  0.00  0.00     0.150 HD
ENDBRANCH   5  14
ENDBRANCH   1   5
BRANCH   1  17
HETATM   17  C   UNK N   1      19.861  18.399   2.181  0.00  0.00     0.111 C 
BRANCH  17  18
HETATM   18  C   UNK N   1      21.098  19.294   2.025  0.00  0.00     0.097 C 
BRANCH  18  19
HETATM   19  C   UNK N   1      20.801  20.495   1.160  0.00  0.00     0.144 C 
HETATM   20  O   UNK N   1      20.756  21.616   1.633  0.00  0.00    -0.650 OA
BRANCH  19  21
HETATM   21  O   UNK N   1      20.606  20.325  -0.163  0.00  0.00    -0.776 OA
HETATM   22  H   UNK N   1      21.225  20.659  -0.783  0.00  0.00     0.167 HD
ENDBRANCH  19  21
ENDBRANCH  18  19
BRANCH  18  23
HETATM   23  C   UNK N   1      21.636  19.669   3.420  0.00  0.00     0.054 C 
BRANCH  23  24
HETATM   24  C   UNK N   1      23.140  19.594   3.489  0.00  0.00    -0.057 A 
HETATM   25  C   UNK N   1      23.758  18.624   4.286  0.00  0.00     0.007 A 
HETATM   26  C   UNK N   1      25.153  18.570   4.371  0.00  0.00     0.001 A 
HETATM   27  C   UNK N   1      25.935  19.491   3.666  0.00  0.00     0.000 A 
HETATM   28  C   UNK N   1      25.323  20.457   2.864  0.00  0.00     0.001 A 
HETATM   29  C   UNK N   1      23.930  20.505   2.770  0.00  0.00     0.007 A 
ENDBRANCH  23  24
ENDBRANCH  18  23
ENDBRANCH  17  18
ENDBRANCH   1  17
TORSDOF 12
ENDMDL
MODEL 3
REMARK VINA RESULT:      -7.2      2.190      3.566
REMARK  12 active torsions:
REMARK  status: ('A' for Active; 'I' for Inactive)
REMARK    1  A    between atoms: P_2  and  O_1 
REMARK    2  A    between atoms: P_2  and  C_4 
REMARK    3  A    between atoms: P_2  and  C_14 
REMARK    4  A    between atoms: C_4  and  C_5 
REMARK    5  A    between atoms: C_4  and  N_13 
REMARK    6  A    between atoms: C_5  and  C_6 
REMARK    7  A    between atoms: C_6  and  C_7 
REMARK    8  A    between atoms: C_14  and  C_15 
REMARK    9  A    between atoms: C_15  and  C_16 
REMARK   10  A    between atoms: C_15  and  C_19 
REMARK   11  A    between atoms: C_16  and  O_18 
REMARK   12  A    between atoms: C_19  and  C_20 
ROOT
HETATM    1  P   UNK N   1      34.961  15.311  10.503  0.00  0.00     0.121 P 
HETATM    2  O   UNK N   1      34.862  14.176   9.453  0.00  0.00    -0.672 OA
ENDROOT
BRANCH   1   3
HETATM    3  O   UNK N   1      33.444  14.964  11.265  0.00  0.00    -0.348 OA
HETATM    4  H   UNK N   1      32.511  15.182  11.414  0.00  0.00     0.218 HD
ENDBRANCH   1   3
BRANCH   1   5
HETATM    5  C   UNK N   1      36.146  14.715  11.843  0.00  0.00     0.158 C 
BRANCH   5   6
HETATM    6  C   UNK N   1      35.477  13.873  12.935  0.00  0.00     0.039 C 
BRANCH   6   7
HETATM    7  C   UNK N   1      36.448  13.174  13.874  0.00  0.00     0.041 C 
BRANCH   7   8
HETATM    8  C   UNK N   1      36.355  13.781  15.234  0.00  0.00    -0.058 A 
HETATM    9  C   UNK N   1      37.146  14.884  15.582  0.00  0.00     0.007 A 
HETATM   10  C   UNK N   1      37.036  15.445  16.861  0.00  0.00     0.001 A 
HETATM   11  C   UNK N   1      36.134  14.908  17.786  0.00  0.00     0.000 A 
HETATM   12  C   UNK N   1      35.349  13.806  17.438  0.00  0.00     0.001 A 
HETATM   13  C   UNK N   1      35.465  13.243  16.166  0.00  0.00     0.007 A 
ENDBRANCH   7   8
ENDBRANCH   6   7
ENDBRANCH   5   6
BRANCH   5  14
HETATM   14  N   UNK N   1      37.292  14.030  11.274  0.00  0.00    -0.418 N 
HETATM   15  H   UNK N   1      37.791  13.140  11.305  0.00  0.00     0.150 HD
HETATM   16  H   UNK N   1      37.760  14.652  10.614  0.00  0.00     0.150 HD
ENDBRANCH   5  14
ENDBRANCH   1   5
BRANCH   1  17
HETATM   17  C   UNK N   1      34.578  16.905   9.564  0.00  0.00     0.111 C 
BRANCH  17  18
HETATM   18  C   UNK N   1      33.672  16.694   8.343  0.00  0.00     0.097 C 
BRANCH  18  19
HETATM   19  C   UNK N   1      32.225  16.957   8.681  0.00  0.00     0.144 C 
HETATM   20  O   UNK N   1      31.678  17.992   8.345  0.00  0.00    -0.650 OA
BRANCH  19  21
HETATM   21  O   UNK N   1      31.520  16.019   9.344  0.00  0.00    -0.776 OA
HETATM   22  H   UNK N   1      31.066  15.345   8.877  0.00  0.00     0.167 HD
ENDBRANCH  19  21
ENDBRANCH  18  19
BRANCH  18  23
HETATM   23  C   UNK N   1      34.187  17.551   7.170  0.00  0.00     0.054 C 
BRANCH  23  24
HETATM   24  C   UNK N   1      33.833  16.957   5.832  0.00  0.00    -0.057 A 
HETATM   25  C   UNK N   1      34.290  15.679   5.489  0.00  0.00     0.007 A 
HETATM   26  C   UNK N   1      33.983  15.137   4.235  0.00  0.00     0.001 A 
HETATM   27  C   UNK N   1      33.226  15.874   3.318  0.00  0.00     0.000 A 
HETATM   28  C   UNK N   1      32.764  17.147   3.659  0.00  0.00     0.001 A 
HETATM   29  C   UNK N   1      33.060  17.684   4.913  0.00  0.00     0.007 A 
ENDBRANCH  23  24
ENDBRANCH  18  23
ENDBRANCH  17  18
ENDBRANCH   1  17
TORSDOF 12
ENDMDL
MODEL 4
REMARK VINA RESULT:      -7.1      2.117      3.363
REMARK  12 active torsions:
REMARK  status: ('A' for Active; 'I' for Inactive)
REMARK    1  A    between atoms: P_2  and  O_1 
REMARK    2  A    between atoms: P_2  and  C_4 
REMARK    3  A    between atoms: P_2  and  C_14 
REMARK    4  A    between atoms: C_4  and  C_5 
REMARK    5  A    between atoms: C_4  and  N_13 
REMARK    6  A    between atoms: C_5  and  C_6 
REMARK    7  A    between atoms: C_6  and  C_7 
REMARK    8  A    between atoms: C_14  and  C_15 
REMARK    9  A    between atoms: C_15  and  C_16 
REMARK   10  A    between atoms: C_15  and  C_19 
REMARK   11  A    between atoms: C_16  and  O_18 
REMARK   12  A    between atoms: C_19  and  C_20 
ROOT
HETATM    1  P   UNK N   1      35.921  12.957  11.900  0.00  0.00     0.121 P 
HETATM    2  O   UNK N   1      36.607  11.568  11.937  0.00  0.00    -0.672 OA
ENDROOT
BRANCH   1   3
HETATM    3  O   UNK N   1      34.301  12.342  11.876  0.00  0.00    -0.348 OA
HETATM    4  H   UNK N   1      33.536  12.017  11.379  0.00  0.00     0.218 HD
ENDBRANCH   1   3
BRANCH   1   5
HETATM    5  C   UNK N   1      35.985  13.646  13.654  0.00  0.00     0.158 C 
BRANCH   5   6
HETATM    6  C   UNK N   1      36.500  12.647  14.695  0.00  0.00     0.039 C 
BRANCH   6   7
HETATM    7  C   UNK N   1      35.420  11.777  15.321  0.00  0.00     0.041 C 
BRANCH   7   8
HETATM    8  C   UNK N   1      35.382  12.008  16.794  0.00  0.00    -0.058 A 
HETATM    9  C   UNK N   1      35.567  10.948  17.691  0.00  0.00     0.007 A 
HETATM   10  C   UNK N   1      35.539  11.189  19.071  0.00  0.00     0.001 A 
HETATM   11  C   UNK N   1      35.329  12.486  19.552  0.00  0.00     0.000 A 
HETATM   12  C   UNK N   1      35.141  13.541  18.656  0.00  0.00     0.001 A 
HETATM   13  C   UNK N   1      35.163  13.299  17.281  0.00  0.00     0.007 A 
ENDBRANCH   7   8
ENDBRANCH   6   7
ENDBRANCH   5   6
BRANCH   5  14
HETATM   14  N   UNK N   1      36.723  14.895  13.708  0.00  0.00    -0.418 N 
HETATM   15  H   UNK N   1      37.673  15.264  13.767  0.00  0.00     0.150 HD
HETATM   16  H   UNK N   1      36.064  15.674  13.675  0.00  0.00     0.150 HD
ENDBRANCH   5  14
ENDBRANCH   1   5
BRANCH   1  17
HETATM   17  C   UNK N   1      36.134  13.581  10.129  0.00  0.00     0.111 C 
BRANCH  17  18
HETATM   18  C   UNK N   1      35.306  14.836   9.818  0.00  0.00     0.097 C 
BRANCH  18  19
HETATM   19  C   UNK N   1      35.839  16.042  10.552  0.00  0.00     0.144 C 
HETATM   20  O   UNK N   1      35.101  16.947  10.895  0.00  0.00    -0.650 OA
BRANCH  19  21
HETATM   21  O   UNK N   1      37.151  16.104  10.855  0.00  0.00    -0.776 OA
HETATM   22  H   UNK N   1      37.430  16.241  11.739  0.00  0.00     0.167 HD
ENDBRANCH  19  21
ENDBRANCH  18  19
BRANCH  18  23
HETATM   23  C   UNK N   1      35.236  15.037   8.291  0.00  0.00     0.054 C 
BRANCH  23  24
HETATM   24  C   UNK N   1      34.003  15.794   7.872  0.00  0.00    -0.057 A 
HETATM   25  C   UNK N   1      34.087  16.777   6.878  0.00  0.00     0.007 A 
HETATM   26  C   UNK N   1      32.948  17.499   6.507  0.00  0.00     0.001 A 
HETATM   27  C   UNK N   1      31.722  17.247   7.134  0.00  0.00     0.000 A 
HETATM   28  C   UNK N   1      31.633  16.264   8.121  0.00  0.00     0.001 A 
HETATM   29  C   UNK N   1      32.767  15.535   8.485  0.00  0.00     0.007 A 
ENDBRANCH  23  24
ENDBRANCH  18  23
ENDBRANCH  17  18
ENDBRANCH   1  17
TORSDOF 12
ENDMDL
MODEL 5
REMARK VINA RESULT:      -7.0      5.667      8.693
REMARK  12 active torsions:
REMARK  status: ('A' for Active; 'I' for Inactive)
REMARK    1  A    between atoms: P_2  and  O_1 
REMARK    2  A    between atoms: P_2  and  C_4 
REMARK    3  A    between atoms: P_2  and  C_14 
REMARK    4  A    between atoms: C_4  and  C_5 
REMARK    5  A    between atoms: C_4  and  N_13 
REMARK    6  A    between atoms: C_5  and  C_6 
REMARK    7  A    between atoms: C_6  and  C_7 
REMARK    8  A    between atoms: C_14  and  C_15 
REMARK    9  A    between atoms: C_15  and  C_16 
REMARK   10  A    between atoms: C_15  and  C_19 
REMARK   11  A    between atoms: C_16  and  O_18 
REMARK   12  A    between atoms: C_19  and  C_20 
ROOT
HETATM    1  P   UNK N   1      30.106  17.613   8.950  0.00  0.00     0.121 P 
HETATM    2  O   UNK N   1      30.504  19.030   9.434  0.00  0.00    -0.672 OA
ENDROOT
BRANCH   1   3
HETATM    3  O   UNK N   1      29.412  17.112  10.456  0.00  0.00    -0.348 OA
HETATM    4  H   UNK N   1      29.477  17.015  11.419  0.00  0.00     0.218 HD
ENDBRANCH   1   3
BRANCH   1   5
HETATM    5  C   UNK N   1      28.543  17.806   7.915  0.00  0.00     0.158 C 
BRANCH   5   6
HETATM    6  C   UNK N   1      28.743  17.505   6.426  0.00  0.00     0.039 C 
BRANCH   6   7
HETATM    7  C   UNK N   1      27.888  16.365   5.894  0.00  0.00     0.041 C 
BRANCH   7   8
HETATM    8  C   UNK N   1      28.658  15.593   4.876  0.00  0.00    -0.058 A 
HETATM    9  C   UNK N   1      29.482  14.526   5.257  0.00  0.00     0.007 A 
HETATM   10  C   UNK N   1      30.188  13.808   4.283  0.00  0.00     0.001 A 
HETATM   11  C   UNK N   1      30.068  14.153   2.933  0.00  0.00     0.000 A 
HETATM   12  C   UNK N   1      29.249  15.220   2.555  0.00  0.00     0.001 A 
HETATM   13  C   UNK N   1      28.550  15.939   3.526  0.00  0.00     0.007 A 
ENDBRANCH   7   8
ENDBRANCH   6   7
ENDBRANCH   5   6
BRANCH   5  14
HETATM   14  N   UNK N   1      27.441  17.040   8.467  0.00  0.00    -0.418 N 
HETATM   15  H   UNK N   1      26.563  17.150   8.976  0.00  0.00     0.150 HD
HETATM   16  H   UNK N   1      27.596  16.049   8.279  0.00  0.00     0.150 HD
ENDBRANCH   5  14
ENDBRANCH   1   5
BRANCH   1  17
HETATM   17  C   UNK N   1      31.715  16.622   8.907  0.00  0.00     0.111 C 
BRANCH  17  18
HETATM   18  C   UNK N   1      32.669  17.052   7.782  0.00  0.00     0.097 C 
BRANCH  18  19
HETATM   19  C   UNK N   1      33.940  17.646   8.338  0.00  0.00     0.144 C 
HETATM   20  O   UNK N   1      34.658  18.349   7.652  0.00  0.00    -0.650 OA
BRANCH  19  21
HETATM   21  O   UNK N   1      34.271  17.414   9.624  0.00  0.00    -0.776 OA
HETATM   22  H   UNK N   1      34.832  18.005  10.086  0.00  0.00     0.167 HD
ENDBRANCH  19  21
ENDBRANCH  18  19
BRANCH  18  23
HETATM   23  C   UNK N   1      32.918  15.858   6.840  0.00  0.00     0.054 C 
BRANCH  23  24
HETATM   24  C   UNK N   1      32.802  16.245   5.388  0.00  0.00    -0.057 A 
HETATM   25  C   UNK N   1      31.994  17.323   5.012  0.00  0.00     0.007 A 
HETATM   26  C   UNK N   1      31.865  17.666   3.661  0.00  0.00     0.001 A 
HETATM   27  C   UNK N   1      32.538  16.928   2.682  0.00  0.00     0.000 A 
HETATM   28  C   UNK N   1      33.351  15.854   3.054  0.00  0.00     0.001 A 
HETATM   29  C   UNK N   1      33.488  15.518   4.402  0.00  0.00     0.007 A 
ENDBRANCH  23  24
ENDBRANCH  18  23
ENDBRANCH  17  18
ENDBRANCH   1  17
TORSDOF 12
ENDMDL
MODEL 6
REMARK VINA RESULT:      -6.9      1.227      1.604
REMARK  12 active torsions:
REMARK  status: ('A' for Active; 'I' for Inactive)
REMARK    1  A    between atoms: P_2  and  O_1 
REMARK    2  A    between atoms: P_2  and  C_4 
REMARK    3  A    between atoms: P_2  and  C_14 
REMARK    4  A    between atoms: C_4  and  C_5 
REMARK    5  A    between atoms: C_4  and  N_13 
REMARK    6  A    between atoms: C_5  and  C_6 
REMARK    7  A    between atoms: C_6  and  C_7 
REMARK    8  A    between atoms: C_14  and  C_15 
REMARK    9  A    between atoms: C_15  and  C_16 
REMARK   10  A    between atoms: C_15  and  C_19 
REMARK   11  A    between atoms: C_16  and  O_18 
REMARK   12  A    between atoms: C_19  and  C_20 
ROOT
HETATM    1  P   UNK N   1      33.626  14.206   9.363  0.00  0.00     0.121 P 
HETATM    2  O   UNK N   1      32.531  13.204   8.919  0.00  0.00    -0.672 OA
ENDROOT
BRANCH   1   3
HETATM    3  O   UNK N   1      32.623  15.060  10.489  0.00  0.00    -0.348 OA
HETATM    4  H   UNK N   1      32.522  15.735  11.177  0.00  0.00     0.218 HD
ENDBRANCH   1   3
BRANCH   1   5
HETATM    5  C   UNK N   1      34.756  13.288  10.560  0.00  0.00     0.158 C 
BRANCH   5   6
HETATM    6  C   UNK N   1      35.082  14.075  11.834  0.00  0.00     0.039 C 
BRANCH   6   7
HETATM    7  C   UNK N   1      36.478  13.827  12.388  0.00  0.00     0.041 C 
BRANCH   7   8
HETATM    8  C   UNK N   1      36.383  13.032  13.646  0.00  0.00    -0.058 A 
HETATM    9  C   UNK N   1      35.468  13.380  14.648  0.00  0.00     0.007 A 
HETATM   10  C   UNK N   1      35.388  12.614  15.817  0.00  0.00     0.001 A 
HETATM   11  C   UNK N   1      36.219  11.500  15.983  0.00  0.00     0.000 A 
HETATM   12  C   UNK N   1      37.134  11.157  14.985  0.00  0.00     0.001 A 
HETATM   13  C   UNK N   1      37.217  11.925  13.823  0.00  0.00     0.007 A 
ENDBRANCH   7   8
ENDBRANCH   6   7
ENDBRANCH   5   6
BRANCH   5  14
HETATM   14  N   UNK N   1      34.240  11.967  10.872  0.00  0.00    -0.418 N 
HETATM   15  H   UNK N   1      33.943  11.097  10.429  0.00  0.00     0.150 HD
HETATM   16  H   UNK N   1      34.142  11.876  11.884  0.00  0.00     0.150 HD
ENDBRANCH   5  14
ENDBRANCH   1   5
BRANCH   1  17
HETATM   17  C   UNK N   1      33.781  15.449   7.948  0.00  0.00     0.111 C 
BRANCH  17  18
HETATM   18  C   UNK N   1      33.308  16.862   8.319  0.00  0.00     0.097 C 
BRANCH  18  19
HETATM   19  C   UNK N   1      34.473  17.807   8.475  0.00  0.00     0.144 C 
HETATM   20  O   UNK N   1      34.760  18.603   7.600  0.00  0.00    -0.650 OA
BRANCH  19  21
HETATM   21  O   UNK N   1      35.192  17.786   9.615  0.00  0.00    -0.776 OA
HETATM   22  H   UNK N   1      34.852  18.167  10.401  0.00  0.00     0.167 HD
ENDBRANCH  19  21
ENDBRANCH  18  19
BRANCH  18  23
HETATM   23  C   UNK N   1      32.272  17.342   7.283  0.00  0.00     0.054 C 
BRANCH  23  24
HETATM   24  C   UNK N   1      30.917  17.577   7.899  0.00  0.00    -0.057 A 
HETATM   25  C   UNK N   1      29.769  17.057   7.290  0.00  0.00     0.007 A 
HETATM   26  C   UNK N   1      28.508  17.297   7.848  0.00  0.00     0.001 A 
HETATM   27  C   UNK N   1      28.391  18.065   9.012  0.00  0.00     0.000 A 
HETATM   28  C   UNK N   1      29.534  18.580   9.626  0.00  0.00     0.001 A 
HETATM   29  C   UNK N   1      30.793  18.332   9.076  0.00  0.00     0.007 A 
ENDBRANCH  23  24
ENDBRANCH  18  23
ENDBRANCH  17  18
ENDBRANCH   1  17
TORSDOF 12
ENDMDL
MODEL 7
REMARK VINA RESULT:      -6.9      2.343      3.470
REMARK  12 active torsions:
REMARK  status: ('A' for Active; 'I' for Inactive)
REMARK    1  A    between atoms: P_2  and  O_1 
REMARK    2  A    between atoms: P_2  and  C_4 
REMARK    3  A    between atoms: P_2  and  C_14 
REMARK    4  A    between atoms: C_4  and  C_5 
REMARK    5  A    between atoms: C_4  and  N_13 
REMARK    6  A    between atoms: C_5  and  C_6 
REMARK    7  A    between atoms: C_6  and  C_7 
REMARK    8  A    between atoms: C_14  and  C_15 
REMARK    9  A    between atoms: C_15  and  C_16 
REMARK   10  A    between atoms: C_15  and  C_19 
REMARK   11  A    between atoms: C_16  and  O_18 
REMARK   12  A    between atoms: C_19  and  C_20 
ROOT
HETATM    1  P   UNK N   1      34.601  15.439  10.266  0.00  0.00     0.121 P 
HETATM    2  O   UNK N   1      34.502  14.281   9.241  0.00  0.00    -0.672 OA
ENDROOT
BRANCH   1   3
HETATM    3  O   UNK N   1      33.110  15.075  11.070  0.00  0.00    -0.348 OA
HETATM    4  H   UNK N   1      32.231  14.667  11.062  0.00  0.00     0.218 HD
ENDBRANCH   1   3
BRANCH   1   5
HETATM    5  C   UNK N   1      35.829  14.897  11.588  0.00  0.00     0.158 C 
BRANCH   5   6
HETATM    6  C   UNK N   1      35.322  13.756  12.477  0.00  0.00     0.039 C 
BRANCH   6   7
HETATM    7  C   UNK N   1      35.776  13.838  13.927  0.00  0.00     0.041 C 
BRANCH   7   8
HETATM    8  C   UNK N   1      35.327  12.620  14.662  0.00  0.00    -0.058 A 
HETATM    9  C   UNK N   1      34.355  11.770  14.117  0.00  0.00     0.007 A 
HETATM   10  C   UNK N   1      33.956  10.626  14.819  0.00  0.00     0.001 A 
HETATM   11  C   UNK N   1      34.530  10.330  16.060  0.00  0.00     0.000 A 
HETATM   12  C   UNK N   1      35.496  11.180  16.604  0.00  0.00     0.001 A 
HETATM   13  C   UNK N   1      35.888  12.324  15.907  0.00  0.00     0.007 A 
ENDBRANCH   7   8
ENDBRANCH   6   7
ENDBRANCH   5   6
BRANCH   5  14
HETATM   14  N   UNK N   1      37.126  14.585  11.015  0.00  0.00    -0.418 N 
HETATM   15  H   UNK N   1      37.761  13.804  10.846  0.00  0.00     0.150 HD
HETATM   16  H   UNK N   1      37.547  15.442  10.655  0.00  0.00     0.150 HD
ENDBRANCH   5  14
ENDBRANCH   1   5
BRANCH   1  17
HETATM   17  C   UNK N   1      34.160  17.005   9.304  0.00  0.00     0.111 C 
BRANCH  17  18
HETATM   18  C   UNK N   1      33.350  16.734   8.029  0.00  0.00     0.097 C 
BRANCH  18  19
HETATM   19  C   UNK N   1      31.870  16.898   8.274  0.00  0.00     0.144 C 
HETATM   20  O   UNK N   1      31.055  16.196   7.703  0.00  0.00    -0.650 OA
BRANCH  19  21
HETATM   21  O   UNK N   1      31.445  17.822   9.159  0.00  0.00    -0.776 OA
HETATM   22  H   UNK N   1      31.515  17.666  10.081  0.00  0.00     0.167 HD
ENDBRANCH  19  21
ENDBRANCH  18  19
BRANCH  18  23
HETATM   23  C   UNK N   1      33.879  17.625   6.887  0.00  0.00     0.054 C 
BRANCH  23  24
HETATM   24  C   UNK N   1      33.650  17.008   5.532  0.00  0.00    -0.057 A 
HETATM   25  C   UNK N   1      32.887  17.685   4.573  0.00  0.00     0.007 A 
HETATM   26  C   UNK N   1      32.653  17.102   3.323  0.00  0.00     0.001 A 
HETATM   27  C   UNK N   1      33.174  15.837   3.030  0.00  0.00     0.000 A 
HETATM   28  C   UNK N   1      33.941  15.161   3.982  0.00  0.00     0.001 A 
HETATM   29  C   UNK N   1      34.184  15.747   5.226  0.00  0.00     0.007 A 
ENDBRANCH  23  24
ENDBRANCH  18  23
ENDBRANCH  17  18
ENDBRANCH   1  17
TORSDOF 12
ENDMDL
MODEL 8
REMARK VINA RESULT:      -6.8      2.688      3.934
REMARK  12 active torsions:
REMARK  status: ('A' for Active; 'I' for Inactive)
REMARK    1  A    between atoms: P_2  and  O_1 
REMARK    2  A    between atoms: P_2  and  C_4 
REMARK    3  A    between atoms: P_2  and  C_14 
REMARK    4  A    between atoms: C_4  and  C_5 
REMARK    5  A    between atoms: C_4  and  N_13 
REMARK    6  A    between atoms: C_5  and  C_6 
REMARK    7  A    between atoms: C_6  and  C_7 
REMARK    8  A    between atoms: C_14  and  C_15 
REMARK    9  A    between atoms: C_15  and  C_16 
REMARK   10  A    between atoms: C_15  and  C_19 
REMARK   11  A    between atoms: C_16  and  O_18 
REMARK   12  A    between atoms: C_19  and  C_20 
ROOT
HETATM    1  P   UNK N   1      35.233  12.520  12.126  0.00  0.00     0.121 P 
HETATM    2  O   UNK N   1      34.806  13.831  12.833  0.00  0.00    -0.672 OA
ENDROOT
BRANCH   1   3
HETATM    3  O   UNK N   1      36.904  12.629  12.570  0.00  0.00    -0.348 OA
HETATM    4  H   UNK N   1      37.821  12.839  12.337  0.00  0.00     0.218 HD
ENDBRANCH   1   3
BRANCH   1   5
HETATM    5  C   UNK N   1      34.690  11.097  13.237  0.00  0.00     0.158 C 
BRANCH   5   6
HETATM    6  C   UNK N   1      34.439  11.506  14.693  0.00  0.00     0.039 C 
BRANCH   6   7
HETATM    7  C   UNK N   1      35.311  10.783  15.709  0.00  0.00     0.041 C 
BRANCH   7   8
HETATM    8  C   UNK N   1      35.275  11.513  17.009  0.00  0.00    -0.058 A 
HETATM    9  C   UNK N   1      35.388  10.823  18.223  0.00  0.00     0.007 A 
HETATM   10  C   UNK N   1      35.363  11.529  19.432  0.00  0.00     0.001 A 
HETATM   11  C   UNK N   1      35.229  12.922  19.428  0.00  0.00     0.000 A 
HETATM   12  C   UNK N   1      35.112  13.608  18.217  0.00  0.00     0.001 A 
HETATM   13  C   UNK N   1      35.131  12.903  17.012  0.00  0.00     0.007 A 
ENDBRANCH   7   8
ENDBRANCH   6   7
ENDBRANCH   5   6
BRANCH   5  14
HETATM   14  N   UNK N   1      33.548  10.393  12.681  0.00  0.00    -0.418 N 
HETATM   15  H   UNK N   1      33.303   9.560  12.145  0.00  0.00     0.150 HD
HETATM   16  H   UNK N   1      32.696  10.909  12.904  0.00  0.00     0.150 HD
ENDBRANCH   5  14
ENDBRANCH   1   5
BRANCH   1  17
HETATM   17  C   UNK N   1      35.284  12.931  10.283  0.00  0.00     0.111 C 
BRANCH  17  18
HETATM   18  C   UNK N   1      35.374  14.437   9.994  0.00  0.00     0.097 C 
BRANCH  18  19
HETATM   19  C   UNK N   1      36.756  14.969  10.281  0.00  0.00     0.144 C 
HETATM   20  O   UNK N   1      37.750  14.326   9.999  0.00  0.00    -0.650 OA
BRANCH  19  21
HETATM   21  O   UNK N   1      36.892  16.189  10.838  0.00  0.00    -0.776 OA
HETATM   22  H   UNK N   1      36.177  16.588  11.294  0.00  0.00     0.167 HD
ENDBRANCH  19  21
ENDBRANCH  18  19
BRANCH  18  23
HETATM   23  C   UNK N   1      34.907  14.708   8.550  0.00  0.00     0.054 C 
BRANCH  23  24
HETATM   24  C   UNK N   1      33.935  15.857   8.472  0.00  0.00    -0.057 A 
HETATM   25  C   UNK N   1      32.560  15.621   8.584  0.00  0.00     0.007 A 
HETATM   26  C   UNK N   1      31.655  16.683   8.486  0.00  0.00     0.001 A 
HETATM   27  C   UNK N   1      32.121  17.984   8.268  0.00  0.00     0.000 A 
HETATM   28  C   UNK N   1      33.493  18.225   8.162  0.00  0.00     0.001 A 
HETATM   29  C   UNK N   1      34.397  17.166   8.270  0.00  0.00     0.007 A 
ENDBRANCH  23  24
ENDBRANCH  18  23
ENDBRANCH  17  18
ENDBRANCH   1  17
TORSDOF 12
ENDMDL
MODEL 9
REMARK VINA RESULT:      -6.8     18.103     21.087
REMARK  12 active torsions:
REMARK  status: ('A' for Active; 'I' for Inactive)
REMARK    1  A    between atoms: P_2  and  O_1 
REMARK    2  A    between atoms: P_2  and  C_4 
REMARK    3  A    between atoms: P_2  and  C_14 
REMARK    4  A    between atoms: C_4  and  C_5 
REMARK    5  A    between atoms: C_4  and  N_13 
REMARK    6  A    between atoms: C_5  and  C_6 
REMARK    7  A    between atoms: C_6  and  C_7 
REMARK    8  A    between atoms: C_14  and  C_15 
REMARK    9  A    between atoms: C_15  and  C_16 
REMARK   10  A    between atoms: C_15  and  C_19 
REMARK   11  A    between atoms: C_16  and  O_18 
REMARK   12  A    between atoms: C_19  and  C_20 
ROOT
HETATM    1  P   UNK N   1      27.658  24.674  -3.738  0.00  0.00     0.121 P 
HETATM    2  O   UNK N   1      27.081  23.867  -4.928  0.00  0.00    -0.672 OA
ENDROOT
BRANCH   1   3
HETATM    3  O   UNK N   1      26.928  23.700  -2.506  0.00  0.00    -0.348 OA
HETATM    4  H   UNK N   1      26.161  23.482  -1.955  0.00  0.00     0.218 HD
ENDBRANCH   1   3
BRANCH   1   5
HETATM    5  C   UNK N   1      29.459  24.153  -3.546  0.00  0.00     0.158 C 
BRANCH   5   6
HETATM    6  C   UNK N   1      30.454  25.317  -3.620  0.00  0.00     0.039 C 
BRANCH   6   7
HETATM    7  C   UNK N   1      30.135  26.350  -4.692  0.00  0.00     0.041 C 
BRANCH   7   8
HETATM    8  C   UNK N   1      30.665  27.681  -4.277  0.00  0.00    -0.058 A 
HETATM    9  C   UNK N   1      31.663  28.320  -5.023  0.00  0.00     0.007 A 
HETATM   10  C   UNK N   1      32.139  29.575  -4.622  0.00  0.00     0.001 A 
HETATM   11  C   UNK N   1      31.614  30.191  -3.481  0.00  0.00     0.000 A 
HETATM   12  C   UNK N   1      30.621  29.551  -2.736  0.00  0.00     0.001 A 
HETATM   13  C   UNK N   1      30.152  28.297  -3.133  0.00  0.00     0.007 A 
ENDBRANCH   7   8
ENDBRANCH   6   7
ENDBRANCH   5   6
BRANCH   5  14
HETATM   14  N   UNK N   1      29.659  23.362  -2.345  0.00  0.00    -0.418 N 
HETATM   15  H   UNK N   1      29.361  22.495  -1.897  0.00  0.00     0.150 HD
HETATM   16  H   UNK N   1      30.331  23.836  -1.740  0.00  0.00     0.150 HD
ENDBRANCH   5  14
ENDBRANCH   1   5
BRANCH   1  17
HETATM   17  C   UNK N   1      26.630  26.258  -3.654  0.00  0.00     0.111 C 
BRANCH  17  18
HETATM   18  C   UNK N   1      26.481  26.965  -5.008  0.00  0.00     0.097 C 
BRANCH  18  19
HETATM   19  C   UNK N   1      25.211  26.548  -5.708  0.00  0.00     0.144 C 
HETATM   20  O   UNK N   1      24.236  27.277  -5.730  0.00  0.00    -0.650 OA
BRANCH  19  21
HETATM   21  O   UNK N   1      25.165  25.360  -6.342  0.00  0.00    -0.776 OA
HETATM   22  H   UNK N   1      25.660  25.217  -7.124  0.00  0.00     0.167 HD
ENDBRANCH  19  21
ENDBRANCH  18  19
BRANCH  18  23
HETATM   23  C   UNK N   1      26.590  28.489  -4.804  0.00  0.00     0.054 C 
BRANCH  23  24
HETATM   24  C   UNK N   1      27.604  29.116  -5.725  0.00  0.00    -0.057 A 
HETATM   25  C   UNK N   1      28.014  28.441  -6.881  0.00  0.00     0.007 A 
HETATM   26  C   UNK N   1      28.975  29.012  -7.723  0.00  0.00     0.001 A 
HETATM   27  C   UNK N   1      29.535  30.254  -7.408  0.00  0.00     0.000 A 
HETATM   28  C   UNK N   1      29.125  30.933  -6.259  0.00  0.00     0.001 A 
HETATM   29  C   UNK N   1      28.158  30.370  -5.423  0.00  0.00     0.007 A 
ENDBRANCH  23  24
ENDBRANCH  18  23
ENDBRANCH  17  18
ENDBRANCH   1  17
TORSDOF 12
ENDMDL
