MODEL 1
REMARK VINA RESULT:      -6.4      0.000      0.000
REMARK  8 active torsions:
REMARK  status: ('A' for Active; 'I' for Inactive)
REMARK    1  A    between atoms: C_2  and  C_4 
REMARK       I    between atoms: C_2  and  N_3 
REMARK    2  A    between atoms: C_4  and  C_5 
REMARK    3  A    between atoms: C_4  and  N_13 
REMARK    4  A    between atoms: C_5  and  C_6 
REMARK    5  A    between atoms: C_6  and  C_7 
REMARK    6  A    between atoms: C_7  and  N_8 
REMARK    7  A    between atoms: N_8  and  C_9 
REMARK       I    between atoms: N_13  and  C_14 
REMARK    8  A    between atoms: C_14  and  C_16 
ROOT
HETATM    1  C   UNK N   1      35.703  13.361  12.871  0.00  0.00     0.176 C 
ENDROOT
BRANCH   1   2
HETATM    2  C   UNK N   1      36.758  12.571  12.129  0.00  0.00     0.238 C 
HETATM    3  O   UNK N   1      36.628  11.375  11.924  0.00  0.00    -0.271 OA
HETATM    4  N   UNK N   1      37.854  13.205  11.663  0.00  0.00    -0.368 N 
HETATM    5  H   UNK N   1      38.544  12.702  11.173  0.00  0.00     0.159 HD
HETATM    6  H   UNK N   1      37.964  14.172  11.814  0.00  0.00     0.159 HD
ENDBRANCH   1   2
BRANCH   1   7
HETATM    7  C   UNK N   1      35.802  14.839  12.479  0.00  0.00     0.036 C 
BRANCH   7   8
HETATM    8  C   UNK N   1      34.843  15.222  11.347  0.00  0.00     0.022 C 
BRANCH   8   9
HETATM    9  C   UNK N   1      35.504  16.116  10.293  0.00  0.00     0.121 C 
BRANCH   9  10
HETATM   10  N   UNK N   1      34.695  17.280  10.011  0.00  0.00    -0.380 N 
HETATM   11  H   UNK N   1      34.769  18.064  10.602  0.00  0.00     0.160 HD
BRANCH  10  12
HETATM   12  C   UNK N   1      33.801  17.329   8.912  0.00  0.00     0.066 C 
HETATM   13  N   UNK N   1      32.559  17.048   9.065  0.00  0.00    -0.389 N 
HETATM   14  H   UNK N   1      31.994  16.873   8.278  0.00  0.00     0.157 HD
ATOM     15  HN  UNK N   1      32.158  17.006  10.001  1.00  0.00     0.157 HD
HETATM   16  C   UNK N   1      34.302  17.750   7.574  0.00  0.00     0.088 C 
ENDBRANCH  10  12
ENDBRANCH   9  10
ENDBRANCH   8   9
ENDBRANCH   7   8
ENDBRANCH   1   7
BRANCH   1  17
HETATM   17  N   UNK N   1      35.741  13.197  14.320  0.00  0.00    -0.344 N 
HETATM   18  C   UNK N   1      34.876  12.459  15.068  0.00  0.00     0.252 C 
HETATM   19  O   UNK N   1      33.925  11.890  14.543  0.00  0.00    -0.268 OA
HETATM   20  H   UNK N   1      36.460  13.666  14.803  0.00  0.00     0.163 HD
BRANCH  18  21
HETATM   21  C   UNK N   1      35.058  12.377  16.535  0.00  0.00     0.032 A 
HETATM   22  C   UNK N   1      35.259  11.138  17.163  0.00  0.00     0.017 A 
HETATM   23  C   UNK N   1      35.418  11.067  18.551  0.00  0.00     0.001 A 
HETATM   24  C   UNK N   1      35.396  12.235  19.319  0.00  0.00     0.000 A 
HETATM   25  C   UNK N   1      35.205  13.474  18.701  0.00  0.00     0.001 A 
HETATM   26  C   UNK N   1      35.026  13.544  17.315  0.00  0.00     0.017 A 
ENDBRANCH  18  21
ENDBRANCH   1  17
TORSDOF 8
ENDMDL
MODEL 2
REMARK VINA RESULT:      -6.4     14.024     16.281
REMARK  8 active torsions:
REMARK  status: ('A' for Active; 'I' for Inactive)
REMARK    1  A    between atoms: C_2  and  C_4 
REMARK       I    between atoms: C_2  and  N_3 
REMARK    2  A    between atoms: C_4  and  C_5 
REMARK    3  A    between atoms: C_4  and  N_13 
REMARK    4  A    between atoms: C_5  and  C_6 
REMARK    5  A    between atoms: C_6  and  C_7 
REMARK    6  A    between atoms: C_7  and  N_8 
REMARK    7  A    between atoms: N_8  and  C_9 
REMARK       I    between atoms: N_13  and  C_14 
REMARK    8  A    between atoms: C_14  and  C_16 
ROOT
HETATM    1  C   UNK N   1      20.175  16.851   7.827  0.00  0.00     0.176 C 
ENDROOT
BRANCH   1   2
HETATM    2  C   UNK N   1      19.436  17.793   8.753  0.00  0.00     0.238 C 
HETATM    3  O   UNK N   1      20.001  18.740   9.276  0.00  0.00    -0.271 OA
HETATM    4  N   UNK N   1      18.122  17.596   8.985  0.00  0.00    -0.368 N 
HETATM    5  H   UNK N   1      17.630  18.207   9.581  0.00  0.00     0.159 HD
HETATM    6  H   UNK N   1      17.655  16.842   8.559  0.00  0.00     0.159 HD
ENDBRANCH   1   2
BRANCH   1   7
HETATM    7  C   UNK N   1      19.200  16.288   6.788  0.00  0.00     0.036 C 
BRANCH   7   8
HETATM    8  C   UNK N   1      19.870  15.328   5.800  0.00  0.00     0.022 C 
BRANCH   8   9
HETATM    9  C   UNK N   1      20.379  16.039   4.542  0.00  0.00     0.121 C 
BRANCH   9  10
HETATM   10  N   UNK N   1      19.340  16.836   3.933  0.00  0.00    -0.380 N 
HETATM   11  H   UNK N   1      18.401  16.569   4.057  0.00  0.00     0.160 HD
BRANCH  10  12
HETATM   12  C   UNK N   1      19.629  17.992   3.164  0.00  0.00     0.066 C 
HETATM   13  N   UNK N   1      18.764  18.468   2.346  0.00  0.00    -0.389 N 
HETATM   14  H   UNK N   1      19.038  19.125   1.666  0.00  0.00     0.157 HD
ATOM     15  HN  UNK N   1      17.792  18.164   2.399  1.00  0.00     0.157 HD
HETATM   16  C   UNK N   1      20.937  18.683   3.337  0.00  0.00     0.088 C 
ENDBRANCH  10  12
ENDBRANCH   9  10
ENDBRANCH   8   9
ENDBRANCH   7   8
ENDBRANCH   1   7
BRANCH   1  17
HETATM   17  N   UNK N   1      20.892  15.781   8.510  0.00  0.00    -0.344 N 
HETATM   18  C   UNK N   1      20.335  14.782   9.249  0.00  0.00     0.252 C 
HETATM   19  O   UNK N   1      19.123  14.747   9.437  0.00  0.00    -0.268 OA
HETATM   20  H   UNK N   1      21.874  15.780   8.429  0.00  0.00     0.163 HD
BRANCH  18  21
HETATM   21  C   UNK N   1      21.201  13.754   9.868  0.00  0.00     0.032 A 
HETATM   22  C   UNK N   1      20.680  12.849  10.807  0.00  0.00     0.017 A 
HETATM   23  C   UNK N   1      21.508  11.888  11.397  0.00  0.00     0.001 A 
HETATM   24  C   UNK N   1      22.857  11.811  11.039  0.00  0.00     0.000 A 
HETATM   25  C   UNK N   1      23.381  12.702  10.098  0.00  0.00     0.001 A 
HETATM   26  C   UNK N   1      22.560  13.676   9.522  0.00  0.00     0.017 A 
ENDBRANCH  18  21
ENDBRANCH   1  17
TORSDOF 8
ENDMDL
MODEL 3
REMARK VINA RESULT:      -6.4     18.577     21.903
REMARK  8 active torsions:
REMARK  status: ('A' for Active; 'I' for Inactive)
REMARK    1  A    between atoms: C_2  and  C_4 
REMARK       I    between atoms: C_2  and  N_3 
REMARK    2  A    between atoms: C_4  and  C_5 
REMARK    3  A    between atoms: C_4  and  N_13 
REMARK    4  A    between atoms: C_5  and  C_6 
REMARK    5  A    between atoms: C_6  and  C_7 
REMARK    6  A    between atoms: C_7  and  N_8 
REMARK    7  A    between atoms: N_8  and  C_9 
REMARK       I    between atoms: N_13  and  C_14 
REMARK    8  A    between atoms: C_14  and  C_16 
ROOT
HETATM    1  C   UNK N   1      29.370  22.947  -3.702  0.00  0.00     0.176 C 
ENDROOT
BRANCH   1   2
HETATM    2  C   UNK N   1      30.508  23.427  -2.828  0.00  0.00     0.238 C 
HETATM    3  O   UNK N   1      30.647  23.018  -1.686  0.00  0.00    -0.271 OA
HETATM    4  N   UNK N   1      31.401  24.306  -3.328  0.00  0.00    -0.368 N 
HETATM    5  H   UNK N   1      32.149  24.620  -2.770  0.00  0.00     0.159 HD
HETATM    6  H   UNK N   1      31.304  24.633  -4.251  0.00  0.00     0.159 HD
ENDBRANCH   1   2
BRANCH   1   7
HETATM    7  C   UNK N   1      29.937  22.183  -4.903  0.00  0.00     0.036 C 
BRANCH   7   8
HETATM    8  C   UNK N   1      30.477  20.799  -4.530  0.00  0.00     0.022 C 
BRANCH   8   9
HETATM    9  C   UNK N   1      31.411  20.224  -5.601  0.00  0.00     0.121 C 
BRANCH   9  10
HETATM   10  N   UNK N   1      32.797  20.463  -5.271  0.00  0.00    -0.380 N 
HETATM   11  H   UNK N   1      33.357  20.965  -5.907  0.00  0.00     0.160 HD
BRANCH  10  12
HETATM   12  C   UNK N   1      33.376  19.998  -4.063  0.00  0.00     0.066 C 
HETATM   13  N   UNK N   1      33.665  18.759  -3.910  0.00  0.00    -0.389 N 
HETATM   14  H   UNK N   1      33.860  18.406  -3.011  0.00  0.00     0.157 HD
ATOM     15  HN  UNK N   1      33.693  18.138  -4.718  1.00  0.00     0.157 HD
HETATM   16  C   UNK N   1      33.688  20.968  -2.976  0.00  0.00     0.088 C 
ENDBRANCH  10  12
ENDBRANCH   9  10
ENDBRANCH   8   9
ENDBRANCH   7   8
ENDBRANCH   1   7
BRANCH   1  17
HETATM   17  N   UNK N   1      28.458  24.001  -4.131  0.00  0.00    -0.344 N 
HETATM   18  C   UNK N   1      27.336  24.409  -3.476  0.00  0.00     0.252 C 
HETATM   19  O   UNK N   1      26.976  23.849  -2.446  0.00  0.00    -0.268 OA
HETATM   20  H   UNK N   1      28.674  24.461  -4.974  0.00  0.00     0.163 HD
BRANCH  18  21
HETATM   21  C   UNK N   1      26.520  25.511  -4.033  0.00  0.00     0.032 A 
HETATM   22  C   UNK N   1      26.420  26.739  -3.361  0.00  0.00     0.017 A 
HETATM   23  C   UNK N   1      25.636  27.771  -3.887  0.00  0.00     0.001 A 
HETATM   24  C   UNK N   1      24.962  27.590  -5.098  0.00  0.00     0.000 A 
HETATM   25  C   UNK N   1      25.064  26.374  -5.780  0.00  0.00     0.001 A 
HETATM   26  C   UNK N   1      25.831  25.334  -5.244  0.00  0.00     0.017 A 
ENDBRANCH  18  21
ENDBRANCH   1  17
TORSDOF 8
ENDMDL
MODEL 4
REMARK VINA RESULT:      -6.1      1.788      2.392
REMARK  8 active torsions:
REMARK  status: ('A' for Active; 'I' for Inactive)
REMARK    1  A    between atoms: C_2  and  C_4 
REMARK       I    between atoms: C_2  and  N_3 
REMARK    2  A    between atoms: C_4  and  C_5 
REMARK    3  A    between atoms: C_4  and  N_13 
REMARK    4  A    between atoms: C_5  and  C_6 
REMARK    5  A    between atoms: C_6  and  C_7 
REMARK    6  A    between atoms: C_7  and  N_8 
REMARK    7  A    between atoms: N_8  and  C_9 
REMARK       I    between atoms: N_13  and  C_14 
REMARK    8  A    between atoms: C_14  and  C_16 
ROOT
HETATM    1  C   UNK N   1      36.842  13.574  11.350  0.00  0.00     0.176 C 
ENDROOT
BRANCH   1   2
HETATM    2  C   UNK N   1      38.018  12.672  11.048  0.00  0.00     0.238 C 
HETATM    3  O   UNK N   1      39.058  13.117  10.591  0.00  0.00    -0.271 OA
HETATM    4  N   UNK N   1      37.925  11.352  11.311  0.00  0.00    -0.368 N 
HETATM    5  H   UNK N   1      38.686  10.757  11.125  0.00  0.00     0.159 HD
HETATM    6  H   UNK N   1      37.094  10.984  11.691  0.00  0.00     0.159 HD
ENDBRANCH   1   2
BRANCH   1   7
HETATM    7  C   UNK N   1      36.836  14.751  10.370  0.00  0.00     0.036 C 
BRANCH   7   8
HETATM    8  C   UNK N   1      36.025  15.947  10.879  0.00  0.00     0.022 C 
BRANCH   8   9
HETATM    9  C   UNK N   1      34.617  16.002  10.278  0.00  0.00     0.121 C 
BRANCH   9  10
HETATM   10  N   UNK N   1      34.337  17.303   9.715  0.00  0.00    -0.380 N 
HETATM   11  H   UNK N   1      34.783  18.093  10.098  0.00  0.00     0.160 HD
BRANCH  10  12
HETATM   12  C   UNK N   1      33.442  17.478   8.629  0.00  0.00     0.066 C 
HETATM   13  N   UNK N   1      32.175  17.510   8.823  0.00  0.00    -0.389 N 
HETATM   14  H   UNK N   1      31.558  17.414   8.062  0.00  0.00     0.157 HD
ATOM     15  HN  UNK N   1      31.807  17.634   9.766  1.00  0.00     0.157 HD
HETATM   16  C   UNK N   1      33.982  17.666   7.253  0.00  0.00     0.088 C 
ENDBRANCH  10  12
ENDBRANCH   9  10
ENDBRANCH   8   9
ENDBRANCH   7   8
ENDBRANCH   1   7
BRANCH   1  17
HETATM   17  N   UNK N   1      36.785  14.039  12.731  0.00  0.00    -0.344 N 
HETATM   18  C   UNK N   1      36.361  13.318  13.806  0.00  0.00     0.252 C 
HETATM   19  O   UNK N   1      35.930  12.179  13.662  0.00  0.00    -0.268 OA
HETATM   20  H   UNK N   1      37.080  14.963  12.903  0.00  0.00     0.163 HD
BRANCH  18  21
HETATM   21  C   UNK N   1      36.379  13.928  15.154  0.00  0.00     0.032 A 
HETATM   22  C   UNK N   1      37.189  15.042  15.425  0.00  0.00     0.017 A 
HETATM   23  C   UNK N   1      37.211  15.606  16.706  0.00  0.00     0.001 A 
HETATM   24  C   UNK N   1      36.409  15.073  17.719  0.00  0.00     0.000 A 
HETATM   25  C   UNK N   1      35.591  13.970  17.455  0.00  0.00     0.001 A 
HETATM   26  C   UNK N   1      35.584  13.393  16.181  0.00  0.00     0.017 A 
ENDBRANCH  18  21
ENDBRANCH   1  17
TORSDOF 8
ENDMDL
MODEL 5
REMARK VINA RESULT:      -6.1     19.500     22.734
REMARK  8 active torsions:
REMARK  status: ('A' for Active; 'I' for Inactive)
REMARK    1  A    between atoms: C_2  and  C_4 
REMARK       I    between atoms: C_2  and  N_3 
REMARK    2  A    between atoms: C_4  and  C_5 
REMARK    3  A    between atoms: C_4  and  N_13 
REMARK    4  A    between atoms: C_5  and  C_6 
REMARK    5  A    between atoms: C_6  and  C_7 
REMARK    6  A    between atoms: C_7  and  N_8 
REMARK    7  A    between atoms: N_8  and  C_9 
REMARK       I    between atoms: N_13  and  C_14 
REMARK    8  A    between atoms: C_14  and  C_16 
ROOT
HETATM    1  C   UNK N   1      29.362  22.808  -3.602  0.00  0.00     0.176 C 
ENDROOT
BRANCH   1   2
HETATM    2  C   UNK N   1      30.544  22.946  -2.666  0.00  0.00     0.238 C 
HETATM    3  O   UNK N   1      30.389  23.187  -1.480  0.00  0.00    -0.271 OA
HETATM    4  N   UNK N   1      31.792  22.775  -3.148  0.00  0.00    -0.368 N 
HETATM    5  H   UNK N   1      32.568  22.856  -2.547  0.00  0.00     0.159 HD
HETATM    6  H   UNK N   1      31.927  22.569  -4.101  0.00  0.00     0.159 HD
ENDBRANCH   1   2
BRANCH   1   7
HETATM    7  C   UNK N   1      29.784  22.015  -4.842  0.00  0.00     0.036 C 
BRANCH   7   8
HETATM    8  C   UNK N   1      29.524  22.769  -6.150  0.00  0.00     0.022 C 
BRANCH   8   9
HETATM    9  C   UNK N   1      28.369  22.167  -6.957  0.00  0.00     0.121 C 
BRANCH   9  10
HETATM   10  N   UNK N   1      27.289  23.114  -7.115  0.00  0.00    -0.380 N 
HETATM   11  H   UNK N   1      27.501  24.035  -7.393  0.00  0.00     0.160 HD
BRANCH  10  12
HETATM   12  C   UNK N   1      25.936  22.761  -6.882  0.00  0.00     0.066 C 
HETATM   13  N   UNK N   1      25.223  23.415  -6.042  0.00  0.00    -0.389 N 
HETATM   14  H   UNK N   1      24.368  23.043  -5.725  0.00  0.00     0.157 HD
ATOM     15  HN  UNK N   1      25.542  24.322  -5.700  1.00  0.00     0.157 HD
HETATM   16  C   UNK N   1      25.325  21.642  -7.653  0.00  0.00     0.088 C 
ENDBRANCH  10  12
ENDBRANCH   9  10
ENDBRANCH   8   9
ENDBRANCH   7   8
ENDBRANCH   1   7
BRANCH   1  17
HETATM   17  N   UNK N   1      28.741  24.074  -3.972  0.00  0.00    -0.344 N 
HETATM   18  C   UNK N   1      27.541  24.541  -3.531  0.00  0.00     0.252 C 
HETATM   19  O   UNK N   1      26.843  23.862  -2.785  0.00  0.00    -0.268 OA
HETATM   20  H   UNK N   1      29.237  24.646  -4.603  0.00  0.00     0.163 HD
BRANCH  18  21
HETATM   21  C   UNK N   1      27.052  25.861  -3.988  0.00  0.00     0.032 A 
HETATM   22  C   UNK N   1      27.277  26.291  -5.306  0.00  0.00     0.017 A 
HETATM   23  C   UNK N   1      26.823  27.545  -5.727  0.00  0.00     0.001 A 
HETATM   24  C   UNK N   1      26.125  28.371  -4.841  0.00  0.00     0.000 A 
HETATM   25  C   UNK N   1      25.888  27.947  -3.530  0.00  0.00     0.001 A 
HETATM   26  C   UNK N   1      26.359  26.702  -3.101  0.00  0.00     0.017 A 
ENDBRANCH  18  21
ENDBRANCH   1  17
TORSDOF 8
ENDMDL
MODEL 6
REMARK VINA RESULT:      -6.1      1.981      2.539
REMARK  8 active torsions:
REMARK  status: ('A' for Active; 'I' for Inactive)
REMARK    1  A    between atoms: C_2  and  C_4 
REMARK       I    between atoms: C_2  and  N_3 
REMARK    2  A    between atoms: C_4  and  C_5 
REMARK    3  A    between atoms: C_4  and  N_13 
REMARK    4  A    between atoms: C_5  and  C_6 
REMARK    5  A    between atoms: C_6  and  C_7 
REMARK    6  A    between atoms: C_7  and  N_8 
REMARK    7  A    between atoms: N_8  and  C_9 
REMARK       I    between atoms: N_13  and  C_14 
REMARK    8  A    between atoms: C_14  and  C_16 
ROOT
HETATM    1  C   UNK N   1      35.484  14.321  11.393  0.00  0.00     0.176 C 
ENDROOT
BRANCH   1   2
HETATM    2  C   UNK N   1      36.632  15.108  10.800  0.00  0.00     0.238 C 
HETATM    3  O   UNK N   1      36.563  16.317  10.653  0.00  0.00    -0.271 OA
HETATM    4  N   UNK N   1      37.764  14.463  10.448  0.00  0.00    -0.368 N 
HETATM    5  H   UNK N   1      38.519  14.967  10.067  0.00  0.00     0.159 HD
HETATM    6  H   UNK N   1      37.834  13.489  10.572  0.00  0.00     0.159 HD
ENDBRANCH   1   2
BRANCH   1   7
HETATM    7  C   UNK N   1      34.166  14.790  10.768  0.00  0.00     0.036 C 
BRANCH   7   8
HETATM    8  C   UNK N   1      33.917  14.191   9.381  0.00  0.00     0.022 C 
BRANCH   8   9
HETATM    9  C   UNK N   1      33.909  15.251   8.275  0.00  0.00     0.121 C 
BRANCH   9  10
HETATM   10  N   UNK N   1      34.110  16.576   8.816  0.00  0.00    -0.380 N 
HETATM   11  H   UNK N   1      34.156  16.688   9.794  0.00  0.00     0.160 HD
BRANCH  10  12
HETATM   12  C   UNK N   1      34.243  17.717   7.987  0.00  0.00     0.066 C 
HETATM   13  N   UNK N   1      34.814  18.780   8.421  0.00  0.00    -0.389 N 
HETATM   14  H   UNK N   1      34.714  19.628   7.931  0.00  0.00     0.157 HD
ATOM     15  HN  UNK N   1      35.370  18.746   9.275  1.00  0.00     0.157 HD
HETATM   16  C   UNK N   1      33.750  17.668   6.582  0.00  0.00     0.088 C 
ENDBRANCH  10  12
ENDBRANCH   9  10
ENDBRANCH   8   9
ENDBRANCH   7   8
ENDBRANCH   1   7
BRANCH   1  17
HETATM   17  N   UNK N   1      35.420  14.361  12.849  0.00  0.00    -0.344 N 
HETATM   18  C   UNK N   1      36.209  13.659  13.709  0.00  0.00     0.252 C 
HETATM   19  O   UNK N   1      37.041  12.864  13.285  0.00  0.00    -0.268 OA
HETATM   20  H   UNK N   1      34.742  14.953  13.250  0.00  0.00     0.163 HD
BRANCH  18  21
HETATM   21  C   UNK N   1      36.032  13.823  15.170  0.00  0.00     0.032 A 
HETATM   22  C   UNK N   1      35.087  13.054  15.868  0.00  0.00     0.017 A 
HETATM   23  C   UNK N   1      34.917  13.224  17.246  0.00  0.00     0.001 A 
HETATM   24  C   UNK N   1      35.703  14.149  17.939  0.00  0.00     0.000 A 
HETATM   25  C   UNK N   1      36.653  14.912  17.254  0.00  0.00     0.001 A 
HETATM   26  C   UNK N   1      36.810  14.757  15.873  0.00  0.00     0.017 A 
ENDBRANCH  18  21
ENDBRANCH   1  17
TORSDOF 8
ENDMDL
MODEL 7
REMARK VINA RESULT:      -5.9     10.148     15.192
REMARK  8 active torsions:
REMARK  status: ('A' for Active; 'I' for Inactive)
REMARK    1  A    between atoms: C_2  and  C_4 
REMARK       I    between atoms: C_2  and  N_3 
REMARK    2  A    between atoms: C_4  and  C_5 
REMARK    3  A    between atoms: C_4  and  N_13 
REMARK    4  A    between atoms: C_5  and  C_6 
REMARK    5  A    between atoms: C_6  and  C_7 
REMARK    6  A    between atoms: C_7  and  N_8 
REMARK    7  A    between atoms: N_8  and  C_9 
REMARK       I    between atoms: N_13  and  C_14 
REMARK    8  A    between atoms: C_14  and  C_16 
ROOT
HETATM    1  C   UNK N   1      26.513  19.743   5.669  0.00  0.00     0.176 C 
ENDROOT
BRANCH   1   2
HETATM    2  C   UNK N   1      26.721  20.920   6.596  0.00  0.00     0.238 C 
HETATM    3  O   UNK N   1      27.440  21.855   6.283  0.00  0.00    -0.271 OA
HETATM    4  N   UNK N   1      26.079  20.950   7.782  0.00  0.00    -0.368 N 
HETATM    5  H   UNK N   1      26.201  21.714   8.390  0.00  0.00     0.159 HD
HETATM    6  H   UNK N   1      25.488  20.206   8.039  0.00  0.00     0.159 HD
ENDBRANCH   1   2
BRANCH   1   7
HETATM    7  C   UNK N   1      27.733  19.592   4.754  0.00  0.00     0.036 C 
BRANCH   7   8
HETATM    8  C   UNK N   1      28.630  18.413   5.145  0.00  0.00     0.022 C 
BRANCH   8   9
HETATM    9  C   UNK N   1      28.028  17.564   6.270  0.00  0.00     0.121 C 
BRANCH   9  10
HETATM   10  N   UNK N   1      28.965  17.393   7.357  0.00  0.00    -0.380 N 
HETATM   11  H   UNK N   1      29.689  16.732   7.261  0.00  0.00     0.160 HD
BRANCH  10  12
HETATM   12  C   UNK N   1      28.876  18.147   8.554  0.00  0.00     0.066 C 
HETATM   13  N   UNK N   1      27.746  18.326   9.133  0.00  0.00    -0.389 N 
HETATM   14  H   UNK N   1      27.652  19.016   9.828  0.00  0.00     0.157 HD
ATOM     15  HN  UNK N   1      26.943  17.753   8.871  1.00  0.00     0.157 HD
HETATM   16  C   UNK N   1      30.114  18.702   9.168  0.00  0.00     0.088 C 
ENDBRANCH  10  12
ENDBRANCH   9  10
ENDBRANCH   8   9
ENDBRANCH   7   8
ENDBRANCH   1   7
BRANCH   1  17
HETATM   17  N   UNK N   1      25.279  19.801   4.895  0.00  0.00    -0.344 N 
HETATM   18  C   UNK N   1      24.441  18.759   4.637  0.00  0.00     0.252 C 
HETATM   19  O   UNK N   1      24.715  17.628   5.024  0.00  0.00    -0.268 OA
HETATM   20  H   UNK N   1      25.027  20.677   4.522  0.00  0.00     0.163 HD
BRANCH  18  21
HETATM   21  C   UNK N   1      23.210  18.983   3.846  0.00  0.00     0.032 A 
HETATM   22  C   UNK N   1      22.203  18.006   3.797  0.00  0.00     0.017 A 
HETATM   23  C   UNK N   1      21.048  18.220   3.037  0.00  0.00     0.001 A 
HETATM   24  C   UNK N   1      20.883  19.418   2.336  0.00  0.00     0.000 A 
HETATM   25  C   UNK N   1      21.877  20.400   2.387  0.00  0.00     0.001 A 
HETATM   26  C   UNK N   1      23.041  20.180   3.131  0.00  0.00     0.017 A 
ENDBRANCH  18  21
ENDBRANCH   1  17
TORSDOF 8
ENDMDL
MODEL 8
REMARK VINA RESULT:      -5.8     19.864     22.694
REMARK  8 active torsions:
REMARK  status: ('A' for Active; 'I' for Inactive)
REMARK    1  A    between atoms: C_2  and  C_4 
REMARK       I    between atoms: C_2  and  N_3 
REMARK    2  A    between atoms: C_4  and  C_5 
REMARK    3  A    between atoms: C_4  and  N_13 
REMARK    4  A    between atoms: C_5  and  C_6 
REMARK    5  A    between atoms: C_6  and  C_7 
REMARK    6  A    between atoms: C_7  and  N_8 
REMARK    7  A    between atoms: N_8  and  C_9 
REMARK       I    between atoms: N_13  and  C_14 
REMARK    8  A    between atoms: C_14  and  C_16 
ROOT
HETATM    1  C   UNK N   1      29.333  22.908  -3.682  0.00  0.00     0.176 C 
ENDROOT
BRANCH   1   2
HETATM    2  C   UNK N   1      30.450  23.370  -2.772  0.00  0.00     0.238 C 
HETATM    3  O   UNK N   1      30.481  23.052  -1.594  0.00  0.00    -0.271 OA
HETATM    4  N   UNK N   1      31.444  24.129  -3.278  0.00  0.00    -0.368 N 
HETATM    5  H   UNK N   1      32.179  24.430  -2.696  0.00  0.00     0.159 HD
HETATM    6  H   UNK N   1      31.434  24.382  -4.229  0.00  0.00     0.159 HD
ENDBRANCH   1   2
BRANCH   1   7
HETATM    7  C   UNK N   1      29.928  22.164  -4.882  0.00  0.00     0.036 C 
BRANCH   7   8
HETATM    8  C   UNK N   1      29.550  22.799  -6.225  0.00  0.00     0.022 C 
BRANCH   8   9
HETATM    9  C   UNK N   1      29.298  21.756  -7.318  0.00  0.00     0.121 C 
BRANCH   9  10
HETATM   10  N   UNK N   1      30.345  20.761  -7.345  0.00  0.00    -0.380 N 
HETATM   11  H   UNK N   1      31.120  20.869  -6.747  0.00  0.00     0.160 HD
BRANCH  10  12
HETATM   12  C   UNK N   1      30.293  19.634  -8.205  0.00  0.00     0.066 C 
HETATM   13  N   UNK N   1      31.041  19.568  -9.244  0.00  0.00    -0.389 N 
HETATM   14  H   UNK N   1      30.853  18.902  -9.944  0.00  0.00     0.157 HD
ATOM     15  HN  UNK N   1      31.830  20.205  -9.345  1.00  0.00     0.157 HD
HETATM   16  C   UNK N   1      29.388  18.498  -7.874  0.00  0.00     0.088 C 
ENDBRANCH  10  12
ENDBRANCH   9  10
ENDBRANCH   8   9
ENDBRANCH   7   8
ENDBRANCH   1   7
BRANCH   1  17
HETATM   17  N   UNK N   1      28.434  23.971  -4.115  0.00  0.00    -0.344 N 
HETATM   18  C   UNK N   1      27.313  24.390  -3.465  0.00  0.00     0.252 C 
HETATM   19  O   UNK N   1      26.941  23.832  -2.438  0.00  0.00    -0.268 OA
HETATM   20  H   UNK N   1      28.658  24.430  -4.957  0.00  0.00     0.163 HD
BRANCH  18  21
HETATM   21  C   UNK N   1      26.510  25.500  -4.026  0.00  0.00     0.032 A 
HETATM   22  C   UNK N   1      26.428  26.733  -3.359  0.00  0.00     0.017 A 
HETATM   23  C   UNK N   1      25.657  27.773  -3.888  0.00  0.00     0.001 A 
HETATM   24  C   UNK N   1      24.978  27.595  -5.097  0.00  0.00     0.000 A 
HETATM   25  C   UNK N   1      25.061  26.374  -5.772  0.00  0.00     0.001 A 
HETATM   26  C   UNK N   1      25.815  25.327  -5.234  0.00  0.00     0.017 A 
ENDBRANCH  18  21
ENDBRANCH   1  17
TORSDOF 8
ENDMDL
MODEL 9
REMARK VINA RESULT:      -5.8     14.403     17.915
REMARK  8 active torsions:
REMARK  status: ('A' for Active; 'I' for Inactive)
REMARK    1  A    between atoms: C_2  and  C_4 
REMARK       I    between atoms: C_2  and  N_3 
REMARK    2  A    between atoms: C_4  and  C_5 
REMARK    3  A    between atoms: C_4  and  N_13 
REMARK    4  A    between atoms: C_5  and  C_6 
REMARK    5  A    between atoms: C_6  and  C_7 
REMARK    6  A    between atoms: C_7  and  N_8 
REMARK    7  A    between atoms: N_8  and  C_9 
REMARK       I    between atoms: N_13  and  C_14 
REMARK    8  A    between atoms: C_14  and  C_16 
ROOT
HETATM    1  C   UNK N   1      22.113  19.224   2.893  0.00  0.00     0.176 C 
ENDROOT
BRANCH   1   2
HETATM    2  C   UNK N   1      21.129  20.354   3.104  0.00  0.00     0.238 C 
HETATM    3  O   UNK N   1      20.435  20.412   4.106  0.00  0.00    -0.271 OA
HETATM    4  N   UNK N   1      21.035  21.330   2.178  0.00  0.00    -0.368 N 
HETATM    5  H   UNK N   1      20.403  22.074   2.308  0.00  0.00     0.159 HD
HETATM    6  H   UNK N   1      21.598  21.299   1.372  0.00  0.00     0.159 HD
ENDBRANCH   1   2
BRANCH   1   7
HETATM    7  C   UNK N   1      21.435  17.889   3.217  0.00  0.00     0.036 C 
BRANCH   7   8
HETATM    8  C   UNK N   1      20.497  17.411   2.103  0.00  0.00     0.022 C 
BRANCH   8   9
HETATM    9  C   UNK N   1      20.108  15.937   2.254  0.00  0.00     0.121 C 
BRANCH   9  10
HETATM   10  N   UNK N   1      20.150  15.250   0.984  0.00  0.00    -0.380 N 
HETATM   11  H   UNK N   1      21.017  15.146   0.528  0.00  0.00     0.160 HD
BRANCH  10  12
HETATM   12  C   UNK N   1      18.985  14.720   0.374  0.00  0.00     0.066 C 
HETATM   13  N   UNK N   1      18.066  15.498  -0.068  0.00  0.00    -0.389 N 
HETATM   14  H   UNK N   1      17.178  15.135  -0.289  0.00  0.00     0.157 HD
ATOM     15  HN  UNK N   1      18.255  16.492  -0.190  1.00  0.00     0.157 HD
HETATM   16  C   UNK N   1      18.846  13.247   0.208  0.00  0.00     0.088 C 
ENDBRANCH  10  12
ENDBRANCH   9  10
ENDBRANCH   8   9
ENDBRANCH   7   8
ENDBRANCH   1   7
BRANCH   1  17
HETATM   17  N   UNK N   1      23.362  19.372   3.632  0.00  0.00    -0.344 N 
HETATM   18  C   UNK N   1      24.408  20.174   3.290  0.00  0.00     0.252 C 
HETATM   19  O   UNK N   1      24.382  20.826   2.251  0.00  0.00    -0.268 OA
HETATM   20  H   UNK N   1      23.458  18.841   4.455  0.00  0.00     0.163 HD
BRANCH  18  21
HETATM   21  C   UNK N   1      25.606  20.229   4.157  0.00  0.00     0.032 A 
HETATM   22  C   UNK N   1      26.876  19.915   3.645  0.00  0.00     0.017 A 
HETATM   23  C   UNK N   1      28.001  19.957   4.474  0.00  0.00     0.001 A 
HETATM   24  C   UNK N   1      27.870  20.330   5.815  0.00  0.00     0.000 A 
HETATM   25  C   UNK N   1      26.612  20.653   6.330  0.00  0.00     0.001 A 
HETATM   26  C   UNK N   1      25.482  20.593   5.508  0.00  0.00     0.017 A 
ENDBRANCH  18  21
ENDBRANCH   1  17
TORSDOF 8
ENDMDL
