MODEL 1
REMARK VINA RESULT:      -8.2      0.000      0.000
REMARK  2 active torsions:
REMARK  status: ('A' for Active; 'I' for Inactive)
REMARK    1  A    between atoms: N_14  and  C_18 
REMARK    2  A    between atoms: C_18  and  C_19 
ROOT
HETATM    1  C   UNK N   1      28.552  20.803  -7.816  0.00  0.00     0.052 A 
HETATM    2  C   UNK N   1      29.318  22.265  -5.569  0.00  0.00     0.021 A 
HETATM    3  C   UNK N   1      27.809  21.939  -7.442  0.00  0.00    -0.012 A 
HETATM    4  C   UNK N   1      29.672  20.412  -7.074  0.00  0.00     0.117 A 
HETATM    5  C   UNK N   1      30.053  21.143  -5.950  0.00  0.00     0.043 A 
HETATM    6  C   UNK N   1      28.198  22.671  -6.312  0.00  0.00     0.040 A 
HETATM    7  C   UNK N   1      26.597  22.359  -8.239  0.00  0.00     0.158 A 
HETATM    8  F   UNK N   1      30.389  19.325  -7.447  0.00  0.00    -0.206 F 
HETATM    9  C   UNK N   1      27.446  23.876  -5.907  0.00  0.00     0.261 A 
HETATM   10  O   UNK N   1      24.969  24.057  -8.375  0.00  0.00    -0.271 OA
HETATM   11  N   UNK N   1      25.233  20.909  -9.531  0.00  0.00    -0.296 N 
HETATM   12  O   UNK N   1      25.805  21.534 -11.603  0.00  0.00    -0.273 OA
HETATM   13  O   UNK N   1      27.796  24.450  -4.887  0.00  0.00    -0.267 OA
HETATM   14  N   UNK N   1      26.381  24.341  -6.654  0.00  0.00    -0.278 N 
HETATM   15  C   UNK N   1      26.941  22.547  -9.744  0.00  0.00     0.137 A 
HETATM   16  C   UNK N   1      25.954  21.625 -10.396  0.00  0.00     0.226 A 
HETATM   17  C   UNK N   1      25.938  23.640  -7.749  0.00  0.00     0.250 A 
HETATM   18  O   UNK N   1      25.039  20.764  -7.307  0.00  0.00    -0.271 OA
HETATM   19  C   UNK N   1      25.566  21.260  -8.290  0.00  0.00     0.247 A 
HETATM   20  H   UNK N   1      24.561  20.230  -9.772  0.00  0.00     0.171 HD
ENDROOT
BRANCH  14  21
HETATM   21  C   UNK N   1      25.652  25.585  -6.349  0.00  0.00     0.177 C 
BRANCH  21  22
HETATM   22  C   UNK N   1      26.407  26.879  -6.266  0.00  0.00    -0.001 A 
HETATM   23  C   UNK N   1      27.335  27.234  -7.256  0.00  0.00     0.013 A 
HETATM   24  C   UNK N   1      28.051  28.430  -7.147  0.00  0.00     0.020 A 
HETATM   25  C   UNK N   1      27.822  29.283  -6.064  0.00  0.00     0.013 A 
HETATM   26  C   UNK N   1      26.867  28.952  -5.100  0.00  0.00     0.062 A 
HETATM   27 Br   UNK N   1      28.822  30.895  -5.893  0.00  0.00    -0.051 Br
HETATM   28  C   UNK N   1      26.156  27.754  -5.200  0.00  0.00     0.125 A 
HETATM   29  F   UNK N   1      25.226  27.445  -4.262  0.00  0.00    -0.205 F 
ENDBRANCH  21  22
ENDBRANCH  14  21
TORSDOF 2
ENDMDL
MODEL 2
REMARK VINA RESULT:      -8.1      2.196      4.510
REMARK  2 active torsions:
REMARK  status: ('A' for Active; 'I' for Inactive)
REMARK    1  A    between atoms: N_14  and  C_18 
REMARK    2  A    between atoms: C_18  and  C_19 
ROOT
HETATM    1  C   UNK N   1      30.034  21.073  -6.472  0.00  0.00     0.052 A 
HETATM    2  C   UNK N   1      27.642  21.551  -7.823  0.00  0.00     0.021 A 
HETATM    3  C   UNK N   1      29.156  22.067  -5.997  0.00  0.00    -0.012 A 
HETATM    4  C   UNK N   1      29.710  20.324  -7.607  0.00  0.00     0.117 A 
HETATM    5  C   UNK N   1      28.514  20.564  -8.284  0.00  0.00     0.043 A 
HETATM    6  C   UNK N   1      27.955  22.303  -6.679  0.00  0.00     0.040 A 
HETATM    7  C   UNK N   1      29.509  22.881  -4.775  0.00  0.00     0.158 A 
HETATM    8  F   UNK N   1      30.553  19.362  -8.052  0.00  0.00    -0.206 F 
HETATM    9  C   UNK N   1      27.009  23.327  -6.193  0.00  0.00     0.261 A 
HETATM   10  O   UNK N   1      28.641  24.536  -3.341  0.00  0.00    -0.271 OA
HETATM   11  N   UNK N   1      31.711  23.341  -4.018  0.00  0.00    -0.296 N 
HETATM   12  O   UNK N   1      31.802  22.054  -2.190  0.00  0.00    -0.273 OA
HETATM   13  O   UNK N   1      26.000  23.528  -6.851  0.00  0.00    -0.267 OA
HETATM   14  N   UNK N   1      27.255  24.038  -5.034  0.00  0.00    -0.278 N 
HETATM   15  C   UNK N   1      29.827  21.969  -3.555  0.00  0.00     0.137 A 
HETATM   16  C   UNK N   1      31.199  22.441  -3.177  0.00  0.00     0.226 A 
HETATM   17  C   UNK N   1      28.433  23.869  -4.349  0.00  0.00     0.250 A 
HETATM   18  O   UNK N   1      31.023  24.426  -5.851  0.00  0.00    -0.271 OA
HETATM   19  C   UNK N   1      30.811  23.616  -4.962  0.00  0.00     0.247 A 
HETATM   20  H   UNK N   1      32.610  23.738  -3.953  0.00  0.00     0.171 HD
ENDROOT
BRANCH  14  21
HETATM   21  C   UNK N   1      26.307  25.005  -4.453  0.00  0.00     0.177 C 
BRANCH  21  22
HETATM   22  C   UNK N   1      26.595  26.474  -4.560  0.00  0.00    -0.001 A 
HETATM   23  C   UNK N   1      26.939  27.050  -5.792  0.00  0.00     0.013 A 
HETATM   24  C   UNK N   1      27.234  28.414  -5.868  0.00  0.00     0.020 A 
HETATM   25  C   UNK N   1      27.160  29.209  -4.720  0.00  0.00     0.013 A 
HETATM   26  C   UNK N   1      26.775  28.645  -3.501  0.00  0.00     0.062 A 
HETATM   27 Br   UNK N   1      27.597  31.060  -4.813  0.00  0.00    -0.051 Br
HETATM   28  C   UNK N   1      26.489  27.281  -3.419  0.00  0.00     0.125 A 
HETATM   29  F   UNK N   1      26.110  26.745  -2.232  0.00  0.00    -0.205 F 
ENDBRANCH  21  22
ENDBRANCH  14  21
TORSDOF 2
ENDMDL
MODEL 3
REMARK VINA RESULT:      -8.0     13.157     15.266
REMARK  2 active torsions:
REMARK  status: ('A' for Active; 'I' for Inactive)
REMARK    1  A    between atoms: N_14  and  C_18 
REMARK    2  A    between atoms: C_18  and  C_19 
ROOT
HETATM    1  C   UNK N   1      33.473  17.254   6.532  0.00  0.00     0.052 A 
HETATM    2  C   UNK N   1      31.409  17.944   8.275  0.00  0.00     0.021 A 
HETATM    3  C   UNK N   1      32.149  16.895   6.215  0.00  0.00    -0.012 A 
HETATM    4  C   UNK N   1      33.755  17.958   7.708  0.00  0.00     0.117 A 
HETATM    5  C   UNK N   1      32.722  18.301   8.579  0.00  0.00     0.043 A 
HETATM    6  C   UNK N   1      31.114  17.244   7.093  0.00  0.00     0.040 A 
HETATM    7  C   UNK N   1      31.845  16.129   4.949  0.00  0.00     0.158 A 
HETATM    8  F   UNK N   1      35.029  18.311   8.001  0.00  0.00    -0.206 F 
HETATM    9  C   UNK N   1      29.715  16.894   6.776  0.00  0.00     0.261 A 
HETATM   10  O   UNK N   1      30.045  15.286   3.684  0.00  0.00    -0.271 OA
HETATM   11  N   UNK N   1      33.351  14.681   3.824  0.00  0.00    -0.296 N 
HETATM   12  O   UNK N   1      33.826  15.900   2.009  0.00  0.00    -0.273 OA
HETATM   13  O   UNK N   1      28.858  17.178   7.599  0.00  0.00    -0.267 OA
HETATM   14  N   UNK N   1      29.384  16.266   5.591  0.00  0.00    -0.278 N 
HETATM   15  C   UNK N   1      32.406  16.857   3.694  0.00  0.00     0.137 A 
HETATM   16  C   UNK N   1      33.263  15.788   3.084  0.00  0.00     0.226 A 
HETATM   17  C   UNK N   1      30.364  15.871   4.715  0.00  0.00     0.250 A 
HETATM   18  O   UNK N   1      32.478  13.938   5.746  0.00  0.00    -0.271 OA
HETATM   19  C   UNK N   1      32.588  14.819   4.909  0.00  0.00     0.247 A 
HETATM   20  H   UNK N   1      33.893  13.888   3.604  0.00  0.00     0.171 HD
ENDROOT
BRANCH  14  21
HETATM   21  C   UNK N   1      27.999  15.974   5.182  0.00  0.00     0.177 C 
BRANCH  21  22
HETATM   22  C   UNK N   1      27.154  17.073   4.608  0.00  0.00    -0.001 A 
HETATM   23  C   UNK N   1      27.720  18.310   4.265  0.00  0.00     0.013 A 
HETATM   24  C   UNK N   1      26.912  19.332   3.759  0.00  0.00     0.020 A 
HETATM   25  C   UNK N   1      25.545  19.113   3.571  0.00  0.00     0.013 A 
HETATM   26  C   UNK N   1      24.987  17.867   3.871  0.00  0.00     0.062 A 
HETATM   27 Br   UNK N   1      24.435  20.516   2.917  0.00  0.00    -0.051 Br
HETATM   28  C   UNK N   1      25.789  16.847   4.385  0.00  0.00     0.125 A 
HETATM   29  F   UNK N   1      25.238  15.639   4.667  0.00  0.00    -0.205 F 
ENDBRANCH  21  22
ENDBRANCH  14  21
TORSDOF 2
ENDMDL
MODEL 4
REMARK VINA RESULT:      -7.8     15.355     17.913
REMARK  2 active torsions:
REMARK  status: ('A' for Active; 'I' for Inactive)
REMARK    1  A    between atoms: N_14  and  C_18 
REMARK    2  A    between atoms: C_18  and  C_19 
ROOT
HETATM    1  C   UNK N   1      30.915  17.839   8.645  0.00  0.00     0.052 A 
HETATM    2  C   UNK N   1      29.412  17.597   6.309  0.00  0.00     0.021 A 
HETATM    3  C   UNK N   1      31.525  17.345   7.476  0.00  0.00    -0.012 A 
HETATM    4  C   UNK N   1      29.567  18.214   8.637  0.00  0.00     0.117 A 
HETATM    5  C   UNK N   1      28.816  18.091   7.469  0.00  0.00     0.043 A 
HETATM    6  C   UNK N   1      30.767  17.225   6.305  0.00  0.00     0.040 A 
HETATM    7  C   UNK N   1      32.979  16.934   7.486  0.00  0.00     0.158 A 
HETATM    8  F   UNK N   1      28.989  18.699   9.762  0.00  0.00    -0.206 F 
HETATM    9  C   UNK N   1      31.387  16.726   5.061  0.00  0.00     0.261 A 
HETATM   10  O   UNK N   1      34.694  16.169   6.064  0.00  0.00    -0.271 OA
HETATM   11  N   UNK N   1      34.182  16.180   9.388  0.00  0.00    -0.296 N 
HETATM   12  O   UNK N   1      35.515  17.938   9.762  0.00  0.00    -0.273 OA
HETATM   13  O   UNK N   1      30.670  16.594   4.081  0.00  0.00    -0.267 OA
HETATM   14  N   UNK N   1      32.732  16.415   5.005  0.00  0.00    -0.278 N 
HETATM   15  C   UNK N   1      33.893  18.084   7.996  0.00  0.00     0.137 A 
HETATM   16  C   UNK N   1      34.612  17.417   9.130  0.00  0.00     0.226 A 
HETATM   17  C   UNK N   1      33.510  16.481   6.134  0.00  0.00     0.250 A 
HETATM   18  O   UNK N   1      32.687  14.765   8.511  0.00  0.00    -0.271 OA
HETATM   19  C   UNK N   1      33.237  15.855   8.506  0.00  0.00     0.247 A 
HETATM   20  H   UNK N   1      34.508  15.601  10.115  0.00  0.00     0.171 HD
ENDROOT
BRANCH  14  21
HETATM   21  C   UNK N   1      33.422  16.000   3.771  0.00  0.00     0.177 C 
BRANCH  21  22
HETATM   22  C   UNK N   1      33.441  14.548   3.391  0.00  0.00    -0.001 A 
HETATM   23  C   UNK N   1      32.694  13.607   4.114  0.00  0.00     0.013 A 
HETATM   24  C   UNK N   1      32.747  12.255   3.765  0.00  0.00     0.020 A 
HETATM   25  C   UNK N   1      33.524  11.844   2.678  0.00  0.00     0.013 A 
HETATM   26  C   UNK N   1      34.235  12.787   1.930  0.00  0.00     0.062 A 
HETATM   27 Br   UNK N   1      33.628   9.999   2.223  0.00  0.00    -0.051 Br
HETATM   28  C   UNK N   1      34.192  14.137   2.282  0.00  0.00     0.125 A 
HETATM   29  F   UNK N   1      34.881  15.044   1.544  0.00  0.00    -0.205 F 
ENDBRANCH  21  22
ENDBRANCH  14  21
TORSDOF 2
ENDMDL
MODEL 5
REMARK VINA RESULT:      -7.7     15.395     17.969
REMARK  2 active torsions:
REMARK  status: ('A' for Active; 'I' for Inactive)
REMARK    1  A    between atoms: N_14  and  C_18 
REMARK    2  A    between atoms: C_18  and  C_19 
ROOT
HETATM    1  C   UNK N   1      29.893  16.340   4.695  0.00  0.00     0.052 A 
HETATM    2  C   UNK N   1      29.612  17.264   7.310  0.00  0.00     0.021 A 
HETATM    3  C   UNK N   1      31.037  16.498   5.501  0.00  0.00    -0.012 A 
HETATM    4  C   UNK N   1      28.623  16.636   5.200  0.00  0.00     0.117 A 
HETATM    5  C   UNK N   1      28.483  17.100   6.508  0.00  0.00     0.043 A 
HETATM    6  C   UNK N   1      30.891  16.962   6.815  0.00  0.00     0.040 A 
HETATM    7  C   UNK N   1      32.410  16.184   4.954  0.00  0.00     0.158 A 
HETATM    8  F   UNK N   1      27.526  16.471   4.423  0.00  0.00    -0.206 F 
HETATM    9  C   UNK N   1      32.072  17.121   7.687  0.00  0.00     0.261 A 
HETATM   10  O   UNK N   1      34.674  16.068   5.594  0.00  0.00    -0.271 OA
HETATM   11  N   UNK N   1      33.033  16.283   2.667  0.00  0.00    -0.296 N 
HETATM   12  O   UNK N   1      33.236  14.104   2.195  0.00  0.00    -0.273 OA
HETATM   13  O   UNK N   1      31.896  17.575   8.807  0.00  0.00    -0.267 OA
HETATM   14  N   UNK N   1      33.336  16.769   7.254  0.00  0.00    -0.278 N 
HETATM   15  C   UNK N   1      32.480  14.739   4.386  0.00  0.00     0.137 A 
HETATM   16  C   UNK N   1      32.948  14.989   2.983  0.00  0.00     0.226 A 
HETATM   17  C   UNK N   1      33.537  16.343   5.964  0.00  0.00     0.250 A 
HETATM   18  O   UNK N   1      32.732  18.235   3.718  0.00  0.00    -0.271 OA
HETATM   19  C   UNK N   1      32.717  17.015   3.735  0.00  0.00     0.247 A 
HETATM   20  H   UNK N   1      33.287  16.640   1.785  0.00  0.00     0.171 HD
ENDROOT
BRANCH  14  21
HETATM   21  C   UNK N   1      34.535  16.820   8.108  0.00  0.00     0.177 C 
BRANCH  21  22
HETATM   22  C   UNK N   1      34.701  15.812   9.207  0.00  0.00    -0.001 A 
HETATM   23  C   UNK N   1      34.344  14.470   9.009  0.00  0.00     0.013 A 
HETATM   24  C   UNK N   1      34.477  13.550  10.052  0.00  0.00     0.020 A 
HETATM   25  C   UNK N   1      34.990  13.962  11.285  0.00  0.00     0.013 A 
HETATM   26  C   UNK N   1      35.387  15.289  11.470  0.00  0.00     0.062 A 
HETATM   27 Br   UNK N   1      35.138  12.720  12.720  0.00  0.00    -0.051 Br
HETATM   28  C   UNK N   1      35.247  16.213  10.433  0.00  0.00     0.125 A 
HETATM   29  F   UNK N   1      35.642  17.498  10.621  0.00  0.00    -0.205 F 
ENDBRANCH  21  22
ENDBRANCH  14  21
TORSDOF 2
ENDMDL
MODEL 6
REMARK VINA RESULT:      -7.5     17.234     19.947
REMARK  2 active torsions:
REMARK  status: ('A' for Active; 'I' for Inactive)
REMARK    1  A    between atoms: N_14  and  C_18 
REMARK    2  A    between atoms: C_18  and  C_19 
ROOT
HETATM    1  C   UNK N   1      36.611  12.224   8.950  0.00  0.00     0.052 A 
HETATM    2  C   UNK N   1      36.349  12.919   6.262  0.00  0.00     0.021 A 
HETATM    3  C   UNK N   1      36.073  13.479   8.607  0.00  0.00    -0.012 A 
HETATM    4  C   UNK N   1      37.005  11.326   7.952  0.00  0.00     0.117 A 
HETATM    5  C   UNK N   1      36.876  11.675   6.609  0.00  0.00     0.043 A 
HETATM    6  C   UNK N   1      35.943  13.825   7.256  0.00  0.00     0.040 A 
HETATM    7  C   UNK N   1      35.652  14.452   9.684  0.00  0.00     0.158 A 
HETATM    8  F   UNK N   1      37.511  10.115   8.288  0.00  0.00    -0.206 F 
HETATM    9  C   UNK N   1      35.366  15.128   6.870  0.00  0.00     0.261 A 
HETATM   10  O   UNK N   1      34.634  16.555   9.982  0.00  0.00    -0.271 OA
HETATM   11  N   UNK N   1      36.550  14.545  11.879  0.00  0.00    -0.296 N 
HETATM   12  O   UNK N   1      34.833  13.741  13.068  0.00  0.00    -0.273 OA
HETATM   13  O   UNK N   1      35.320  15.400   5.680  0.00  0.00    -0.267 OA
HETATM   14  N   UNK N   1      34.894  16.013   7.820  0.00  0.00    -0.278 N 
HETATM   15  C   UNK N   1      34.641  13.805  10.673  0.00  0.00     0.137 A 
HETATM   16  C   UNK N   1      35.331  14.015  11.989  0.00  0.00     0.226 A 
HETATM   17  C   UNK N   1      35.032  15.738   9.158  0.00  0.00     0.250 A 
HETATM   18  O   UNK N   1      37.851  15.298  10.221  0.00  0.00    -0.271 OA
HETATM   19  C   UNK N   1      36.804  14.794  10.594  0.00  0.00     0.247 A 
HETATM   20  H   UNK N   1      37.166  14.723  12.627  0.00  0.00     0.171 HD
ENDROOT
BRANCH  14  21
HETATM   21  C   UNK N   1      34.229  17.286   7.490  0.00  0.00     0.177 C 
BRANCH  21  22
HETATM   22  C   UNK N   1      32.757  17.293   7.197  0.00  0.00    -0.001 A 
HETATM   23  C   UNK N   1      31.818  17.334   8.238  0.00  0.00     0.013 A 
HETATM   24  C   UNK N   1      30.451  17.310   7.949  0.00  0.00     0.020 A 
HETATM   25  C   UNK N   1      30.020  17.271   6.619  0.00  0.00     0.013 A 
HETATM   26  C   UNK N   1      30.954  17.275   5.580  0.00  0.00     0.062 A 
HETATM   27 Br   UNK N   1      28.160  17.201   6.222  0.00  0.00    -0.051 Br
HETATM   28  C   UNK N   1      32.321  17.289   5.866  0.00  0.00     0.125 A 
HETATM   29  F   UNK N   1      33.219  17.299   4.849  0.00  0.00    -0.205 F 
ENDBRANCH  21  22
ENDBRANCH  14  21
TORSDOF 2
ENDMDL
MODEL 7
REMARK VINA RESULT:      -7.5     22.615     25.142
REMARK  2 active torsions:
REMARK  status: ('A' for Active; 'I' for Inactive)
REMARK    1  A    between atoms: N_14  and  C_18 
REMARK    2  A    between atoms: C_18  and  C_19 
ROOT
HETATM    1  C   UNK N   1      35.509  10.814  16.259  0.00  0.00     0.052 A 
HETATM    2  C   UNK N   1      35.701  13.596  16.289  0.00  0.00     0.021 A 
HETATM    3  C   UNK N   1      35.839  11.499  15.074  0.00  0.00    -0.012 A 
HETATM    4  C   UNK N   1      35.286  11.519  17.446  0.00  0.00     0.117 A 
HETATM    5  C   UNK N   1      35.380  12.910  17.460  0.00  0.00     0.043 A 
HETATM    6  C   UNK N   1      35.935  12.897  15.093  0.00  0.00     0.040 A 
HETATM    7  C   UNK N   1      36.074  10.739  13.789  0.00  0.00     0.158 A 
HETATM    8  F   UNK N   1      34.980  10.853  18.586  0.00  0.00    -0.206 F 
HETATM    9  C   UNK N   1      36.296  13.638  13.868  0.00  0.00     0.261 A 
HETATM   10  O   UNK N   1      36.727  11.053  11.548  0.00  0.00    -0.271 OA
HETATM   11  N   UNK N   1      35.134   8.628  13.250  0.00  0.00    -0.296 N 
HETATM   12  O   UNK N   1      36.939   7.314  13.408  0.00  0.00    -0.273 OA
HETATM   13  O   UNK N   1      36.317  14.858  13.927  0.00  0.00    -0.267 OA
HETATM   14  N   UNK N   1      36.598  12.978  12.693  0.00  0.00    -0.278 N 
HETATM   15  C   UNK N   1      37.160   9.640  13.968  0.00  0.00     0.137 A 
HETATM   16  C   UNK N   1      36.422   8.413  13.523  0.00  0.00     0.226 A 
HETATM   17  C   UNK N   1      36.484  11.612  12.612  0.00  0.00     0.250 A 
HETATM   18  O   UNK N   1      33.757  10.392  13.200  0.00  0.00    -0.271 OA
HETATM   19  C   UNK N   1      34.866   9.925  13.405  0.00  0.00     0.247 A 
HETATM   20  H   UNK N   1      34.484   7.940  12.978  0.00  0.00     0.171 HD
ENDROOT
BRANCH  14  21
HETATM   21  C   UNK N   1      37.051  13.659  11.467  0.00  0.00     0.177 C 
BRANCH  21  22
HETATM   22  C   UNK N   1      36.102  14.559  10.732  0.00  0.00    -0.001 A 
HETATM   23  C   UNK N   1      36.154  15.950  10.902  0.00  0.00     0.013 A 
HETATM   24  C   UNK N   1      35.244  16.772  10.232  0.00  0.00     0.020 A 
HETATM   25  C   UNK N   1      34.298  16.208   9.371  0.00  0.00     0.013 A 
HETATM   26  C   UNK N   1      34.273  14.826   9.167  0.00  0.00     0.062 A 
HETATM   27 Br   UNK N   1      33.032  17.320   8.485  0.00  0.00    -0.051 Br
HETATM   28  C   UNK N   1      35.175  14.001   9.842  0.00  0.00     0.125 A 
HETATM   29  F   UNK N   1      35.146  12.661   9.630  0.00  0.00    -0.205 F 
ENDBRANCH  21  22
ENDBRANCH  14  21
TORSDOF 2
ENDMDL
MODEL 8
REMARK VINA RESULT:      -7.5     18.464     21.225
REMARK  2 active torsions:
REMARK  status: ('A' for Active; 'I' for Inactive)
REMARK    1  A    between atoms: N_14  and  C_18 
REMARK    2  A    between atoms: C_18  and  C_19 
ROOT
HETATM    1  C   UNK N   1      32.251  15.703   6.986  0.00  0.00     0.052 A 
HETATM    2  C   UNK N   1      33.129  17.662   8.765  0.00  0.00     0.021 A 
HETATM    3  C   UNK N   1      33.424  15.485   7.735  0.00  0.00    -0.012 A 
HETATM    4  C   UNK N   1      31.525  16.889   7.136  0.00  0.00     0.117 A 
HETATM    5  C   UNK N   1      31.965  17.869   8.025  0.00  0.00     0.043 A 
HETATM    6  C   UNK N   1      33.861  16.471   8.628  0.00  0.00     0.040 A 
HETATM    7  C   UNK N   1      34.212  14.207   7.568  0.00  0.00     0.158 A 
HETATM    8  F   UNK N   1      30.392  17.088   6.421  0.00  0.00    -0.206 F 
HETATM    9  C   UNK N   1      35.077  16.260   9.438  0.00  0.00     0.261 A 
HETATM   10  O   UNK N   1      36.079  13.059   8.433  0.00  0.00    -0.271 OA
HETATM   11  N   UNK N   1      34.260  12.866   5.611  0.00  0.00    -0.296 N 
HETATM   12  O   UNK N   1      33.076  11.093   6.290  0.00  0.00    -0.273 OA
HETATM   13  O   UNK N   1      35.443  17.171  10.165  0.00  0.00    -0.267 OA
HETATM   14  N   UNK N   1      35.783  15.074   9.376  0.00  0.00    -0.278 N 
HETATM   15  C   UNK N   1      33.319  12.953   7.791  0.00  0.00     0.137 A 
HETATM   16  C   UNK N   1      33.524  12.205   6.507  0.00  0.00     0.226 A 
HETATM   17  C   UNK N   1      35.416  14.090   8.491  0.00  0.00     0.250 A 
HETATM   18  O   UNK N   1      35.365  14.810   5.533  0.00  0.00    -0.271 OA
HETATM   19  C   UNK N   1      34.661  14.021   6.142  0.00  0.00     0.247 A 
HETATM   20  H   UNK N   1      34.471  12.551   4.702  0.00  0.00     0.171 HD
ENDROOT
BRANCH  14  21
HETATM   21  C   UNK N   1      36.949  14.773  10.225  0.00  0.00     0.177 C 
BRANCH  21  22
HETATM   22  C   UNK N   1      36.750  14.036  11.517  0.00  0.00    -0.001 A 
HETATM   23  C   UNK N   1      35.939  14.569  12.530  0.00  0.00     0.013 A 
HETATM   24  C   UNK N   1      35.788  13.884  13.738  0.00  0.00     0.020 A 
HETATM   25  C   UNK N   1      36.424  12.653  13.927  0.00  0.00     0.013 A 
HETATM   26  C   UNK N   1      37.197  12.100  12.902  0.00  0.00     0.062 A 
HETATM   27 Br   UNK N   1      36.251  11.735  15.585  0.00  0.00    -0.051 Br
HETATM   28  C   UNK N   1      37.358  12.786  11.697  0.00  0.00     0.125 A 
HETATM   29  F   UNK N   1      38.104  12.237  10.707  0.00  0.00    -0.205 F 
ENDBRANCH  21  22
ENDBRANCH  14  21
TORSDOF 2
ENDMDL
MODEL 9
REMARK VINA RESULT:      -7.5      3.824      7.285
REMARK  2 active torsions:
REMARK  status: ('A' for Active; 'I' for Inactive)
REMARK    1  A    between atoms: N_14  and  C_18 
REMARK    2  A    between atoms: C_18  and  C_19 
ROOT
HETATM    1  C   UNK N   1      27.221  28.815  -5.342  0.00  0.00     0.052 A 
HETATM    2  C   UNK N   1      26.363  27.069  -3.344  0.00  0.00     0.021 A 
HETATM    3  C   UNK N   1      27.567  27.452  -5.417  0.00  0.00    -0.012 A 
HETATM    4  C   UNK N   1      26.446  29.293  -4.280  0.00  0.00     0.117 A 
HETATM    5  C   UNK N   1      26.020  28.419  -3.280  0.00  0.00     0.043 A 
HETATM    6  C   UNK N   1      27.134  26.578  -4.411  0.00  0.00     0.040 A 
HETATM    7  C   UNK N   1      28.408  26.936  -6.561  0.00  0.00     0.158 A 
HETATM    8  F   UNK N   1      26.107  30.602  -4.220  0.00  0.00    -0.206 F 
HETATM    9  C   UNK N   1      27.468  25.141  -4.474  0.00  0.00     0.261 A 
HETATM   10  O   UNK N   1      29.289  24.944  -7.458  0.00  0.00    -0.271 OA
HETATM   11  N   UNK N   1      29.967  28.219  -7.808  0.00  0.00    -0.296 N 
HETATM   12  O   UNK N   1      28.885  28.412  -9.757  0.00  0.00    -0.273 OA
HETATM   13  O   UNK N   1      27.108  24.432  -3.547  0.00  0.00    -0.267 OA
HETATM   14  N   UNK N   1      28.166  24.614  -5.543  0.00  0.00    -0.278 N 
HETATM   15  C   UNK N   1      27.781  27.297  -7.938  0.00  0.00     0.137 A 
HETATM   16  C   UNK N   1      28.910  28.028  -8.600  0.00  0.00     0.226 A 
HETATM   17  C   UNK N   1      28.644  25.433  -6.536  0.00  0.00     0.250 A 
HETATM   18  O   UNK N   1      30.556  27.659  -5.723  0.00  0.00    -0.271 OA
HETATM   19  C   UNK N   1      29.736  27.644  -6.627  0.00  0.00     0.247 A 
HETATM   20  H   UNK N   1      30.786  28.707  -8.055  0.00  0.00     0.171 HD
ENDROOT
BRANCH  14  21
HETATM   21  C   UNK N   1      28.449  23.176  -5.704  0.00  0.00     0.177 C 
BRANCH  21  22
HETATM   22  C   UNK N   1      29.688  22.597  -5.087  0.00  0.00    -0.001 A 
HETATM   23  C   UNK N   1      30.397  23.301  -4.103  0.00  0.00     0.013 A 
HETATM   24  C   UNK N   1      31.566  22.759  -3.561  0.00  0.00     0.020 A 
HETATM   25  C   UNK N   1      32.014  21.504  -3.982  0.00  0.00     0.013 A 
HETATM   26  C   UNK N   1      31.285  20.782  -4.931  0.00  0.00     0.062 A 
HETATM   27 Br   UNK N   1      33.626  20.780  -3.273  0.00  0.00    -0.051 Br
HETATM   28  C   UNK N   1      30.122  21.324  -5.481  0.00  0.00     0.125 A 
HETATM   29  F   UNK N   1      29.419  20.612  -6.397  0.00  0.00    -0.205 F 
ENDBRANCH  21  22
ENDBRANCH  14  21
TORSDOF 2
ENDMDL
