REMARK  2 active torsions:
REMARK  status: ('A' for Active; 'I' for Inactive)
REMARK    1  A    between atoms: N_14  and  C_18 
REMARK    2  A    between atoms: C_18  and  C_19 
ROOT
HETATM    1  C   UNK N   1       0.754   3.514   0.027  0.00  0.00     0.052 A 
HETATM    2  C   UNK N   1       2.483   1.335  -0.165  0.00  0.00     0.021 A 
HETATM    3  C   UNK N   1       0.225   2.209  -0.000  0.00  0.00    -0.012 A 
HETATM    4  C   UNK N   1       2.136   3.720  -0.034  0.00  0.00     0.117 A 
HETATM    5  C   UNK N   1       3.000   2.630  -0.132  0.00  0.00     0.043 A 
HETATM    6  C   UNK N   1       1.097   1.117  -0.096  0.00  0.00     0.040 A 
HETATM    7  C   UNK N   1      -1.268   1.986   0.060  0.00  0.00     0.158 A 
HETATM    8  F   UNK N   1       2.639   4.977   0.004  0.00  0.00    -0.206 F 
HETATM    9  C   UNK N   1       0.570  -0.262  -0.109  0.00  0.00     0.261 A 
HETATM   10  O   UNK N   1      -2.879   0.271   0.172  0.00  0.00    -0.271 OA
HETATM   11  N   UNK N   1      -2.918   3.526  -0.673  0.00  0.00    -0.296 N 
HETATM   12  O   UNK N   1      -3.758   4.203   1.288  0.00  0.00    -0.273 OA
HETATM   13  O   UNK N   1       1.369  -1.176  -0.244  0.00  0.00    -0.267 OA
HETATM   14  N   UNK N   1      -0.782  -0.514   0.025  0.00  0.00    -0.278 N 
HETATM   15  C   UNK N   1      -1.899   2.681   1.300  0.00  0.00     0.137 A 
HETATM   16  C   UNK N   1      -2.945   3.545   0.661  0.00  0.00     0.226 A 
HETATM   17  C   UNK N   1      -1.681   0.522   0.086  0.00  0.00     0.250 A 
HETATM   18  O   UNK N   1      -1.751   2.463  -2.259  0.00  0.00    -0.271 OA
HETATM   19  C   UNK N   1      -1.972   2.679  -1.078  0.00  0.00     0.247 A 
HETATM   20  H   UNK N   1      -3.503   4.054  -1.264  0.00  0.00     0.171 HD
ENDROOT
BRANCH  14  21
HETATM   21  C   UNK N   1      -1.355  -1.869   0.109  0.00  0.00     0.177 C 
BRANCH  21  22
HETATM   22  C   UNK N   1      -0.439  -3.048   0.258  0.00  0.00    -0.001 A 
HETATM   23  C   UNK N   1       0.414  -3.159   1.366  0.00  0.00     0.013 A 
HETATM   24  C   UNK N   1       1.282  -4.249   1.474  0.00  0.00     0.020 A 
HETATM   25  C   UNK N   1       1.281  -5.242   0.490  0.00  0.00     0.013 A 
HETATM   26  C   UNK N   1       0.401  -5.155  -0.592  0.00  0.00     0.062 A 
HETATM   27 Br   UNK N   1       2.488  -6.709   0.615  0.00  0.00    -0.051 Br
HETATM   28  C   UNK N   1      -0.461  -4.063  -0.708  0.00  0.00     0.125 A 
HETATM   29  F   UNK N   1      -1.316  -3.992  -1.759  0.00  0.00    -0.205 F 
ENDBRANCH  21  22
ENDBRANCH  14  21
TORSDOF 2
