REMARK  6 active torsions:
REMARK  status: ('A' for Active; 'I' for Inactive)
REMARK    1  A    between atoms: C_6  and  N_9 
REMARK       I    between atoms: N_9  and  C_10 
REMARK       I    between atoms: C_10  and  N_12 
REMARK    2  A    between atoms: C_13  and  N_12 
REMARK    3  A    between atoms: C_15  and  C_16 
REMARK    4  A    between atoms: C_21  and  C_24 
REMARK    5  A    between atoms: C_22  and  O_23 
REMARK    6  A    between atoms: C_24  and  C_26 
ROOT
HETATM    1  C   UNK N   1       1.769  -1.088   0.330  0.00  0.00     0.095 A 
HETATM    2  C   UNK N   1       1.425  -1.912  -0.852  0.00  0.00     0.037 A 
HETATM    3  C   UNK N   1       0.821  -2.283   0.516  0.00  0.00     0.049 A 
ENDROOT
BRANCH   1   4
HETATM    4  N   UNK N   1       1.281   0.274   0.247  0.00  0.00    -0.338 N 
HETATM    5  C   UNK N   1       2.194   1.244  -0.038  0.00  0.00     0.322 C 
HETATM    6  N   UNK N   1       1.859   2.565   0.030  0.00  0.00    -0.295 N 
HETATM    7  O   UNK N   1       3.340   0.919  -0.318  0.00  0.00    -0.247 OA
HETATM    8  H   UNK N   1       0.914   2.811   0.152  0.00  0.00     0.172 HD
HETATM    9  H   UNK N   1       0.331   0.488   0.391  0.00  0.00     0.164 HD
BRANCH   6  10
HETATM   10  C   UNK N   1       2.839   3.606  -0.069  0.00  0.00     0.108 A 
HETATM   11  N   UNK N   1       4.171   3.304  -0.078  0.00  0.00    -0.351 N 
HETATM   12  C   UNK N   1       5.135   4.258  -0.105  0.00  0.00     0.108 A 
ATOM     13  HN  UNK N   1       4.452   2.324  -0.063  1.00  0.00     0.166 HD
HETATM   14  C   UNK N   1       4.779   5.601  -0.120  0.00  0.00     0.026 A 
HETATM   15 Br   UNK N   1       6.141   6.934  -0.130  0.00  0.00    -0.050 Br
HETATM   16  C   UNK N   1       3.426   5.950  -0.112  0.00  0.00     0.024 A 
HETATM   17  C   UNK N   1       2.445   4.949  -0.082  0.00  0.00     0.050 A 
ENDBRANCH   6  10
ENDBRANCH   1   4
BRANCH   3  18
HETATM   18  C   UNK N   1      -0.617  -2.608   0.158  0.00  0.00     0.021 A 
HETATM   19  C   UNK N   1      -0.937  -3.960  -0.102  0.00  0.00     0.126 A 
HETATM   20  F   UNK N   1       0.019  -4.923  -0.068  0.00  0.00    -0.205 F 
HETATM   21  C   UNK N   1      -2.239  -4.336  -0.398  0.00  0.00     0.044 A 
HETATM   22  C   UNK N   1      -3.247  -3.387  -0.432  0.00  0.00     0.021 A 
HETATM   23  C   UNK N   1      -2.984  -2.039  -0.161  0.00  0.00     0.043 A 
HETATM   24  C   UNK N   1      -1.651  -1.642   0.134  0.00  0.00     0.089 A 
BRANCH  23  25
HETATM   25  C   UNK N   1      -4.125  -1.074  -0.177  0.00  0.00     0.162 C 
HETATM   26  O   UNK N   1      -3.942   0.101   0.099  0.00  0.00    -0.292 OA
BRANCH  25  27
HETATM   27  C   UNK N   1      -5.515  -1.508  -0.576  0.00  0.00     0.079 C 
HETATM   28  C   UNK N   1      -6.034  -2.693   0.229  0.00  0.00     0.013 C 
ENDBRANCH  25  27
ENDBRANCH  23  25
BRANCH  24  29
HETATM   29  O   UNK N   1      -1.372  -0.355   0.402  0.00  0.00    -0.359 OA
HETATM   30  H   UNK N   1      -0.497  -0.074   0.589  0.00  0.00     0.217 HD
ENDBRANCH  24  29
ENDBRANCH   3  18
TORSDOF 6
