MODEL 1
REMARK VINA RESULT:      -7.3      0.000      0.000
REMARK  6 active torsions:
REMARK  status: ('A' for Active; 'I' for Inactive)
REMARK    1  A    between atoms: C_6  and  N_9 
REMARK       I    between atoms: N_9  and  C_10 
REMARK       I    between atoms: C_10  and  N_12 
REMARK    2  A    between atoms: C_13  and  N_12 
REMARK    3  A    between atoms: C_15  and  C_16 
REMARK    4  A    between atoms: C_21  and  C_24 
REMARK    5  A    between atoms: C_22  and  O_23 
REMARK    6  A    between atoms: C_24  and  C_26 
ROOT
HETATM    1  C   UNK N   1      34.954  15.991   9.409  0.00  0.00     0.095 A 
HETATM    2  C   UNK N   1      35.607  14.791   8.836  0.00  0.00     0.037 A 
HETATM    3  C   UNK N   1      36.104  15.334  10.189  0.00  0.00     0.049 A 
ENDROOT
BRANCH   1   4
HETATM    4  N   UNK N   1      33.565  15.779   9.765  0.00  0.00    -0.338 N 
HETATM    5  C   UNK N   1      32.624  16.331   8.949  0.00  0.00     0.322 C 
HETATM    6  N   UNK N   1      31.305  16.327   9.295  0.00  0.00    -0.295 N 
HETATM    7  O   UNK N   1      32.981  16.873   7.911  0.00  0.00    -0.247 OA
HETATM    8  H   UNK N   1      31.019  15.799  10.075  0.00  0.00     0.172 HD
HETATM    9  H   UNK N   1      33.313  15.259  10.562  0.00  0.00     0.164 HD
BRANCH   6  10
HETATM   10  C   UNK N   1      30.321  17.067   8.562  0.00  0.00     0.108 A 
HETATM   11  N   UNK N   1      30.191  16.897   7.213  0.00  0.00    -0.351 N 
HETATM   12  C   UNK N   1      29.320  17.622   6.467  0.00  0.00     0.108 A 
ATOM     13  HN  UNK N   1      30.772  16.200   6.748  1.00  0.00     0.166 HD
HETATM   14  C   UNK N   1      28.522  18.583   7.075  0.00  0.00     0.026 A 
HETATM   15 Br   UNK N   1      27.321  19.615   6.014  0.00  0.00    -0.050 Br
HETATM   16  C   UNK N   1      28.626  18.786   8.454  0.00  0.00     0.024 A 
HETATM   17  C   UNK N   1      29.533  18.028   9.206  0.00  0.00     0.050 A 
ENDBRANCH   6  10
ENDBRANCH   1   4
BRANCH   3  18
HETATM   18  C   UNK N   1      36.296  14.065  10.997  0.00  0.00     0.021 A 
HETATM   19  C   UNK N   1      37.549  13.416  10.908  0.00  0.00     0.126 A 
HETATM   20  F   UNK N   1      38.527  13.894  10.097  0.00  0.00    -0.205 F 
HETATM   21  C   UNK N   1      37.809  12.272  11.648  0.00  0.00     0.044 A 
HETATM   22  C   UNK N   1      36.843  11.757  12.496  0.00  0.00     0.021 A 
HETATM   23  C   UNK N   1      35.595  12.376  12.635  0.00  0.00     0.043 A 
HETATM   24  C   UNK N   1      35.315  13.543  11.873  0.00  0.00     0.089 A 
BRANCH  23  25
HETATM   25  C   UNK N   1      34.613  11.789  13.596  0.00  0.00     0.162 C 
HETATM   26  O   UNK N   1      34.193  12.452  14.531  0.00  0.00    -0.292 OA
BRANCH  25  27
HETATM   27  C   UNK N   1      34.078  10.388  13.416  0.00  0.00     0.079 C 
HETATM   28  C   UNK N   1      33.667  10.076  11.982  0.00  0.00     0.013 C 
ENDBRANCH  25  27
ENDBRANCH  23  25
BRANCH  24  29
HETATM   29  O   UNK N   1      34.126  14.159  11.991  0.00  0.00    -0.359 OA
HETATM   30  H   UNK N   1      33.322  13.700  11.841  0.00  0.00     0.217 HD
ENDBRANCH  24  29
ENDBRANCH   3  18
TORSDOF 6
ENDMDL
MODEL 2
REMARK VINA RESULT:      -7.0      4.124      9.488
REMARK  6 active torsions:
REMARK  status: ('A' for Active; 'I' for Inactive)
REMARK    1  A    between atoms: C_6  and  N_9 
REMARK       I    between atoms: N_9  and  C_10 
REMARK       I    between atoms: C_10  and  N_12 
REMARK    2  A    between atoms: C_13  and  N_12 
REMARK    3  A    between atoms: C_15  and  C_16 
REMARK    4  A    between atoms: C_21  and  C_24 
REMARK    5  A    between atoms: C_22  and  O_23 
REMARK    6  A    between atoms: C_24  and  C_26 
ROOT
HETATM    1  C   UNK N   1      32.719  16.032   7.630  0.00  0.00     0.095 A 
HETATM    2  C   UNK N   1      32.362  17.213   6.810  0.00  0.00     0.037 A 
HETATM    3  C   UNK N   1      31.265  16.188   7.159  0.00  0.00     0.049 A 
ENDROOT
BRANCH   1   4
HETATM    4  N   UNK N   1      33.130  16.367   8.979  0.00  0.00    -0.338 N 
HETATM    5  C   UNK N   1      33.926  15.471   9.626  0.00  0.00     0.322 C 
HETATM    6  N   UNK N   1      34.221  15.622  10.949  0.00  0.00    -0.295 N 
HETATM    7  O   UNK N   1      34.344  14.496   9.015  0.00  0.00    -0.247 OA
HETATM    8  H   UNK N   1      33.969  16.459  11.401  0.00  0.00     0.172 HD
HETATM    9  H   UNK N   1      32.846  17.206   9.408  0.00  0.00     0.164 HD
BRANCH   6  10
HETATM   10  C   UNK N   1      34.886  14.600  11.703  0.00  0.00     0.108 A 
HETATM   11  N   UNK N   1      34.485  13.298  11.609  0.00  0.00    -0.351 N 
HETATM   12  C   UNK N   1      35.041  12.308  12.352  0.00  0.00     0.108 A 
ATOM     13  HN  UNK N   1      33.738  13.061  10.957  1.00  0.00     0.166 HD
HETATM   14  C   UNK N   1      36.056  12.606  13.252  0.00  0.00     0.026 A 
HETATM   15 Br   UNK N   1      36.812  11.212  14.310  0.00  0.00    -0.050 Br
HETATM   16  C   UNK N   1      36.495  13.926  13.376  0.00  0.00     0.024 A 
HETATM   17  C   UNK N   1      35.906  14.936  12.602  0.00  0.00     0.050 A 
ENDBRANCH   6  10
ENDBRANCH   1   4
BRANCH   3  18
HETATM   18  C   UNK N   1      30.089  17.080   7.510  0.00  0.00     0.021 A 
HETATM   19  C   UNK N   1      29.747  17.204   8.876  0.00  0.00     0.126 A 
HETATM   20  F   UNK N   1      30.427  16.520   9.831  0.00  0.00    -0.205 F 
HETATM   21  C   UNK N   1      28.707  18.032   9.274  0.00  0.00     0.044 A 
HETATM   22  C   UNK N   1      27.995  18.757   8.333  0.00  0.00     0.021 A 
HETATM   23  C   UNK N   1      28.309  18.683   6.970  0.00  0.00     0.043 A 
HETATM   24  C   UNK N   1      29.367  17.830   6.551  0.00  0.00     0.089 A 
BRANCH  23  25
HETATM   25  C   UNK N   1      27.526  19.521   6.013  0.00  0.00     0.162 C 
HETATM   26  O   UNK N   1      26.795  18.995   5.189  0.00  0.00    -0.292 OA
BRANCH  25  27
HETATM   27  C   UNK N   1      27.577  21.029   6.066  0.00  0.00     0.079 C 
HETATM   28  C   UNK N   1      26.379  21.652   6.772  0.00  0.00     0.013 C 
ENDBRANCH  25  27
ENDBRANCH  23  25
BRANCH  24  29
HETATM   29  O   UNK N   1      29.692  17.744   5.250  0.00  0.00    -0.359 OA
HETATM   30  H   UNK N   1      29.986  16.938   4.873  0.00  0.00     0.217 HD
ENDBRANCH  24  29
ENDBRANCH   3  18
TORSDOF 6
ENDMDL
MODEL 3
REMARK VINA RESULT:      -6.9     10.331     13.293
REMARK  6 active torsions:
REMARK  status: ('A' for Active; 'I' for Inactive)
REMARK    1  A    between atoms: C_6  and  N_9 
REMARK       I    between atoms: N_9  and  C_10 
REMARK       I    between atoms: C_10  and  N_12 
REMARK    2  A    between atoms: C_13  and  N_12 
REMARK    3  A    between atoms: C_15  and  C_16 
REMARK    4  A    between atoms: C_21  and  C_24 
REMARK    5  A    between atoms: C_22  and  O_23 
REMARK    6  A    between atoms: C_24  and  C_26 
ROOT
HETATM    1  C   UNK N   1      21.362  16.893   4.870  0.00  0.00     0.095 A 
HETATM    2  C   UNK N   1      21.392  17.463   3.503  0.00  0.00     0.037 A 
HETATM    3  C   UNK N   1      21.918  18.312   4.676  0.00  0.00     0.049 A 
ENDROOT
BRANCH   1   4
HETATM    4  N   UNK N   1      22.230  15.744   5.036  0.00  0.00    -0.338 N 
HETATM    5  C   UNK N   1      22.165  15.084   6.226  0.00  0.00     0.322 C 
HETATM    6  N   UNK N   1      23.060  14.101   6.533  0.00  0.00    -0.295 N 
HETATM    7  O   UNK N   1      21.314  15.412   7.042  0.00  0.00    -0.247 OA
HETATM    8  H   UNK N   1      23.669  13.775   5.832  0.00  0.00     0.172 HD
HETATM    9  H   UNK N   1      22.841  15.455   4.320  0.00  0.00     0.164 HD
BRANCH   6  10
HETATM   10  C   UNK N   1      23.142  13.528   7.844  0.00  0.00     0.108 A 
HETATM   11  N   UNK N   1      22.013  13.106   8.488  0.00  0.00    -0.351 N 
HETATM   12  C   UNK N   1      22.034  12.618   9.753  0.00  0.00     0.108 A 
ATOM     13  HN  UNK N   1      21.120  13.161   7.999  1.00  0.00     0.166 HD
HETATM   14  C   UNK N   1      23.237  12.538  10.444  0.00  0.00     0.026 A 
HETATM   15 Br   UNK N   1      23.252  11.876  12.231  0.00  0.00    -0.050 Br
HETATM   16  C   UNK N   1      24.414  12.959   9.819  0.00  0.00     0.024 A 
HETATM   17  C   UNK N   1      24.371  13.463   8.511  0.00  0.00     0.050 A 
ENDBRANCH   6  10
ENDBRANCH   1   4
BRANCH   3  18
HETATM   18  C   UNK N   1      23.176  18.927   4.092  0.00  0.00     0.021 A 
HETATM   19  C   UNK N   1      23.021  20.022   3.212  0.00  0.00     0.126 A 
HETATM   20  F   UNK N   1      21.788  20.479   2.876  0.00  0.00    -0.205 F 
HETATM   21  C   UNK N   1      24.129  20.659   2.671  0.00  0.00     0.044 A 
HETATM   22  C   UNK N   1      25.405  20.232   2.997  0.00  0.00     0.021 A 
HETATM   23  C   UNK N   1      25.610  19.165   3.880  0.00  0.00     0.043 A 
HETATM   24  C   UNK N   1      24.481  18.500   4.433  0.00  0.00     0.089 A 
BRANCH  23  25
HETATM   25  C   UNK N   1      27.014  18.781   4.219  0.00  0.00     0.162 C 
HETATM   26  O   UNK N   1      27.394  17.632   4.058  0.00  0.00    -0.292 OA
BRANCH  25  27
HETATM   27  C   UNK N   1      28.009  19.801   4.720  0.00  0.00     0.079 C 
HETATM   28  C   UNK N   1      27.518  20.579   5.934  0.00  0.00     0.013 C 
ENDBRANCH  25  27
ENDBRANCH  23  25
BRANCH  24  29
HETATM   29  O   UNK N   1      24.650  17.476   5.287  0.00  0.00    -0.359 OA
HETATM   30  H   UNK N   1      25.348  16.859   5.177  0.00  0.00     0.217 HD
ENDBRANCH  24  29
ENDBRANCH   3  18
TORSDOF 6
ENDMDL
MODEL 4
REMARK VINA RESULT:      -6.8      4.188      8.592
REMARK  6 active torsions:
REMARK  status: ('A' for Active; 'I' for Inactive)
REMARK    1  A    between atoms: C_6  and  N_9 
REMARK       I    between atoms: N_9  and  C_10 
REMARK       I    between atoms: C_10  and  N_12 
REMARK    2  A    between atoms: C_13  and  N_12 
REMARK    3  A    between atoms: C_15  and  C_16 
REMARK    4  A    between atoms: C_21  and  C_24 
REMARK    5  A    between atoms: C_22  and  O_23 
REMARK    6  A    between atoms: C_24  and  C_26 
ROOT
HETATM    1  C   UNK N   1      34.079  16.263   7.215  0.00  0.00     0.095 A 
HETATM    2  C   UNK N   1      33.806  17.489   6.428  0.00  0.00     0.037 A 
HETATM    3  C   UNK N   1      32.928  16.244   6.197  0.00  0.00     0.049 A 
ENDROOT
BRANCH   1   4
HETATM    4  N   UNK N   1      33.844  16.425   8.636  0.00  0.00    -0.338 N 
HETATM    5  C   UNK N   1      34.580  15.648   9.479  0.00  0.00     0.322 C 
HETATM    6  N   UNK N   1      34.309  15.611  10.816  0.00  0.00    -0.295 N 
HETATM    7  O   UNK N   1      35.469  14.945   9.017  0.00  0.00    -0.247 OA
HETATM    8  H   UNK N   1      33.667  16.256  11.189  0.00  0.00     0.172 HD
HETATM    9  H   UNK N   1      33.181  17.068   8.976  0.00  0.00     0.164 HD
BRANCH   6  10
HETATM   10  C   UNK N   1      34.930  14.662  11.693  0.00  0.00     0.108 A 
HETATM   11  N   UNK N   1      34.569  13.346  11.655  0.00  0.00    -0.351 N 
HETATM   12  C   UNK N   1      35.081  12.424  12.509  0.00  0.00     0.108 A 
ATOM     13  HN  UNK N   1      33.888  13.043  10.959  1.00  0.00     0.166 HD
HETATM   14  C   UNK N   1      36.006  12.811  13.471  0.00  0.00     0.026 A 
HETATM   15 Br   UNK N   1      36.698  11.514  14.683  0.00  0.00    -0.050 Br
HETATM   16  C   UNK N   1      36.401  14.150  13.541  0.00  0.00     0.024 A 
HETATM   17  C   UNK N   1      35.858  15.087  12.650  0.00  0.00     0.050 A 
ENDBRANCH   6  10
ENDBRANCH   1   4
BRANCH   3  18
HETATM   18  C   UNK N   1      31.537  16.842   6.102  0.00  0.00     0.021 A 
HETATM   19  C   UNK N   1      31.137  17.375   4.856  0.00  0.00     0.126 A 
HETATM   20  F   UNK N   1      31.985  17.384   3.796  0.00  0.00    -0.205 F 
HETATM   21  C   UNK N   1      29.866  17.903   4.686  0.00  0.00     0.044 A 
HETATM   22  C   UNK N   1      28.966  17.904   5.738  0.00  0.00     0.021 A 
HETATM   23  C   UNK N   1      29.307  17.368   6.986  0.00  0.00     0.043 A 
HETATM   24  C   UNK N   1      30.611  16.833   7.173  0.00  0.00     0.089 A 
BRANCH  23  25
HETATM   25  C   UNK N   1      28.275  17.366   8.066  0.00  0.00     0.162 C 
HETATM   26  O   UNK N   1      27.445  16.473   8.124  0.00  0.00    -0.292 OA
BRANCH  25  27
HETATM   27  C   UNK N   1      28.256  18.432   9.135  0.00  0.00     0.079 C 
HETATM   28  C   UNK N   1      29.636  18.753   9.697  0.00  0.00     0.013 C 
ENDBRANCH  25  27
ENDBRANCH  23  25
BRANCH  24  29
HETATM   29  O   UNK N   1      30.963  16.309   8.359  0.00  0.00    -0.359 OA
HETATM   30  H   UNK N   1      31.595  15.618   8.419  0.00  0.00     0.217 HD
ENDBRANCH  24  29
ENDBRANCH   3  18
TORSDOF 6
ENDMDL
MODEL 5
REMARK VINA RESULT:      -6.7     16.930     19.560
REMARK  6 active torsions:
REMARK  status: ('A' for Active; 'I' for Inactive)
REMARK    1  A    between atoms: C_6  and  N_9 
REMARK       I    between atoms: N_9  and  C_10 
REMARK       I    between atoms: C_10  and  N_12 
REMARK    2  A    between atoms: C_13  and  N_12 
REMARK    3  A    between atoms: C_15  and  C_16 
REMARK    4  A    between atoms: C_21  and  C_24 
REMARK    5  A    between atoms: C_22  and  O_23 
REMARK    6  A    between atoms: C_24  and  C_26 
ROOT
HETATM    1  C   UNK N   1      25.961  22.034  -8.340  0.00  0.00     0.095 A 
HETATM    2  C   UNK N   1      26.413  20.637  -8.140  0.00  0.00     0.037 A 
HETATM    3  C   UNK N   1      27.463  21.724  -8.437  0.00  0.00     0.049 A 
ENDROOT
BRANCH   1   4
HETATM    4  N   UNK N   1      25.374  22.626  -7.155  0.00  0.00    -0.338 N 
HETATM    5  C   UNK N   1      25.632  23.945  -6.928  0.00  0.00     0.322 C 
HETATM    6  N   UNK N   1      25.263  24.540  -5.757  0.00  0.00    -0.295 N 
HETATM    7  O   UNK N   1      26.239  24.587  -7.774  0.00  0.00    -0.247 OA
HETATM    8  H   UNK N   1      24.686  24.046  -5.132  0.00  0.00     0.172 HD
HETATM    9  H   UNK N   1      24.815  22.098  -6.541  0.00  0.00     0.164 HD
BRANCH   6  10
HETATM   10  C   UNK N   1      25.690  25.863  -5.407  0.00  0.00     0.108 A 
HETATM   11  N   UNK N   1      26.975  26.091  -5.004  0.00  0.00    -0.351 N 
HETATM   12  C   UNK N   1      27.407  27.312  -4.601  0.00  0.00     0.108 A 
ATOM     13  HN  UNK N   1      27.635  25.314  -5.005  1.00  0.00     0.166 HD
HETATM   14  C   UNK N   1      26.527  28.387  -4.585  0.00  0.00     0.026 A 
HETATM   15 Br   UNK N   1      27.137  30.092  -3.992  0.00  0.00    -0.050 Br
HETATM   16  C   UNK N   1      25.204  28.193  -4.991  0.00  0.00     0.024 A 
HETATM   17  C   UNK N   1      24.776  26.923  -5.402  0.00  0.00     0.050 A 
ENDBRANCH   6  10
ENDBRANCH   1   4
BRANCH   3  18
HETATM   18  C   UNK N   1      28.576  21.374  -7.467  0.00  0.00     0.021 A 
HETATM   19  C   UNK N   1      29.343  20.218  -7.740  0.00  0.00     0.126 A 
HETATM   20  F   UNK N   1      29.065  19.434  -8.813  0.00  0.00    -0.205 F 
HETATM   21  C   UNK N   1      30.400  19.858  -6.918  0.00  0.00     0.044 A 
HETATM   22  C   UNK N   1      30.724  20.637  -5.819  0.00  0.00     0.021 A 
HETATM   23  C   UNK N   1      30.008  21.801  -5.519  0.00  0.00     0.043 A 
HETATM   24  C   UNK N   1      28.916  22.174  -6.350  0.00  0.00     0.089 A 
BRANCH  23  25
HETATM   25  C   UNK N   1      30.435  22.615  -4.341  0.00  0.00     0.162 C 
HETATM   26  O   UNK N   1      30.920  23.724  -4.501  0.00  0.00    -0.292 OA
BRANCH  25  27
HETATM   27  C   UNK N   1      30.240  22.117  -2.929  0.00  0.00     0.079 C 
HETATM   28  C   UNK N   1      29.233  22.936  -2.131  0.00  0.00     0.013 C 
ENDBRANCH  25  27
ENDBRANCH  23  25
BRANCH  24  29
HETATM   29  O   UNK N   1      28.215  23.289  -6.086  0.00  0.00    -0.359 OA
HETATM   30  H   UNK N   1      28.090  23.953  -6.738  0.00  0.00     0.217 HD
ENDBRANCH  24  29
ENDBRANCH   3  18
TORSDOF 6
ENDMDL
MODEL 6
REMARK VINA RESULT:      -6.6      3.229      4.324
REMARK  6 active torsions:
REMARK  status: ('A' for Active; 'I' for Inactive)
REMARK    1  A    between atoms: C_6  and  N_9 
REMARK       I    between atoms: N_9  and  C_10 
REMARK       I    between atoms: C_10  and  N_12 
REMARK    2  A    between atoms: C_13  and  N_12 
REMARK    3  A    between atoms: C_15  and  C_16 
REMARK    4  A    between atoms: C_21  and  C_24 
REMARK    5  A    between atoms: C_22  and  O_23 
REMARK    6  A    between atoms: C_24  and  C_26 
ROOT
HETATM    1  C   UNK N   1      37.131  12.977  10.955  0.00  0.00     0.095 A 
HETATM    2  C   UNK N   1      36.802  11.559  11.230  0.00  0.00     0.037 A 
HETATM    3  C   UNK N   1      37.724  12.313  12.207  0.00  0.00     0.049 A 
ENDROOT
BRANCH   1   4
HETATM    4  N   UNK N   1      35.984  13.860  11.025  0.00  0.00    -0.338 N 
HETATM    5  C   UNK N   1      35.441  14.267   9.844  0.00  0.00     0.322 C 
HETATM    6  N   UNK N   1      34.472  15.227   9.810  0.00  0.00    -0.295 N 
HETATM    7  O   UNK N   1      35.864  13.791   8.799  0.00  0.00    -0.247 OA
HETATM    8  H   UNK N   1      34.067  15.525  10.656  0.00  0.00     0.172 HD
HETATM    9  H   UNK N   1      35.614  14.153  11.889  0.00  0.00     0.164 HD
BRANCH   6  10
HETATM   10  C   UNK N   1      34.024  15.816   8.583  0.00  0.00     0.108 A 
HETATM   11  N   UNK N   1      33.377  15.059   7.648  0.00  0.00    -0.351 N 
HETATM   12  C   UNK N   1      32.992  15.557   6.446  0.00  0.00     0.108 A 
ATOM     13  HN  UNK N   1      33.175  14.083   7.861  1.00  0.00     0.166 HD
HETATM   14  C   UNK N   1      33.260  16.883   6.128  0.00  0.00     0.026 A 
HETATM   15 Br   UNK N   1      32.740  17.565   4.426  0.00  0.00    -0.050 Br
HETATM   16  C   UNK N   1      33.920  17.689   7.059  0.00  0.00     0.024 A 
HETATM   17  C   UNK N   1      34.311  17.155   8.295  0.00  0.00     0.050 A 
ENDBRANCH   6  10
ENDBRANCH   1   4
BRANCH   3  18
HETATM   18  C   UNK N   1      37.205  11.858  13.558  0.00  0.00     0.021 A 
HETATM   19  C   UNK N   1      37.720  10.652  14.085  0.00  0.00     0.126 A 
HETATM   20  F   UNK N   1      38.617   9.911  13.386  0.00  0.00    -0.205 F 
HETATM   21  C   UNK N   1      37.319  10.195  15.332  0.00  0.00     0.044 A 
HETATM   22  C   UNK N   1      36.414  10.926  16.083  0.00  0.00     0.021 A 
HETATM   23  C   UNK N   1      35.892  12.137  15.614  0.00  0.00     0.043 A 
HETATM   24  C   UNK N   1      36.289  12.609  14.333  0.00  0.00     0.089 A 
BRANCH  23  25
HETATM   25  C   UNK N   1      34.949  12.893  16.492  0.00  0.00     0.162 C 
HETATM   26  O   UNK N   1      33.896  13.319  16.043  0.00  0.00    -0.292 OA
BRANCH  25  27
HETATM   27  C   UNK N   1      35.243  13.112  17.957  0.00  0.00     0.079 C 
HETATM   28  C   UNK N   1      35.324  14.583  18.346  0.00  0.00     0.013 C 
ENDBRANCH  25  27
ENDBRANCH  23  25
BRANCH  24  29
HETATM   29  O   UNK N   1      35.806  13.771  13.860  0.00  0.00    -0.359 OA
HETATM   30  H   UNK N   1      36.371  14.415  13.479  0.00  0.00     0.217 HD
ENDBRANCH  24  29
ENDBRANCH   3  18
TORSDOF 6
ENDMDL
MODEL 7
REMARK VINA RESULT:      -6.4      6.021      7.714
REMARK  6 active torsions:
REMARK  status: ('A' for Active; 'I' for Inactive)
REMARK    1  A    between atoms: C_6  and  N_9 
REMARK       I    between atoms: N_9  and  C_10 
REMARK       I    between atoms: C_10  and  N_12 
REMARK    2  A    between atoms: C_13  and  N_12 
REMARK    3  A    between atoms: C_15  and  C_16 
REMARK    4  A    between atoms: C_21  and  C_24 
REMARK    5  A    between atoms: C_22  and  O_23 
REMARK    6  A    between atoms: C_24  and  C_26 
ROOT
HETATM    1  C   UNK N   1      29.140  18.006   8.823  0.00  0.00     0.095 A 
HETATM    2  C   UNK N   1      30.430  18.705   9.030  0.00  0.00     0.037 A 
HETATM    3  C   UNK N   1      30.444  17.251   8.521  0.00  0.00     0.049 A 
ENDROOT
BRANCH   1   4
HETATM    4  N   UNK N   1      28.329  18.589   7.773  0.00  0.00    -0.338 N 
HETATM    5  C   UNK N   1      27.625  17.730   6.983  0.00  0.00     0.322 C 
HETATM    6  N   UNK N   1      26.972  18.174   5.871  0.00  0.00    -0.295 N 
HETATM    7  O   UNK N   1      27.618  16.538   7.260  0.00  0.00    -0.247 OA
HETATM    8  H   UNK N   1      26.897  19.144   5.718  0.00  0.00     0.172 HD
HETATM    9  H   UNK N   1      28.289  19.563   7.636  0.00  0.00     0.164 HD
BRANCH   6  10
HETATM   10  C   UNK N   1      26.393  17.275   4.917  0.00  0.00     0.108 A 
HETATM   11  N   UNK N   1      27.183  16.422   4.201  0.00  0.00    -0.351 N 
HETATM   12  C   UNK N   1      26.688  15.600   3.243  0.00  0.00     0.108 A 
ATOM     13  HN  UNK N   1      28.184  16.403   4.394  1.00  0.00     0.166 HD
HETATM   14  C   UNK N   1      25.328  15.611   2.957  0.00  0.00     0.026 A 
HETATM   15 Br   UNK N   1      24.646  14.472   1.590  0.00  0.00    -0.050 Br
HETATM   16  C   UNK N   1      24.487  16.470   3.669  0.00  0.00     0.024 A 
HETATM   17  C   UNK N   1      25.018  17.313   4.654  0.00  0.00     0.050 A 
ENDBRANCH   6  10
ENDBRANCH   1   4
BRANCH   3  18
HETATM   18  C   UNK N   1      31.512  17.294   7.444  0.00  0.00     0.021 A 
HETATM   19  C   UNK N   1      32.843  17.540   7.853  0.00  0.00     0.126 A 
HETATM   20  F   UNK N   1      33.142  17.767   9.157  0.00  0.00    -0.205 F 
HETATM   21  C   UNK N   1      33.877  17.556   6.928  0.00  0.00     0.044 A 
HETATM   22  C   UNK N   1      33.616  17.319   5.589  0.00  0.00     0.021 A 
HETATM   23  C   UNK N   1      32.319  17.049   5.138  0.00  0.00     0.043 A 
HETATM   24  C   UNK N   1      31.251  17.040   6.077  0.00  0.00     0.089 A 
BRANCH  23  25
HETATM   25  C   UNK N   1      32.114  16.764   3.686  0.00  0.00     0.162 C 
HETATM   26  O   UNK N   1      31.023  16.946   3.170  0.00  0.00    -0.292 OA
BRANCH  25  27
HETATM   27  C   UNK N   1      33.250  16.291   2.811  0.00  0.00     0.079 C 
HETATM   28  C   UNK N   1      33.508  14.793   2.909  0.00  0.00     0.013 C 
ENDBRANCH  25  27
ENDBRANCH  23  25
BRANCH  24  29
HETATM   29  O   UNK N   1      29.996  16.780   5.672  0.00  0.00    -0.359 OA
HETATM   30  H   UNK N   1      29.490  16.092   6.060  0.00  0.00     0.217 HD
ENDBRANCH  24  29
ENDBRANCH   3  18
TORSDOF 6
ENDMDL
MODEL 8
REMARK VINA RESULT:      -6.2     15.705     19.071
REMARK  6 active torsions:
REMARK  status: ('A' for Active; 'I' for Inactive)
REMARK    1  A    between atoms: C_6  and  N_9 
REMARK       I    between atoms: N_9  and  C_10 
REMARK       I    between atoms: C_10  and  N_12 
REMARK    2  A    between atoms: C_13  and  N_12 
REMARK    3  A    between atoms: C_15  and  C_16 
REMARK    4  A    between atoms: C_21  and  C_24 
REMARK    5  A    between atoms: C_22  and  O_23 
REMARK    6  A    between atoms: C_24  and  C_26 
ROOT
HETATM    1  C   UNK N   1      29.767  22.995  -2.562  0.00  0.00     0.095 A 
HETATM    2  C   UNK N   1      28.335  23.122  -2.207  0.00  0.00     0.037 A 
HETATM    3  C   UNK N   1      28.932  24.085  -3.252  0.00  0.00     0.049 A 
ENDROOT
BRANCH   1   4
HETATM    4  N   UNK N   1      30.091  21.744  -3.219  0.00  0.00    -0.338 N 
HETATM    5  C   UNK N   1      31.410  21.420  -3.320  0.00  0.00     0.322 C 
HETATM    6  N   UNK N   1      31.815  20.352  -4.067  0.00  0.00    -0.295 N 
HETATM    7  O   UNK N   1      32.241  22.126  -2.765  0.00  0.00    -0.247 OA
HETATM    8  H   UNK N   1      31.137  19.734  -4.420  0.00  0.00     0.172 HD
HETATM    9  H   UNK N   1      29.388  21.156  -3.576  0.00  0.00     0.164 HD
BRANCH   6  10
HETATM   10  C   UNK N   1      33.197  20.103  -4.354  0.00  0.00     0.108 A 
HETATM   11  N   UNK N   1      34.011  21.117  -4.773  0.00  0.00    -0.351 N 
HETATM   12  C   UNK N   1      35.307  20.917  -5.119  0.00  0.00     0.108 A 
ATOM     13  HN  UNK N   1      33.629  22.061  -4.829  1.00  0.00     0.166 HD
HETATM   14  C   UNK N   1      35.850  19.640  -5.057  0.00  0.00     0.026 A 
HETATM   15 Br   UNK N   1      37.665  19.364  -5.570  0.00  0.00    -0.050 Br
HETATM   16  C   UNK N   1      35.049  18.576  -4.632  0.00  0.00     0.024 A 
HETATM   17  C   UNK N   1      33.711  18.804  -4.282  0.00  0.00     0.050 A 
ENDBRANCH   6  10
ENDBRANCH   1   4
BRANCH   3  18
HETATM   18  C   UNK N   1      27.846  24.129  -4.310  0.00  0.00     0.021 A 
HETATM   19  C   UNK N   1      26.765  25.014  -4.102  0.00  0.00     0.126 A 
HETATM   20  F   UNK N   1      26.686  25.768  -2.976  0.00  0.00    -0.205 F 
HETATM   21  C   UNK N   1      25.755  25.135  -5.046  0.00  0.00     0.044 A 
HETATM   22  C   UNK N   1      25.802  24.393  -6.214  0.00  0.00     0.021 A 
HETATM   23  C   UNK N   1      26.863  23.518  -6.476  0.00  0.00     0.043 A 
HETATM   24  C   UNK N   1      27.898  23.380  -5.510  0.00  0.00     0.089 A 
BRANCH  23  25
HETATM   25  C   UNK N   1      26.871  22.777  -7.773  0.00  0.00     0.162 C 
HETATM   26  O   UNK N   1      27.918  22.599  -8.375  0.00  0.00    -0.292 OA
BRANCH  25  27
HETATM   27  C   UNK N   1      25.605  22.190  -8.350  0.00  0.00     0.079 C 
HETATM   28  C   UNK N   1      24.824  21.339  -7.357  0.00  0.00     0.013 C 
ENDBRANCH  25  27
ENDBRANCH  23  25
BRANCH  24  29
HETATM   29  O   UNK N   1      28.930  22.550  -5.739  0.00  0.00    -0.359 OA
HETATM   30  H   UNK N   1      29.710  22.587  -5.219  0.00  0.00     0.217 HD
ENDBRANCH  24  29
ENDBRANCH   3  18
TORSDOF 6
ENDMDL
MODEL 9
REMARK VINA RESULT:      -6.2      3.694      5.382
REMARK  6 active torsions:
REMARK  status: ('A' for Active; 'I' for Inactive)
REMARK    1  A    between atoms: C_6  and  N_9 
REMARK       I    between atoms: N_9  and  C_10 
REMARK       I    between atoms: C_10  and  N_12 
REMARK    2  A    between atoms: C_13  and  N_12 
REMARK    3  A    between atoms: C_15  and  C_16 
REMARK    4  A    between atoms: C_21  and  C_24 
REMARK    5  A    between atoms: C_22  and  O_23 
REMARK    6  A    between atoms: C_24  and  C_26 
ROOT
HETATM    1  C   UNK N   1      36.188  12.438  12.664  0.00  0.00     0.095 A 
HETATM    2  C   UNK N   1      35.626  11.223  13.297  0.00  0.00     0.037 A 
HETATM    3  C   UNK N   1      36.762  11.978  14.014  0.00  0.00     0.049 A 
ENDROOT
BRANCH   1   4
HETATM    4  N   UNK N   1      35.240  13.530  12.565  0.00  0.00    -0.338 N 
HETATM    5  C   UNK N   1      34.905  13.949  11.313  0.00  0.00     0.322 C 
HETATM    6  N   UNK N   1      34.155  15.074  11.127  0.00  0.00    -0.295 N 
HETATM    7  O   UNK N   1      35.322  13.327  10.346  0.00  0.00    -0.247 OA
HETATM    8  H   UNK N   1      33.739  15.504  11.908  0.00  0.00     0.172 HD
HETATM    9  H   UNK N   1      34.855  13.949  13.368  0.00  0.00     0.164 HD
BRANCH   6  10
HETATM   10  C   UNK N   1      33.954  15.650   9.830  0.00  0.00     0.108 A 
HETATM   11  N   UNK N   1      33.227  14.986   8.883  0.00  0.00    -0.351 N 
HETATM   12  C   UNK N   1      33.064  15.461   7.623  0.00  0.00     0.108 A 
ATOM     13  HN  UNK N   1      32.790  14.099   9.132  1.00  0.00     0.166 HD
HETATM   14  C   UNK N   1      33.654  16.665   7.256  0.00  0.00     0.026 A 
HETATM   15 Br   UNK N   1      33.442  17.310   5.475  0.00  0.00    -0.050 Br
HETATM   16  C   UNK N   1      34.405  17.373   8.197  0.00  0.00     0.024 A 
HETATM   17  C   UNK N   1      34.563  16.864   9.494  0.00  0.00     0.050 A 
ENDBRANCH   6  10
ENDBRANCH   1   4
BRANCH   3  18
HETATM   18  C   UNK N   1      36.296  11.969  15.457  0.00  0.00     0.021 A 
HETATM   19  C   UNK N   1      35.787  13.177  15.988  0.00  0.00     0.126 A 
HETATM   20  F   UNK N   1      35.754  14.309  15.240  0.00  0.00    -0.205 F 
HETATM   21  C   UNK N   1      35.308  13.233  17.289  0.00  0.00     0.044 A 
HETATM   22  C   UNK N   1      35.314  12.098  18.082  0.00  0.00     0.021 A 
HETATM   23  C   UNK N   1      35.788  10.874  17.595  0.00  0.00     0.043 A 
HETATM   24  C   UNK N   1      36.290  10.808  16.267  0.00  0.00     0.089 A 
BRANCH  23  25
HETATM   25  C   UNK N   1      35.730   9.681  18.493  0.00  0.00     0.162 C 
HETATM   26  O   UNK N   1      36.553   8.786  18.382  0.00  0.00    -0.292 OA
BRANCH  25  27
HETATM   27  C   UNK N   1      34.691   9.567  19.582  0.00  0.00     0.079 C 
HETATM   28  C   UNK N   1      33.457   8.779  19.163  0.00  0.00     0.013 C 
ENDBRANCH  25  27
ENDBRANCH  23  25
BRANCH  24  29
HETATM   29  O   UNK N   1      36.747   9.645  15.773  0.00  0.00    -0.359 OA
HETATM   30  H   UNK N   1      37.237   9.048  16.306  0.00  0.00     0.217 HD
ENDBRANCH  24  29
ENDBRANCH   3  18
TORSDOF 6
ENDMDL
