REMARK  0 active torsions:
REMARK  status: ('A' for Active; 'I' for Inactive)
REMARK       I    between atoms: N_11  and  C_10 
REMARK       I    between atoms: C_14  and  N_15 
ROOT
HETATM    1  N   UNK N   1      -2.780   1.037  -0.000  0.00  0.00    -0.190 N 
HETATM    2  C   UNK N   1      -1.517   0.591  -0.000  0.00  0.00     0.077 A 
HETATM    3  C   UNK N   1      -0.347   1.339   0.000  0.00  0.00     0.052 A 
HETATM    4  C   UNK N   1       0.873   0.630   0.000  0.00  0.00     0.062 A 
HETATM    5  C   UNK N   1       0.875  -0.796   0.000  0.00  0.00     0.067 A 
HETATM    6  C   UNK N   1      -0.335  -1.510   0.000  0.00  0.00     0.063 A 
HETATM    7  C   UNK N   1      -1.510  -0.772   0.000  0.00  0.00     0.078 A 
HETATM    8  N   UNK N   1      -2.768  -1.232   0.000  0.00  0.00    -0.190 N 
ATOM      9  HN  UNK N   1      -3.087  -2.200   0.000  1.00  0.00     0.184 HD
HETATM   10  C   UNK N   1      -3.517  -0.102  -0.000  0.00  0.00     0.676 A 
HETATM   11  N   UNK N   1      -4.924  -0.110  -0.000  0.00  0.00    -0.234 N 
HETATM   12  N   UNK N   1       2.053  -1.467   0.000  0.00  0.00    -0.191 N 
ATOM     13  HN  UNK N   1       2.050  -2.487   0.000  1.00  0.00     0.184 HD
HETATM   14  C   UNK N   1       3.237  -0.802  -0.000  0.00  0.00     0.679 A 
HETATM   15  N   UNK N   1       4.444  -1.527  -0.000  0.00  0.00    -0.234 N 
HETATM   16  N   UNK N   1       3.263   0.558  -0.000  0.00  0.00    -0.156 N 
HETATM   17  C   UNK N   1       2.105   1.291   0.000  0.00  0.00     0.272 A 
HETATM   18  O   UNK N   1       2.159   2.509   0.000  0.00  0.00    -0.267 OA
HETATM   19  H   UNK N   1      -3.098   1.969  -0.000  0.00  0.00     0.184 HD
HETATM   20  H   UNK N   1      -5.422   0.740  -0.000  0.00  0.00     0.174 HD
HETATM   21  H   UNK N   1      -5.411  -0.965  -0.000  0.00  0.00     0.174 HD
HETATM   22  H   UNK N   1       4.427  -2.511  -0.000  0.00  0.00     0.174 HD
HETATM   23  H   UNK N   1       5.305  -1.049  -0.000  0.00  0.00     0.174 HD
HETATM   24  H   UNK N   1       4.130   1.025  -0.000  0.00  0.00     0.187 HD
ENDROOT
TORSDOF 0
