MODEL 1
REMARK VINA RESULT:      -6.8      0.000      0.000
REMARK  0 active torsions:
REMARK  status: ('A' for Active; 'I' for Inactive)
REMARK       I    between atoms: N_11  and  C_10 
REMARK       I    between atoms: C_14  and  N_15 
ROOT
HETATM    1  N   UNK N   1      36.112  15.519  12.213  0.00  0.00    -0.190 N 
HETATM    2  C   UNK N   1      35.350  15.813  11.152  0.00  0.00     0.077 A 
HETATM    3  C   UNK N   1      35.415  16.937  10.339  0.00  0.00     0.052 A 
HETATM    4  C   UNK N   1      34.495  17.018   9.273  0.00  0.00     0.062 A 
HETATM    5  C   UNK N   1      33.548  15.973   9.061  0.00  0.00     0.067 A 
HETATM    6  C   UNK N   1      33.520  14.854   9.910  0.00  0.00     0.063 A 
HETATM    7  C   UNK N   1      34.443  14.817  10.945  0.00  0.00     0.078 A 
HETATM    8  N   UNK N   1      34.602  13.861  11.870  0.00  0.00    -0.190 N 
ATOM      9  HN  UNK N   1      34.077  12.994  11.979  1.00  0.00     0.184 HD
HETATM   10  C   UNK N   1      35.628  14.321  12.627  0.00  0.00     0.676 A 
HETATM   11  N   UNK N   1      36.141  13.623  13.735  0.00  0.00    -0.234 N 
HETATM   12  N   UNK N   1      32.668  16.060   8.033  0.00  0.00    -0.191 N 
ATOM     13  HN  UNK N   1      31.992  15.311   7.885  1.00  0.00     0.184 HD
HETATM   14  C   UNK N   1      32.673  17.131   7.197  0.00  0.00     0.679 A 
HETATM   15  N   UNK N   1      31.746  17.193   6.139  0.00  0.00    -0.234 N 
HETATM   16  N   UNK N   1      33.566  18.141   7.377  0.00  0.00    -0.156 N 
HETATM   17  C   UNK N   1      34.479  18.109   8.398  0.00  0.00     0.272 A 
HETATM   18  O   UNK N   1      35.268  19.028   8.535  0.00  0.00    -0.267 OA
HETATM   19  H   UNK N   1      36.848  16.046  12.601  0.00  0.00     0.184 HD
HETATM   20  H   UNK N   1      36.889  14.001  14.253  0.00  0.00     0.174 HD
HETATM   21  H   UNK N   1      35.754  12.756  13.993  0.00  0.00     0.174 HD
HETATM   22  H   UNK N   1      31.100  16.463   6.007  0.00  0.00     0.174 HD
HETATM   23  H   UNK N   1      31.746  17.967   5.530  0.00  0.00     0.174 HD
HETATM   24  H   UNK N   1      33.556  18.910   6.762  0.00  0.00     0.187 HD
ENDROOT
TORSDOF 0
ENDMDL
MODEL 2
REMARK VINA RESULT:      -6.3      3.127      4.886
REMARK  0 active torsions:
REMARK  status: ('A' for Active; 'I' for Inactive)
REMARK       I    between atoms: N_11  and  C_10 
REMARK       I    between atoms: C_14  and  N_15 
ROOT
HETATM    1  N   UNK N   1      34.530  17.235   7.784  0.00  0.00    -0.190 N 
HETATM    2  C   UNK N   1      33.422  17.185   7.034  0.00  0.00     0.077 A 
HETATM    3  C   UNK N   1      33.328  17.173   5.649  0.00  0.00     0.052 A 
HETATM    4  C   UNK N   1      32.033  17.116   5.089  0.00  0.00     0.062 A 
HETATM    5  C   UNK N   1      30.887  17.074   5.936  0.00  0.00     0.067 A 
HETATM    6  C   UNK N   1      31.031  17.088   7.333  0.00  0.00     0.063 A 
HETATM    7  C   UNK N   1      32.322  17.144   7.839  0.00  0.00     0.078 A 
HETATM    8  N   UNK N   1      32.700  17.167   9.124  0.00  0.00    -0.190 N 
ATOM      9  HN  UNK N   1      32.111  17.147   9.956  1.00  0.00     0.184 HD
HETATM   10  C   UNK N   1      34.053  17.223   9.054  0.00  0.00     0.676 A 
HETATM   11  N   UNK N   1      34.882  17.263  10.190  0.00  0.00    -0.234 N 
HETATM   12  N   UNK N   1      29.648  17.019   5.387  0.00  0.00    -0.191 N 
ATOM     13  HN  UNK N   1      28.830  16.989   5.996  1.00  0.00     0.184 HD
HETATM   14  C   UNK N   1      29.479  17.005   4.040  0.00  0.00     0.679 A 
HETATM   15  N   UNK N   1      28.180  16.948   3.501  0.00  0.00    -0.234 N 
HETATM   16  N   UNK N   1      30.556  17.045   3.211  0.00  0.00    -0.156 N 
HETATM   17  C   UNK N   1      31.833  17.100   3.706  0.00  0.00     0.272 A 
HETATM   18  O   UNK N   1      32.779  17.135   2.938  0.00  0.00    -0.267 OA
HETATM   19  H   UNK N   1      35.468  17.272   7.486  0.00  0.00     0.184 HD
HETATM   20  H   UNK N   1      35.860  17.303  10.085  0.00  0.00     0.174 HD
HETATM   21  H   UNK N   1      34.484  17.252  11.090  0.00  0.00     0.174 HD
HETATM   22  H   UNK N   1      27.399  16.919   4.099  0.00  0.00     0.174 HD
HETATM   23  H   UNK N   1      28.052  16.937   2.524  0.00  0.00     0.174 HD
HETATM   24  H   UNK N   1      30.417  17.033   2.236  0.00  0.00     0.187 HD
ENDROOT
TORSDOF 0
ENDMDL
MODEL 3
REMARK VINA RESULT:      -6.2      2.820      6.774
REMARK  0 active torsions:
REMARK  status: ('A' for Active; 'I' for Inactive)
REMARK       I    between atoms: N_11  and  C_10 
REMARK       I    between atoms: C_14  and  N_15 
ROOT
HETATM    1  N   UNK N   1      29.654  17.506   4.356  0.00  0.00    -0.190 N 
HETATM    2  C   UNK N   1      30.507  17.407   5.384  0.00  0.00     0.077 A 
HETATM    3  C   UNK N   1      31.881  17.211   5.338  0.00  0.00     0.052 A 
HETATM    4  C   UNK N   1      32.566  17.141   6.569  0.00  0.00     0.062 A 
HETATM    5  C   UNK N   1      31.851  17.269   7.797  0.00  0.00     0.067 A 
HETATM    6  C   UNK N   1      30.460  17.467   7.794  0.00  0.00     0.063 A 
HETATM    7  C   UNK N   1      29.828  17.530   6.560  0.00  0.00     0.078 A 
HETATM    8  N   UNK N   1      28.524  17.710   6.314  0.00  0.00    -0.190 N 
ATOM      9  HN  UNK N   1      27.766  17.832   6.983  1.00  0.00     0.184 HD
HETATM   10  C   UNK N   1      28.453  17.690   4.960  0.00  0.00     0.676 A 
HETATM   11  N   UNK N   1      27.248  17.846   4.249  0.00  0.00    -0.234 N 
HETATM   12  N   UNK N   1      32.519  17.200   8.974  0.00  0.00    -0.191 N 
ATOM     13  HN  UNK N   1      32.004  17.293   9.850  1.00  0.00     0.184 HD
HETATM   14  C   UNK N   1      33.863  17.010   9.006  0.00  0.00     0.679 A 
HETATM   15  N   UNK N   1      34.529  16.942  10.245  0.00  0.00    -0.234 N 
HETATM   16  N   UNK N   1      34.568  16.884   7.850  0.00  0.00    -0.156 N 
HETATM   17  C   UNK N   1      33.949  16.945   6.629  0.00  0.00     0.272 A 
HETATM   18  O   UNK N   1      34.607  16.829   5.610  0.00  0.00    -0.267 OA
HETATM   19  H   UNK N   1      29.851  17.457   3.393  0.00  0.00     0.184 HD
HETATM   20  H   UNK N   1      27.251  17.824   3.264  0.00  0.00     0.174 HD
HETATM   21  H   UNK N   1      26.403  17.977   4.736  0.00  0.00     0.174 HD
HETATM   22  H   UNK N   1      34.020  17.033  11.083  0.00  0.00     0.174 HD
HETATM   23  H   UNK N   1      35.503  16.804  10.273  0.00  0.00     0.174 HD
HETATM   24  H   UNK N   1      35.543  16.746   7.891  0.00  0.00     0.187 HD
ENDROOT
TORSDOF 0
ENDMDL
MODEL 4
REMARK VINA RESULT:      -6.1      2.014      6.097
REMARK  0 active torsions:
REMARK  status: ('A' for Active; 'I' for Inactive)
REMARK       I    between atoms: N_11  and  C_10 
REMARK       I    between atoms: C_14  and  N_15 
ROOT
HETATM    1  N   UNK N   1      31.928  17.637   4.199  0.00  0.00    -0.190 N 
HETATM    2  C   UNK N   1      32.369  17.269   5.409  0.00  0.00     0.077 A 
HETATM    3  C   UNK N   1      33.309  17.909   6.206  0.00  0.00     0.052 A 
HETATM    4  C   UNK N   1      33.607  17.320   7.453  0.00  0.00     0.062 A 
HETATM    5  C   UNK N   1      32.955  16.116   7.853  0.00  0.00     0.067 A 
HETATM    6  C   UNK N   1      32.010  15.505   7.012  0.00  0.00     0.063 A 
HETATM    7  C   UNK N   1      31.748  16.119   5.796  0.00  0.00     0.078 A 
HETATM    8  N   UNK N   1      30.895  15.722   4.843  0.00  0.00    -0.190 N 
ATOM      9  HN  UNK N   1      30.289  14.902   4.839  1.00  0.00     0.184 HD
HETATM   10  C   UNK N   1      31.030  16.670   3.883  0.00  0.00     0.676 A 
HETATM   11  N   UNK N   1      30.308  16.653   2.676  0.00  0.00    -0.234 N 
HETATM   12  N   UNK N   1      33.250  15.558   9.053  0.00  0.00    -0.191 N 
ATOM     13  HN  UNK N   1      32.781  14.698   9.335  1.00  0.00     0.184 HD
HETATM   14  C   UNK N   1      34.159  16.128   9.885  0.00  0.00     0.679 A 
HETATM   15  N   UNK N   1      34.444  15.525  11.125  0.00  0.00    -0.234 N 
HETATM   16  N   UNK N   1      34.795  17.277   9.528  0.00  0.00    -0.156 N 
HETATM   17  C   UNK N   1      34.539  17.887   8.327  0.00  0.00     0.272 A 
HETATM   18  O   UNK N   1      35.124  18.915   8.034  0.00  0.00    -0.267 OA
HETATM   19  H   UNK N   1      32.192  18.421   3.665  0.00  0.00     0.184 HD
HETATM   20  H   UNK N   1      30.442  17.367   2.010  0.00  0.00     0.174 HD
HETATM   21  H   UNK N   1      29.667  15.928   2.496  0.00  0.00     0.174 HD
HETATM   22  H   UNK N   1      33.984  14.695  11.385  0.00  0.00     0.174 HD
HETATM   23  H   UNK N   1      35.102  15.935  11.732  0.00  0.00     0.174 HD
HETATM   24  H   UNK N   1      35.452  17.677  10.143  0.00  0.00     0.187 HD
ENDROOT
TORSDOF 0
ENDMDL
MODEL 5
REMARK VINA RESULT:      -6.1     10.437     13.284
REMARK  0 active torsions:
REMARK  status: ('A' for Active; 'I' for Inactive)
REMARK       I    between atoms: N_11  and  C_10 
REMARK       I    between atoms: C_14  and  N_15 
ROOT
HETATM    1  N   UNK N   1      26.275  20.555   3.486  0.00  0.00    -0.190 N 
HETATM    2  C   UNK N   1      25.052  20.009   3.478  0.00  0.00     0.077 A 
HETATM    3  C   UNK N   1      23.875  20.557   2.985  0.00  0.00     0.052 A 
HETATM    4  C   UNK N   1      22.704  19.778   3.095  0.00  0.00     0.062 A 
HETATM    5  C   UNK N   1      22.756  18.484   3.691  0.00  0.00     0.067 A 
HETATM    6  C   UNK N   1      23.970  17.971   4.176  0.00  0.00     0.063 A 
HETATM    7  C   UNK N   1      25.096  18.772   4.048  0.00  0.00     0.078 A 
HETATM    8  N   UNK N   1      26.349  18.495   4.434  0.00  0.00    -0.190 N 
ATOM      9  HN  UNK N   1      26.698  17.652   4.888  1.00  0.00     0.184 HD
HETATM   10  C   UNK N   1      27.042  19.604   4.076  0.00  0.00     0.676 A 
HETATM   11  N   UNK N   1      28.423  19.753   4.295  0.00  0.00    -0.234 N 
HETATM   12  N   UNK N   1      21.624  17.743   3.791  0.00  0.00    -0.191 N 
ATOM     13  HN  UNK N   1      21.666  16.818   4.219  1.00  0.00     0.184 HD
HETATM   14  C   UNK N   1      20.437  18.214   3.331  0.00  0.00     0.679 A 
HETATM   15  N   UNK N   1      19.279  17.422   3.449  0.00  0.00    -0.234 N 
HETATM   16  N   UNK N   1      20.360  19.446   2.758  0.00  0.00    -0.156 N 
HETATM   17  C   UNK N   1      21.469  20.240   2.629  0.00  0.00     0.272 A 
HETATM   18  O   UNK N   1      21.371  21.339   2.110  0.00  0.00    -0.267 OA
HETATM   19  H   UNK N   1      26.552  21.436   3.144  0.00  0.00     0.184 HD
HETATM   20  H   UNK N   1      28.880  20.580   4.016  0.00  0.00     0.174 HD
HETATM   21  H   UNK N   1      28.934  19.032   4.728  0.00  0.00     0.174 HD
HETATM   22  H   UNK N   1      19.333  16.531   3.863  0.00  0.00     0.174 HD
HETATM   23  H   UNK N   1      18.416  17.759   3.116  0.00  0.00     0.174 HD
HETATM   24  H   UNK N   1      19.491  19.773   2.429  0.00  0.00     0.187 HD
ENDROOT
TORSDOF 0
ENDMDL
MODEL 6
REMARK VINA RESULT:      -6.1     14.023     15.834
REMARK  0 active torsions:
REMARK  status: ('A' for Active; 'I' for Inactive)
REMARK       I    between atoms: N_11  and  C_10 
REMARK       I    between atoms: C_14  and  N_15 
ROOT
HETATM    1  N   UNK N   1      20.927  20.596   2.448  0.00  0.00    -0.190 N 
HETATM    2  C   UNK N   1      20.844  19.443   3.125  0.00  0.00     0.077 A 
HETATM    3  C   UNK N   1      21.061  19.232   4.480  0.00  0.00     0.052 A 
HETATM    4  C   UNK N   1      20.910  17.914   4.961  0.00  0.00     0.062 A 
HETATM    5  C   UNK N   1      20.548  16.861   4.069  0.00  0.00     0.067 A 
HETATM    6  C   UNK N   1      20.339  17.124   2.705  0.00  0.00     0.063 A 
HETATM    7  C   UNK N   1      20.498  18.434   2.277  0.00  0.00     0.078 A 
HETATM    8  N   UNK N   1      20.352  18.915   1.035  0.00  0.00    -0.190 N 
ATOM      9  HN  UNK N   1      20.099  18.410   0.187  1.00  0.00     0.184 HD
HETATM   10  C   UNK N   1      20.621  20.237   1.176  0.00  0.00     0.676 A 
HETATM   11  N   UNK N   1      20.586  21.148   0.104  0.00  0.00    -0.234 N 
HETATM   12  N   UNK N   1      20.406  15.599   4.542  0.00  0.00    -0.191 N 
ATOM     13  HN  UNK N   1      20.147  14.849   3.900  1.00  0.00     0.184 HD
HETATM   14  C   UNK N   1      20.602  15.317   5.855  0.00  0.00     0.679 A 
HETATM   15  N   UNK N   1      20.447  13.995   6.316  0.00  0.00    -0.234 N 
HETATM   16  N   UNK N   1      20.948  16.302   6.727  0.00  0.00    -0.156 N 
HETATM   17  C   UNK N   1      21.107  17.598   6.308  0.00  0.00     0.272 A 
HETATM   18  O   UNK N   1      21.417  18.460   7.112  0.00  0.00    -0.267 OA
HETATM   19  H   UNK N   1      21.156  21.490   2.790  0.00  0.00     0.184 HD
HETATM   20  H   UNK N   1      20.789  22.100   0.259  0.00  0.00     0.174 HD
HETATM   21  H   UNK N   1      20.357  20.836  -0.800  0.00  0.00     0.174 HD
HETATM   22  H   UNK N   1      20.197  13.281   5.687  0.00  0.00     0.174 HD
HETATM   23  H   UNK N   1      20.588  13.786   7.268  0.00  0.00     0.174 HD
HETATM   24  H   UNK N   1      21.087  16.081   7.676  0.00  0.00     0.187 HD
ENDROOT
TORSDOF 0
ENDMDL
MODEL 7
REMARK VINA RESULT:      -6.1      1.944      2.862
REMARK  0 active torsions:
REMARK  status: ('A' for Active; 'I' for Inactive)
REMARK       I    between atoms: N_11  and  C_10 
REMARK       I    between atoms: C_14  and  N_15 
ROOT
HETATM    1  N   UNK N   1      35.796  12.753  12.711  0.00  0.00    -0.190 N 
HETATM    2  C   UNK N   1      35.369  13.725  11.895  0.00  0.00     0.077 A 
HETATM    3  C   UNK N   1      34.502  13.616  10.816  0.00  0.00     0.052 A 
HETATM    4  C   UNK N   1      34.202  14.797  10.105  0.00  0.00     0.062 A 
HETATM    5  C   UNK N   1      34.781  16.039  10.500  0.00  0.00     0.067 A 
HETATM    6  C   UNK N   1      35.654  16.101  11.599  0.00  0.00     0.063 A 
HETATM    7  C   UNK N   1      35.920  14.915  12.269  0.00  0.00     0.078 A 
HETATM    8  N   UNK N   1      36.713  14.733  13.333  0.00  0.00    -0.190 N 
ATOM      9  HN  UNK N   1      37.259  15.428  13.840  1.00  0.00     0.184 HD
HETATM   10  C   UNK N   1      36.614  13.403  13.576  0.00  0.00     0.676 A 
HETATM   11  N   UNK N   1      37.295  12.759  14.625  0.00  0.00    -0.234 N 
HETATM   12  N   UNK N   1      34.486  17.168   9.810  0.00  0.00    -0.191 N 
ATOM     13  HN  UNK N   1      34.902  18.055  10.096  1.00  0.00     0.184 HD
HETATM   14  C   UNK N   1      33.646  17.138   8.744  0.00  0.00     0.679 A 
HETATM   15  N   UNK N   1      33.359  18.327   8.048  0.00  0.00    -0.234 N 
HETATM   16  N   UNK N   1      33.080  15.966   8.346  0.00  0.00    -0.156 N 
HETATM   17  C   UNK N   1      33.340  14.792   9.004  0.00  0.00     0.272 A 
HETATM   18  O   UNK N   1      32.819  13.757   8.625  0.00  0.00    -0.267 OA
HETATM   19  H   UNK N   1      35.571  11.794  12.688  0.00  0.00     0.184 HD
HETATM   20  H   UNK N   1      37.190  11.789  14.759  0.00  0.00     0.174 HD
HETATM   21  H   UNK N   1      37.877  13.278  15.226  0.00  0.00     0.174 HD
HETATM   22  H   UNK N   1      33.767  19.176   8.334  0.00  0.00     0.174 HD
HETATM   23  H   UNK N   1      32.750  18.310   7.274  0.00  0.00     0.174 HD
HETATM   24  H   UNK N   1      32.473  15.961   7.571  0.00  0.00     0.187 HD
ENDROOT
TORSDOF 0
ENDMDL
MODEL 8
REMARK VINA RESULT:      -6.0     10.472     13.971
REMARK  0 active torsions:
REMARK  status: ('A' for Active; 'I' for Inactive)
REMARK       I    between atoms: N_11  and  C_10 
REMARK       I    between atoms: C_14  and  N_15 
ROOT
HETATM    1  N   UNK N   1      20.634  19.737   2.077  0.00  0.00    -0.190 N 
HETATM    2  C   UNK N   1      21.762  19.561   2.778  0.00  0.00     0.077 A 
HETATM    3  C   UNK N   1      23.003  20.144   2.560  0.00  0.00     0.052 A 
HETATM    4  C   UNK N   1      24.046  19.795   3.445  0.00  0.00     0.062 A 
HETATM    5  C   UNK N   1      23.806  18.879   4.511  0.00  0.00     0.067 A 
HETATM    6  C   UNK N   1      22.533  18.314   4.692  0.00  0.00     0.063 A 
HETATM    7  C   UNK N   1      21.538  18.686   3.799  0.00  0.00     0.078 A 
HETATM    8  N   UNK N   1      20.262  18.280   3.777  0.00  0.00    -0.190 N 
ATOM      9  HN  UNK N   1      19.794  17.630   4.407  1.00  0.00     0.184 HD
HETATM   10  C   UNK N   1      19.739  18.940   2.714  0.00  0.00     0.676 A 
HETATM   11  N   UNK N   1      18.398  18.812   2.311  0.00  0.00    -0.234 N 
HETATM   12  N   UNK N   1      24.815  18.551   5.355  0.00  0.00    -0.191 N 
ATOM     13  HN  UNK N   1      24.640  17.896   6.117  1.00  0.00     0.184 HD
HETATM   14  C   UNK N   1      26.056  19.082   5.203  0.00  0.00     0.679 A 
HETATM   15  N   UNK N   1      27.083  18.722   6.096  0.00  0.00    -0.234 N 
HETATM   16  N   UNK N   1      26.310  19.958   4.194  0.00  0.00    -0.156 N 
HETATM   17  C   UNK N   1      25.331  20.328   3.309  0.00  0.00     0.272 A 
HETATM   18  O   UNK N   1      25.589  21.115   2.414  0.00  0.00    -0.267 OA
HETATM   19  H   UNK N   1      20.489  20.307   1.288  0.00  0.00     0.184 HD
HETATM   20  H   UNK N   1      18.067  19.314   1.530  0.00  0.00     0.174 HD
HETATM   21  H   UNK N   1      17.789  18.220   2.808  0.00  0.00     0.174 HD
HETATM   22  H   UNK N   1      26.900  18.088   6.826  0.00  0.00     0.174 HD
HETATM   23  H   UNK N   1      27.984  19.105   5.989  0.00  0.00     0.174 HD
HETATM   24  H   UNK N   1      27.215  20.334   4.097  0.00  0.00     0.187 HD
ENDROOT
TORSDOF 0
ENDMDL
MODEL 9
REMARK VINA RESULT:      -5.9      4.444      8.349
REMARK  0 active torsions:
REMARK  status: ('A' for Active; 'I' for Inactive)
REMARK       I    between atoms: N_11  and  C_10 
REMARK       I    between atoms: C_14  and  N_15 
ROOT
HETATM    1  N   UNK N   1      27.005  19.947   5.644  0.00  0.00    -0.190 N 
HETATM    2  C   UNK N   1      27.945  19.162   6.186  0.00  0.00     0.077 A 
HETATM    3  C   UNK N   1      28.282  19.032   7.527  0.00  0.00     0.052 A 
HETATM    4  C   UNK N   1      29.318  18.130   7.849  0.00  0.00     0.062 A 
HETATM    5  C   UNK N   1      29.975  17.394   6.819  0.00  0.00     0.067 A 
HETATM    6  C   UNK N   1      29.599  17.558   5.475  0.00  0.00     0.063 A 
HETATM    7  C   UNK N   1      28.576  18.456   5.205  0.00  0.00     0.078 A 
HETATM    8  N   UNK N   1      28.056  18.772   4.012  0.00  0.00    -0.190 N 
ATOM      9  HN  UNK N   1      28.315  18.414   3.094  1.00  0.00     0.184 HD
HETATM   10  C   UNK N   1      27.100  19.684   4.317  0.00  0.00     0.676 A 
HETATM   11  N   UNK N   1      26.285  20.299   3.349  0.00  0.00    -0.234 N 
HETATM   12  N   UNK N   1      30.969  16.529   7.140  0.00  0.00    -0.191 N 
ATOM     13  HN  UNK N   1      31.436  16.005   6.400  1.00  0.00     0.184 HD
HETATM   14  C   UNK N   1      31.352  16.351   8.430  0.00  0.00     0.679 A 
HETATM   15  N   UNK N   1      32.387  15.446   8.732  0.00  0.00    -0.234 N 
HETATM   16  N   UNK N   1      30.741  17.041   9.431  0.00  0.00    -0.156 N 
HETATM   17  C   UNK N   1      29.730  17.928   9.169  0.00  0.00     0.272 A 
HETATM   18  O   UNK N   1      29.201  18.533  10.087  0.00  0.00    -0.267 OA
HETATM   19  H   UNK N   1      26.391  20.568   6.101  0.00  0.00     0.184 HD
HETATM   20  H   UNK N   1      25.604  20.957   3.623  0.00  0.00     0.174 HD
HETATM   21  H   UNK N   1      26.395  20.073   2.398  0.00  0.00     0.174 HD
HETATM   22  H   UNK N   1      32.830  14.946   8.009  0.00  0.00     0.174 HD
HETATM   23  H   UNK N   1      32.668  15.314   9.666  0.00  0.00     0.174 HD
HETATM   24  H   UNK N   1      31.031  16.900  10.362  0.00  0.00     0.187 HD
ENDROOT
TORSDOF 0
ENDMDL
