MODEL 1
REMARK VINA RESULT:      -7.9      0.000      0.000
REMARK  1 active torsions:
REMARK  status: ('A' for Active; 'I' for Inactive)
REMARK    1  A    between atoms: C_15  and  C_16 
ROOT
HETATM    1  C   UNK N   1      28.773  24.146  -2.878  0.00  0.00     0.093 A 
HETATM    2  C   UNK N   1      29.739  23.159  -2.662  0.00  0.00     0.187 A 
HETATM    3  O   UNK N   1      30.295  23.081  -1.578  0.00  0.00    -0.287 OA
HETATM    4  C   UNK N   1      30.058  22.269  -3.700  0.00  0.00     0.049 A 
HETATM    5  C   UNK N   1      31.018  21.257  -3.548  0.00  0.00     0.019 A 
HETATM    6  C   UNK N   1      31.304  20.391  -4.611  0.00  0.00     0.013 A 
HETATM    7  C   UNK N   1      30.633  20.530  -5.832  0.00  0.00    -0.023 A 
HETATM    8  C   UNK N   1      30.916  19.667  -6.896  0.00  0.00     0.012 A 
HETATM    9  C   UNK N   1      30.242  19.812  -8.114  0.00  0.00     0.001 A 
HETATM   10  C   UNK N   1      29.285  20.817  -8.274  0.00  0.00     0.001 A 
HETATM   11  C   UNK N   1      28.997  21.681  -7.217  0.00  0.00     0.015 A 
HETATM   12  C   UNK N   1      29.666  21.545  -5.992  0.00  0.00     0.009 A 
HETATM   13  C   UNK N   1      29.381  22.409  -4.931  0.00  0.00     0.101 A 
HETATM   14  O   UNK N   1      28.473  23.360  -5.088  0.00  0.00    -0.308 OA
HETATM   15  C   UNK N   1      28.144  24.220  -4.133  0.00  0.00     0.090 A 
ENDROOT
BRANCH  15  16
HETATM   16  C   UNK N   1      27.118  25.232  -4.441  0.00  0.00    -0.002 A 
HETATM   17  C   UNK N   1      26.380  25.101  -5.628  0.00  0.00     0.014 A 
HETATM   18  C   UNK N   1      25.400  26.034  -5.963  0.00  0.00     0.001 A 
HETATM   19  C   UNK N   1      25.147  27.111  -5.111  0.00  0.00     0.000 A 
HETATM   20  C   UNK N   1      25.876  27.252  -3.925  0.00  0.00     0.001 A 
HETATM   21  C   UNK N   1      26.861  26.315  -3.589  0.00  0.00     0.014 A 
ENDBRANCH  15  16
TORSDOF 1
ENDMDL
MODEL 2
REMARK VINA RESULT:      -7.6      1.743      3.797
REMARK  1 active torsions:
REMARK  status: ('A' for Active; 'I' for Inactive)
REMARK    1  A    between atoms: C_15  and  C_16 
ROOT
HETATM    1  C   UNK N   1      25.645  23.970  -7.448  0.00  0.00     0.093 A 
HETATM    2  C   UNK N   1      25.975  22.865  -8.238  0.00  0.00     0.187 A 
HETATM    3  O   UNK N   1      25.278  22.576  -9.197  0.00  0.00    -0.287 OA
HETATM    4  C   UNK N   1      27.105  22.098  -7.912  0.00  0.00     0.049 A 
HETATM    5  C   UNK N   1      27.489  20.978  -8.663  0.00  0.00     0.019 A 
HETATM    6  C   UNK N   1      28.626  20.243  -8.301  0.00  0.00     0.013 A 
HETATM    7  C   UNK N   1      29.386  20.623  -7.189  0.00  0.00    -0.023 A 
HETATM    8  C   UNK N   1      30.521  19.892  -6.825  0.00  0.00     0.012 A 
HETATM    9  C   UNK N   1      31.276  20.277  -5.711  0.00  0.00     0.001 A 
HETATM   10  C   UNK N   1      30.901  21.392  -4.958  0.00  0.00     0.001 A 
HETATM   11  C   UNK N   1      29.770  22.127  -5.315  0.00  0.00     0.015 A 
HETATM   12  C   UNK N   1      29.006  21.750  -6.430  0.00  0.00     0.009 A 
HETATM   13  C   UNK N   1      27.871  22.483  -6.790  0.00  0.00     0.101 A 
HETATM   14  O   UNK N   1      27.520  23.539  -6.073  0.00  0.00    -0.308 OA
HETATM   15  C   UNK N   1      26.460  24.287  -6.347  0.00  0.00     0.090 A 
ENDROOT
BRANCH  15  16
HETATM   16  C   UNK N   1      26.181  25.434  -5.465  0.00  0.00    -0.002 A 
HETATM   17  C   UNK N   1      25.393  26.487  -5.960  0.00  0.00     0.014 A 
HETATM   18  C   UNK N   1      25.104  27.594  -5.164  0.00  0.00     0.001 A 
HETATM   19  C   UNK N   1      25.600  27.660  -3.860  0.00  0.00     0.000 A 
HETATM   20  C   UNK N   1      26.385  26.617  -3.356  0.00  0.00     0.001 A 
HETATM   21  C   UNK N   1      26.677  25.506  -4.156  0.00  0.00     0.014 A 
ENDBRANCH  15  16
TORSDOF 1
ENDMDL
MODEL 3
REMARK VINA RESULT:      -7.5     20.291     23.113
REMARK  1 active torsions:
REMARK  status: ('A' for Active; 'I' for Inactive)
REMARK    1  A    between atoms: C_15  and  C_16 
ROOT
HETATM    1  C   UNK N   1      34.856  11.614  12.124  0.00  0.00     0.093 A 
HETATM    2  C   UNK N   1      34.838  10.524  13.000  0.00  0.00     0.187 A 
HETATM    3  O   UNK N   1      34.744   9.391  12.556  0.00  0.00    -0.287 OA
HETATM    4  C   UNK N   1      34.926  10.751  14.383  0.00  0.00     0.049 A 
HETATM    5  C   UNK N   1      34.912   9.702  15.314  0.00  0.00     0.019 A 
HETATM    6  C   UNK N   1      35.002   9.975  16.685  0.00  0.00     0.013 A 
HETATM    7  C   UNK N   1      35.108  11.296  17.135  0.00  0.00    -0.023 A 
HETATM    8  C   UNK N   1      35.199  11.573  18.503  0.00  0.00     0.012 A 
HETATM    9  C   UNK N   1      35.303  12.896  18.945  0.00  0.00     0.001 A 
HETATM   10  C   UNK N   1      35.319  13.947  18.025  0.00  0.00     0.001 A 
HETATM   11  C   UNK N   1      35.229  13.680  16.658  0.00  0.00     0.015 A 
HETATM   12  C   UNK N   1      35.124  12.357  16.203  0.00  0.00     0.009 A 
HETATM   13  C   UNK N   1      35.032  12.084  14.835  0.00  0.00     0.101 A 
HETATM   14  O   UNK N   1      35.047  13.084  13.967  0.00  0.00    -0.308 OA
HETATM   15  C   UNK N   1      34.965  12.912  12.654  0.00  0.00     0.090 A 
ENDROOT
BRANCH  15  16
HETATM   16  C   UNK N   1      34.990  14.111  11.800  0.00  0.00    -0.002 A 
HETATM   17  C   UNK N   1      34.238  14.108  10.613  0.00  0.00     0.014 A 
HETATM   18  C   UNK N   1      34.233  15.220   9.772  0.00  0.00     0.001 A 
HETATM   19  C   UNK N   1      34.980  16.350  10.110  0.00  0.00     0.000 A 
HETATM   20  C   UNK N   1      35.733  16.365  11.289  0.00  0.00     0.001 A 
HETATM   21  C   UNK N   1      35.740  15.248  12.134  0.00  0.00     0.014 A 
ENDBRANCH  15  16
TORSDOF 1
ENDMDL
MODEL 4
REMARK VINA RESULT:      -7.3      1.843      7.187
REMARK  1 active torsions:
REMARK  status: ('A' for Active; 'I' for Inactive)
REMARK    1  A    between atoms: C_15  and  C_16 
ROOT
HETATM    1  C   UNK N   1      27.185  23.361  -5.555  0.00  0.00     0.093 A 
HETATM    2  C   UNK N   1      26.115  24.194  -5.896  0.00  0.00     0.187 A 
HETATM    3  O   UNK N   1      25.206  23.761  -6.585  0.00  0.00    -0.287 OA
HETATM    4  C   UNK N   1      26.104  25.522  -5.440  0.00  0.00     0.049 A 
HETATM    5  C   UNK N   1      25.061  26.408  -5.746  0.00  0.00     0.019 A 
HETATM    6  C   UNK N   1      25.092  27.725  -5.269  0.00  0.00     0.013 A 
HETATM    7  C   UNK N   1      26.163  28.164  -4.483  0.00  0.00    -0.023 A 
HETATM    8  C   UNK N   1      26.197  29.478  -4.005  0.00  0.00     0.012 A 
HETATM    9  C   UNK N   1      27.272  29.911  -3.220  0.00  0.00     0.001 A 
HETATM   10  C   UNK N   1      28.315  29.035  -2.909  0.00  0.00     0.001 A 
HETATM   11  C   UNK N   1      28.288  27.722  -3.382  0.00  0.00     0.015 A 
HETATM   12  C   UNK N   1      27.216  27.278  -4.169  0.00  0.00     0.009 A 
HETATM   13  C   UNK N   1      27.185  25.964  -4.646  0.00  0.00     0.101 A 
HETATM   14  O   UNK N   1      28.176  25.138  -4.349  0.00  0.00    -0.308 OA
HETATM   15  C   UNK N   1      28.224  23.877  -4.761  0.00  0.00     0.090 A 
ENDROOT
BRANCH  15  16
HETATM   16  C   UNK N   1      29.387  23.066  -4.360  0.00  0.00    -0.002 A 
HETATM   17  C   UNK N   1      30.032  23.367  -3.149  0.00  0.00     0.014 A 
HETATM   18  C   UNK N   1      31.137  22.628  -2.730  0.00  0.00     0.001 A 
HETATM   19  C   UNK N   1      31.610  21.577  -3.518  0.00  0.00     0.000 A 
HETATM   20  C   UNK N   1      30.975  21.268  -4.726  0.00  0.00     0.001 A 
HETATM   21  C   UNK N   1      29.865  22.010  -5.149  0.00  0.00     0.014 A 
ENDBRANCH  15  16
TORSDOF 1
ENDMDL
MODEL 5
REMARK VINA RESULT:      -7.2     10.059     11.965
REMARK  1 active torsions:
REMARK  status: ('A' for Active; 'I' for Inactive)
REMARK    1  A    between atoms: C_15  and  C_16 
ROOT
HETATM    1  C   UNK N   1      27.714  18.640   7.216  0.00  0.00     0.093 A 
HETATM    2  C   UNK N   1      28.729  18.148   8.042  0.00  0.00     0.187 A 
HETATM    3  O   UNK N   1      28.585  18.163   9.254  0.00  0.00    -0.287 OA
HETATM    4  C   UNK N   1      29.904  17.643   7.463  0.00  0.00     0.049 A 
HETATM    5  C   UNK N   1      30.959  17.135   8.235  0.00  0.00     0.019 A 
HETATM    6  C   UNK N   1      32.113  16.641   7.613  0.00  0.00     0.013 A 
HETATM    7  C   UNK N   1      32.221  16.650   6.218  0.00  0.00    -0.023 A 
HETATM    8  C   UNK N   1      33.371  16.157   5.594  0.00  0.00     0.012 A 
HETATM    9  C   UNK N   1      33.472  16.170   4.198  0.00  0.00     0.001 A 
HETATM   10  C   UNK N   1      32.426  16.673   3.421  0.00  0.00     0.001 A 
HETATM   11  C   UNK N   1      31.274  17.166   4.036  0.00  0.00     0.015 A 
HETATM   12  C   UNK N   1      31.162  17.158   5.434  0.00  0.00     0.009 A 
HETATM   13  C   UNK N   1      30.011  17.652   6.055  0.00  0.00     0.101 A 
HETATM   14  O   UNK N   1      29.023  18.129   5.314  0.00  0.00    -0.308 OA
HETATM   15  C   UNK N   1      27.898  18.615   5.823  0.00  0.00     0.090 A 
ENDROOT
BRANCH  15  16
HETATM   16  C   UNK N   1      26.878  19.116   4.885  0.00  0.00    -0.002 A 
HETATM   17  C   UNK N   1      27.247  20.101   3.954  0.00  0.00     0.014 A 
HETATM   18  C   UNK N   1      26.316  20.606   3.048  0.00  0.00     0.001 A 
HETATM   19  C   UNK N   1      25.003  20.131   3.063  0.00  0.00     0.000 A 
HETATM   20  C   UNK N   1      24.624  19.150   3.986  0.00  0.00     0.001 A 
HETATM   21  C   UNK N   1      25.559  18.642   4.897  0.00  0.00     0.014 A 
ENDBRANCH  15  16
TORSDOF 1
ENDMDL
MODEL 6
REMARK VINA RESULT:      -7.1      1.648      6.877
REMARK  1 active torsions:
REMARK  status: ('A' for Active; 'I' for Inactive)
REMARK    1  A    between atoms: C_15  and  C_16 
ROOT
HETATM    1  C   UNK N   1      28.551  22.567  -6.906  0.00  0.00     0.093 A 
HETATM    2  C   UNK N   1      27.573  23.260  -7.625  0.00  0.00     0.187 A 
HETATM    3  O   UNK N   1      27.276  22.894  -8.751  0.00  0.00    -0.287 OA
HETATM    4  C   UNK N   1      26.948  24.373  -7.041  0.00  0.00     0.049 A 
HETATM    5  C   UNK N   1      25.961  25.112  -7.710  0.00  0.00     0.019 A 
HETATM    6  C   UNK N   1      25.364  26.216  -7.087  0.00  0.00     0.013 A 
HETATM    7  C   UNK N   1      25.747  26.588  -5.794  0.00  0.00    -0.023 A 
HETATM    8  C   UNK N   1      25.154  27.689  -5.169  0.00  0.00     0.012 A 
HETATM    9  C   UNK N   1      25.543  28.056  -3.876  0.00  0.00     0.001 A 
HETATM   10  C   UNK N   1      26.525  27.326  -3.202  0.00  0.00     0.001 A 
HETATM   11  C   UNK N   1      27.122  26.225  -3.819  0.00  0.00     0.015 A 
HETATM   12  C   UNK N   1      26.740  25.849  -5.114  0.00  0.00     0.009 A 
HETATM   13  C   UNK N   1      27.336  24.748  -5.736  0.00  0.00     0.101 A 
HETATM   14  O   UNK N   1      28.267  24.059  -5.093  0.00  0.00    -0.308 OA
HETATM   15  C   UNK N   1      28.881  23.003  -5.611  0.00  0.00     0.090 A 
ENDROOT
BRANCH  15  16
HETATM   16  C   UNK N   1      29.900  22.329  -4.788  0.00  0.00    -0.002 A 
HETATM   17  C   UNK N   1      30.316  22.942  -3.595  0.00  0.00     0.014 A 
HETATM   18  C   UNK N   1      31.279  22.342  -2.785  0.00  0.00     0.001 A 
HETATM   19  C   UNK N   1      31.838  21.119  -3.160  0.00  0.00     0.000 A 
HETATM   20  C   UNK N   1      31.432  20.499  -4.347  0.00  0.00     0.001 A 
HETATM   21  C   UNK N   1      30.465  21.101  -5.161  0.00  0.00     0.014 A 
ENDBRANCH  15  16
TORSDOF 1
ENDMDL
MODEL 7
REMARK VINA RESULT:      -7.1     11.888     13.716
REMARK  1 active torsions:
REMARK  status: ('A' for Active; 'I' for Inactive)
REMARK    1  A    between atoms: C_15  and  C_16 
ROOT
HETATM    1  C   UNK N   1      20.970  17.857   5.018  0.00  0.00     0.093 A 
HETATM    2  C   UNK N   1      21.227  18.838   4.056  0.00  0.00     0.187 A 
HETATM    3  O   UNK N   1      20.305  19.315   3.415  0.00  0.00    -0.287 OA
HETATM    4  C   UNK N   1      22.549  19.260   3.839  0.00  0.00     0.049 A 
HETATM    5  C   UNK N   1      22.874  20.240   2.889  0.00  0.00     0.019 A 
HETATM    6  C   UNK N   1      24.207  20.630   2.707  0.00  0.00     0.013 A 
HETATM    7  C   UNK N   1      25.222  20.046   3.472  0.00  0.00    -0.023 A 
HETATM    8  C   UNK N   1      26.554  20.433   3.294  0.00  0.00     0.012 A 
HETATM    9  C   UNK N   1      27.565  19.845   4.062  0.00  0.00     0.001 A 
HETATM   10  C   UNK N   1      27.250  18.869   5.011  0.00  0.00     0.001 A 
HETATM   11  C   UNK N   1      25.924  18.477   5.196  0.00  0.00     0.015 A 
HETATM   12  C   UNK N   1      24.903  19.061   4.431  0.00  0.00     0.009 A 
HETATM   13  C   UNK N   1      23.573  18.670   4.612  0.00  0.00     0.101 A 
HETATM   14  O   UNK N   1      23.280  17.745   5.512  0.00  0.00    -0.308 OA
HETATM   15  C   UNK N   1      22.045  17.319   5.746  0.00  0.00     0.090 A 
ENDROOT
BRANCH  15  16
HETATM   16  C   UNK N   1      21.859  16.281   6.775  0.00  0.00    -0.002 A 
HETATM   17  C   UNK N   1      22.692  15.150   6.749  0.00  0.00     0.014 A 
HETATM   18  C   UNK N   1      22.551  14.142   7.701  0.00  0.00     0.001 A 
HETATM   19  C   UNK N   1      21.574  14.253   8.692  0.00  0.00     0.000 A 
HETATM   20  C   UNK N   1      20.738  15.375   8.728  0.00  0.00     0.001 A 
HETATM   21  C   UNK N   1      20.878  16.388   7.772  0.00  0.00     0.014 A 
ENDBRANCH  15  16
TORSDOF 1
ENDMDL
MODEL 8
REMARK VINA RESULT:      -7.1     20.340     23.251
REMARK  1 active torsions:
REMARK  status: ('A' for Active; 'I' for Inactive)
REMARK    1  A    between atoms: C_15  and  C_16 
ROOT
HETATM    1  C   UNK N   1      37.196  10.742  14.741  0.00  0.00     0.093 A 
HETATM    2  C   UNK N   1      37.634  10.562  13.425  0.00  0.00     0.187 A 
HETATM    3  O   UNK N   1      38.232   9.543  13.120  0.00  0.00    -0.287 OA
HETATM    4  C   UNK N   1      37.380  11.561  12.472  0.00  0.00     0.049 A 
HETATM    5  C   UNK N   1      37.793  11.442  11.137  0.00  0.00     0.019 A 
HETATM    6  C   UNK N   1      37.517  12.464  10.220  0.00  0.00     0.013 A 
HETATM    7  C   UNK N   1      36.827  13.611  10.629  0.00  0.00    -0.023 A 
HETATM    8  C   UNK N   1      36.549  14.634   9.717  0.00  0.00     0.012 A 
HETATM    9  C   UNK N   1      35.859  15.777  10.134  0.00  0.00     0.001 A 
HETATM   10  C   UNK N   1      35.443  15.904  11.461  0.00  0.00     0.001 A 
HETATM   11  C   UNK N   1      35.716  14.888  12.378  0.00  0.00     0.015 A 
HETATM   12  C   UNK N   1      36.407  13.737  11.971  0.00  0.00     0.009 A 
HETATM   13  C   UNK N   1      36.683  12.717  12.886  0.00  0.00     0.101 A 
HETATM   14  O   UNK N   1      36.287  12.842  14.144  0.00  0.00    -0.308 OA
HETATM   15  C   UNK N   1      36.508  11.922  15.074  0.00  0.00     0.090 A 
ENDROOT
BRANCH  15  16
HETATM   16  C   UNK N   1      36.015  12.189  16.436  0.00  0.00    -0.002 A 
HETATM   17  C   UNK N   1      35.661  13.504  16.778  0.00  0.00     0.014 A 
HETATM   18  C   UNK N   1      35.192  13.804  18.056  0.00  0.00     0.001 A 
HETATM   19  C   UNK N   1      35.070  12.790  19.008  0.00  0.00     0.000 A 
HETATM   20  C   UNK N   1      35.420  11.476  18.678  0.00  0.00     0.001 A 
HETATM   21  C   UNK N   1      35.892  11.173  17.396  0.00  0.00     0.014 A 
ENDBRANCH  15  16
TORSDOF 1
ENDMDL
MODEL 9
REMARK VINA RESULT:      -7.0     19.740     22.642
REMARK  1 active torsions:
REMARK  status: ('A' for Active; 'I' for Inactive)
REMARK    1  A    between atoms: C_15  and  C_16 
ROOT
HETATM    1  C   UNK N   1      34.635  10.510  14.234  0.00  0.00     0.093 A 
HETATM    2  C   UNK N   1      34.522  10.283  12.859  0.00  0.00     0.187 A 
HETATM    3  O   UNK N   1      34.297   9.157  12.447  0.00  0.00    -0.287 OA
HETATM    4  C   UNK N   1      34.673  11.359  11.969  0.00  0.00     0.049 A 
HETATM    5  C   UNK N   1      34.571  11.198  10.579  0.00  0.00     0.019 A 
HETATM    6  C   UNK N   1      34.729  12.300   9.729  0.00  0.00     0.013 A 
HETATM    7  C   UNK N   1      34.986  13.569  10.260  0.00  0.00    -0.023 A 
HETATM    8  C   UNK N   1      35.144  14.672   9.415  0.00  0.00     0.012 A 
HETATM    9  C   UNK N   1      35.402  15.937   9.954  0.00  0.00     0.001 A 
HETATM   10  C   UNK N   1      35.504  16.107  11.337  0.00  0.00     0.001 A 
HETATM   11  C   UNK N   1      35.348  15.011  12.187  0.00  0.00     0.015 A 
HETATM   12  C   UNK N   1      35.089  13.739  11.658  0.00  0.00     0.009 A 
HETATM   13  C   UNK N   1      34.933  12.638  12.506  0.00  0.00     0.101 A 
HETATM   14  O   UNK N   1      35.031  12.804  13.816  0.00  0.00    -0.308 OA
HETATM   15  C   UNK N   1      34.896  11.814  14.689  0.00  0.00     0.090 A 
ENDROOT
BRANCH  15  16
HETATM   16  C   UNK N   1      35.030  12.136  16.121  0.00  0.00    -0.002 A 
HETATM   17  C   UNK N   1      35.188  11.081  17.035  0.00  0.00     0.014 A 
HETATM   18  C   UNK N   1      35.318  11.337  18.399  0.00  0.00     0.001 A 
HETATM   19  C   UNK N   1      35.291  12.652  18.865  0.00  0.00     0.000 A 
HETATM   20  C   UNK N   1      35.135  13.711  17.964  0.00  0.00     0.001 A 
HETATM   21  C   UNK N   1      35.004  13.456  16.593  0.00  0.00     0.014 A 
ENDBRANCH  15  16
TORSDOF 1
ENDMDL
