REMARK  5 active torsions:
REMARK  status: ('A' for Active; 'I' for Inactive)
REMARK    1  A    between atoms: C_2  and  C_3 
REMARK    2  A    between atoms: C_3  and  C_6 
REMARK       I    between atoms: C_6  and  N_8 
REMARK    3  A    between atoms: N_8  and  C_9 
REMARK    4  A    between atoms: C_13  and  N_14 
REMARK    5  A    between atoms: C_17  and  C_18 
ROOT
HETATM    1  C   UNK N   1      -3.246  -1.582  -0.258  0.00  0.00     0.144 C 
HETATM    2  O   UNK N   1      -3.345  -1.745  -1.641  0.00  0.00    -0.380 OA
HETATM    3  C   UNK N   1      -4.410  -0.714   0.215  0.00  0.00     0.057 C 
HETATM    4  H   UNK N   1      -3.478  -1.742  -2.602  0.00  0.00     0.211 HD
ENDROOT
BRANCH   1   5
HETATM    5  C   UNK N   1      -3.328  -2.944   0.423  0.00  0.00     0.132 C 
HETATM    6 Br   UNK N   1      -4.992  -3.870   0.010  0.00  0.00    -0.093 Br
ENDBRANCH   1   5
BRANCH   1   7
HETATM    7  C   UNK N   1      -1.926  -0.919   0.053  0.00  0.00     0.257 C 
HETATM    8  O   UNK N   1      -1.916   0.171   0.613  0.00  0.00    -0.270 OA
HETATM    9  N   UNK N   1      -0.750  -1.526  -0.286  0.00  0.00    -0.325 N 
HETATM   10  H   UNK N   1      -0.773  -2.456  -0.609  0.00  0.00     0.169 HD
BRANCH   9  11
HETATM   11  C   UNK N   1       0.506  -0.863  -0.188  0.00  0.00     0.035 A 
HETATM   12  C   UNK N   1       0.588   0.516  -0.383  0.00  0.00     0.048 A 
HETATM   13  C   UNK N   1       1.785   1.219  -0.244  0.00  0.00     0.083 A 
HETATM   14  C   UNK N   1       2.965   0.499   0.122  0.00  0.00     0.118 A 
HETATM   15  C   UNK N   1       2.877  -0.901   0.274  0.00  0.00     0.039 A 
HETATM   16  C   UNK N   1       1.664  -1.578   0.112  0.00  0.00     0.032 A 
BRANCH  13  17
HETATM   17  C   UNK N   1       1.731   2.712  -0.485  0.00  0.00     0.419 C 
HETATM   18  F   UNK N   1       2.615   3.065  -1.489  0.00  0.00    -0.166 F 
HETATM   19  F   UNK N   1       2.033   3.393   0.679  0.00  0.00    -0.166 F 
HETATM   20  F   UNK N   1       0.462   3.103  -0.888  0.00  0.00    -0.166 F 
ENDBRANCH  13  17
BRANCH  14  21
HETATM   21  N   UNK N   1       4.235   1.124   0.345  0.00  0.00    -0.115 N 
HETATM   22  O   UNK N   1       4.362   2.309   0.290  0.00  0.00    -0.532 OA
HETATM   23  O   UNK N   1       5.274   0.390   0.680  0.00  0.00    -0.532 OA
ENDBRANCH  14  21
ENDBRANCH   9  11
ENDBRANCH   1   7
TORSDOF 5
