MODEL 1
REMARK VINA RESULT:      -6.3      0.000      0.000
REMARK  5 active torsions:
REMARK  status: ('A' for Active; 'I' for Inactive)
REMARK    1  A    between atoms: C_2  and  C_3 
REMARK    2  A    between atoms: C_3  and  C_6 
REMARK       I    between atoms: C_6  and  N_8 
REMARK    3  A    between atoms: N_8  and  C_9 
REMARK    4  A    between atoms: C_13  and  N_14 
REMARK    5  A    between atoms: C_17  and  C_18 
ROOT
HETATM    1  C   UNK N   1      31.750  21.837  -3.313  0.00  0.00     0.144 C 
HETATM    2  O   UNK N   1      32.280  21.501  -2.066  0.00  0.00    -0.380 OA
HETATM    3  C   UNK N   1      32.896  22.239  -4.238  0.00  0.00     0.057 C 
HETATM    4  H   UNK N   1      32.749  21.351  -1.230  0.00  0.00     0.211 HD
ENDROOT
BRANCH   1   5
HETATM    5  C   UNK N   1      31.030  20.628  -3.903  0.00  0.00     0.132 C 
HETATM    6 Br   UNK N   1      31.446  20.378  -5.790  0.00  0.00    -0.093 Br
ENDBRANCH   1   5
BRANCH   1   7
HETATM    7  C   UNK N   1      30.785  22.983  -3.131  0.00  0.00     0.257 C 
HETATM    8  O   UNK N   1      30.602  23.445  -2.010  0.00  0.00    -0.270 OA
HETATM    9  N   UNK N   1      30.119  23.504  -4.204  0.00  0.00    -0.325 N 
HETATM   10  H   UNK N   1      30.378  23.214  -5.108  0.00  0.00     0.169 HD
BRANCH   9  11
HETATM   11  C   UNK N   1      29.065  24.451  -4.060  0.00  0.00     0.035 A 
HETATM   12  C   UNK N   1      29.320  25.813  -4.218  0.00  0.00     0.048 A 
HETATM   13  C   UNK N   1      28.312  26.775  -4.142  0.00  0.00     0.083 A 
HETATM   14  C   UNK N   1      26.970  26.344  -3.904  0.00  0.00     0.118 A 
HETATM   15  C   UNK N   1      26.732  24.967  -3.703  0.00  0.00     0.039 A 
HETATM   16  C   UNK N   1      27.768  24.030  -3.771  0.00  0.00     0.032 A 
BRANCH  13  17
HETATM   17  C   UNK N   1      28.729  28.217  -4.331  0.00  0.00     0.419 C 
HETATM   18  F   UNK N   1      28.448  28.948  -3.191  0.00  0.00    -0.166 F 
HETATM   19  F   UNK N   1      28.077  28.761  -5.421  0.00  0.00    -0.166 F 
HETATM   20  F   UNK N   1      30.094  28.311  -4.564  0.00  0.00    -0.166 F 
ENDBRANCH  13  17
BRANCH  14  21
HETATM   21  N   UNK N   1      25.849  27.236  -3.860  0.00  0.00    -0.115 N 
HETATM   22  O   UNK N   1      25.177  27.437  -4.825  0.00  0.00    -0.532 OA
HETATM   23  O   UNK N   1      25.508  27.800  -2.721  0.00  0.00    -0.532 OA
ENDBRANCH  14  21
ENDBRANCH   9  11
ENDBRANCH   1   7
TORSDOF 5
ENDMDL
MODEL 2
REMARK VINA RESULT:      -6.0     13.717     15.260
REMARK  5 active torsions:
REMARK  status: ('A' for Active; 'I' for Inactive)
REMARK    1  A    between atoms: C_2  and  C_3 
REMARK    2  A    between atoms: C_3  and  C_6 
REMARK       I    between atoms: C_6  and  N_8 
REMARK    3  A    between atoms: N_8  and  C_9 
REMARK    4  A    between atoms: C_13  and  N_14 
REMARK    5  A    between atoms: C_17  and  C_18 
ROOT
HETATM    1  C   UNK N   1      35.083  15.945  10.206  0.00  0.00     0.144 C 
HETATM    2  O   UNK N   1      35.603  17.239  10.268  0.00  0.00    -0.380 OA
HETATM    3  C   UNK N   1      36.064  15.063   9.437  0.00  0.00     0.057 C 
HETATM    4  H   UNK N   1      36.027  18.109  10.199  0.00  0.00     0.211 HD
ENDROOT
BRANCH   1   5
HETATM    5  C   UNK N   1      34.916  15.395  11.619  0.00  0.00     0.132 C 
HETATM    6 Br   UNK N   1      35.460  13.528  11.746  0.00  0.00    -0.093 Br
ENDBRANCH   1   5
BRANCH   1   7
HETATM    7  C   UNK N   1      33.749  15.997   9.503  0.00  0.00     0.257 C 
HETATM    8  O   UNK N   1      33.084  14.974   9.395  0.00  0.00    -0.270 OA
HETATM    9  N   UNK N   1      33.283  17.174   8.989  0.00  0.00    -0.325 N 
HETATM   10  H   UNK N   1      33.763  18.007   9.203  0.00  0.00     0.169 HD
BRANCH   9  11
HETATM   11  C   UNK N   1      32.130  17.239   8.157  0.00  0.00     0.035 A 
HETATM   12  C   UNK N   1      30.897  17.610   8.695  0.00  0.00     0.048 A 
HETATM   13  C   UNK N   1      29.750  17.742   7.911  0.00  0.00     0.083 A 
HETATM   14  C   UNK N   1      29.848  17.497   6.506  0.00  0.00     0.118 A 
HETATM   15  C   UNK N   1      31.090  17.081   5.982  0.00  0.00     0.039 A 
HETATM   16  C   UNK N   1      32.218  16.944   6.798  0.00  0.00     0.032 A 
BRANCH  13  17
HETATM   17  C   UNK N   1      28.480  18.150   8.625  0.00  0.00     0.419 C 
HETATM   18  F   UNK N   1      27.556  17.121   8.580  0.00  0.00    -0.166 F 
HETATM   19  F   UNK N   1      27.954  19.289   8.046  0.00  0.00    -0.166 F 
HETATM   20  F   UNK N   1      28.730  18.430   9.961  0.00  0.00    -0.166 F 
ENDBRANCH  13  17
BRANCH  14  21
HETATM   21  N   UNK N   1      28.751  17.654   5.598  0.00  0.00    -0.115 N 
HETATM   22  O   UNK N   1      28.607  18.655   4.964  0.00  0.00    -0.532 OA
HETATM   23  O   UNK N   1      27.915  16.657   5.406  0.00  0.00    -0.532 OA
ENDBRANCH  14  21
ENDBRANCH   9  11
ENDBRANCH   1   7
TORSDOF 5
ENDMDL
MODEL 3
REMARK VINA RESULT:      -5.9     11.899     13.986
REMARK  5 active torsions:
REMARK  status: ('A' for Active; 'I' for Inactive)
REMARK    1  A    between atoms: C_2  and  C_3 
REMARK    2  A    between atoms: C_3  and  C_6 
REMARK       I    between atoms: C_6  and  N_8 
REMARK    3  A    between atoms: N_8  and  C_9 
REMARK    4  A    between atoms: C_13  and  N_14 
REMARK    5  A    between atoms: C_17  and  C_18 
ROOT
HETATM    1  C   UNK N   1      26.275  18.299   5.024  0.00  0.00     0.144 C 
HETATM    2  O   UNK N   1      25.466  17.467   5.800  0.00  0.00    -0.380 OA
HETATM    3  C   UNK N   1      26.455  17.660   3.649  0.00  0.00     0.057 C 
HETATM    4  H   UNK N   1      24.949  16.789   6.263  0.00  0.00     0.211 HD
ENDROOT
BRANCH   1   5
HETATM    5  C   UNK N   1      25.600  19.657   4.860  0.00  0.00     0.132 C 
HETATM    6 Br   UNK N   1      25.508  20.208   2.993  0.00  0.00    -0.093 Br
ENDBRANCH   1   5
BRANCH   1   7
HETATM    7  C   UNK N   1      27.606  18.456   5.717  0.00  0.00     0.257 C 
HETATM    8  O   UNK N   1      28.180  19.538   5.684  0.00  0.00    -0.270 OA
HETATM    9  N   UNK N   1      28.170  17.402   6.378  0.00  0.00    -0.325 N 
HETATM   10  H   UNK N   1      27.636  16.585   6.510  0.00  0.00     0.169 HD
BRANCH   9  11
HETATM   11  C   UNK N   1      29.501  17.442   6.882  0.00  0.00     0.035 A 
HETATM   12  C   UNK N   1      30.574  17.107   6.056  0.00  0.00     0.048 A 
HETATM   13  C   UNK N   1      31.899  17.184   6.486  0.00  0.00     0.083 A 
HETATM   14  C   UNK N   1      32.163  17.632   7.818  0.00  0.00     0.118 A 
HETATM   15  C   UNK N   1      31.067  17.926   8.657  0.00  0.00     0.039 A 
HETATM   16  C   UNK N   1      29.749  17.824   8.199  0.00  0.00     0.032 A 
BRANCH  13  17
HETATM   17  C   UNK N   1      32.965  16.791   5.487  0.00  0.00     0.419 C 
HETATM   18  F   UNK N   1      33.903  15.970   6.088  0.00  0.00    -0.166 F 
HETATM   19  F   UNK N   1      33.576  17.919   4.974  0.00  0.00    -0.166 F 
HETATM   20  F   UNK N   1      32.413  16.088   4.425  0.00  0.00    -0.166 F 
ENDBRANCH  13  17
BRANCH  14  21
HETATM   21  N   UNK N   1      33.483  17.801   8.349  0.00  0.00    -0.115 N 
HETATM   22  O   UNK N   1      33.931  17.043   9.153  0.00  0.00    -0.532 OA
HETATM   23  O   UNK N   1      34.248  18.772   7.899  0.00  0.00    -0.532 OA
ENDBRANCH  14  21
ENDBRANCH   9  11
ENDBRANCH   1   7
TORSDOF 5
ENDMDL
MODEL 4
REMARK VINA RESULT:      -5.9     23.518     25.720
REMARK  5 active torsions:
REMARK  status: ('A' for Active; 'I' for Inactive)
REMARK    1  A    between atoms: C_2  and  C_3 
REMARK    2  A    between atoms: C_3  and  C_6 
REMARK       I    between atoms: C_6  and  N_8 
REMARK    3  A    between atoms: N_8  and  C_9 
REMARK    4  A    between atoms: C_13  and  N_14 
REMARK    5  A    between atoms: C_17  and  C_18 
ROOT
HETATM    1  C   UNK N   1      35.807  13.771  12.866  0.00  0.00     0.144 C 
HETATM    2  O   UNK N   1      34.507  13.450  12.471  0.00  0.00    -0.380 OA
HETATM    3  C   UNK N   1      36.789  13.031  11.961  0.00  0.00     0.057 C 
HETATM    4  H   UNK N   1      33.655  13.114  12.150  0.00  0.00     0.211 HD
ENDROOT
BRANCH   1   5
HETATM    5  C   UNK N   1      36.027  15.273  12.723  0.00  0.00     0.132 C 
HETATM    6 Br   UNK N   1      35.521  15.922  10.957  0.00  0.00    -0.093 Br
ENDBRANCH   1   5
BRANCH   1   7
HETATM    7  C   UNK N   1      35.987  13.350  14.305  0.00  0.00     0.257 C 
HETATM    8  O   UNK N   1      37.118  13.176  14.744  0.00  0.00    -0.270 OA
HETATM    9  N   UNK N   1      34.901  13.163  15.112  0.00  0.00    -0.325 N 
HETATM   10  H   UNK N   1      34.014  13.438  14.785  0.00  0.00     0.169 HD
BRANCH   9  11
HETATM   11  C   UNK N   1      35.007  12.587  16.410  0.00  0.00     0.035 A 
HETATM   12  C   UNK N   1      35.056  11.201  16.560  0.00  0.00     0.048 A 
HETATM   13  C   UNK N   1      35.213  10.590  17.804  0.00  0.00     0.083 A 
HETATM   14  C   UNK N   1      35.340  11.418  18.963  0.00  0.00     0.118 A 
HETATM   15  C   UNK N   1      35.246  12.816  18.803  0.00  0.00     0.039 A 
HETATM   16  C   UNK N   1      35.072  13.396  17.543  0.00  0.00     0.032 A 
BRANCH  13  17
HETATM   17  C   UNK N   1      35.249   9.077  17.822  0.00  0.00     0.419 C 
HETATM   18  F   UNK N   1      36.403   8.635  18.444  0.00  0.00    -0.166 F 
HETATM   19  F   UNK N   1      35.183   8.585  16.532  0.00  0.00    -0.166 F 
HETATM   20  F   UNK N   1      34.170   8.564  18.528  0.00  0.00    -0.166 F 
ENDBRANCH  13  17
BRANCH  14  21
HETATM   21  N   UNK N   1      35.560  10.902  20.282  0.00  0.00    -0.115 N 
HETATM   22  O   UNK N   1      34.655  10.517  20.957  0.00  0.00    -0.532 OA
HETATM   23  O   UNK N   1      36.787  10.789  20.743  0.00  0.00    -0.532 OA
ENDBRANCH  14  21
ENDBRANCH   9  11
ENDBRANCH   1   7
TORSDOF 5
ENDMDL
MODEL 5
REMARK VINA RESULT:      -5.9     17.684     19.711
REMARK  5 active torsions:
REMARK  status: ('A' for Active; 'I' for Inactive)
REMARK    1  A    between atoms: C_2  and  C_3 
REMARK    2  A    between atoms: C_3  and  C_6 
REMARK       I    between atoms: C_6  and  N_8 
REMARK    3  A    between atoms: N_8  and  C_9 
REMARK    4  A    between atoms: C_13  and  N_14 
REMARK    5  A    between atoms: C_17  and  C_18 
ROOT
HETATM    1  C   UNK N   1      36.720  12.675  14.337  0.00  0.00     0.144 C 
HETATM    2  O   UNK N   1      37.555  13.528  15.061  0.00  0.00    -0.380 OA
HETATM    3  C   UNK N   1      37.573  11.576  13.708  0.00  0.00     0.057 C 
HETATM    4  H   UNK N   1      38.231  14.083  15.481  0.00  0.00     0.211 HD
ENDROOT
BRANCH   1   5
HETATM    5  C   UNK N   1      35.700  12.041  15.277  0.00  0.00     0.132 C 
HETATM    6 Br   UNK N   1      35.314  13.177  16.812  0.00  0.00    -0.093 Br
ENDBRANCH   1   5
BRANCH   1   7
HETATM    7  C   UNK N   1      36.019  13.482  13.271  0.00  0.00     0.257 C 
HETATM    8  O   UNK N   1      34.797  13.438  13.187  0.00  0.00    -0.270 OA
HETATM    9  N   UNK N   1      36.738  14.257  12.405  0.00  0.00    -0.325 N 
HETATM   10  H   UNK N   1      37.700  14.387  12.573  0.00  0.00     0.169 HD
BRANCH   9  11
HETATM   11  C   UNK N   1      36.147  14.883  11.272  0.00  0.00     0.035 A 
HETATM   12  C   UNK N   1      36.084  14.208  10.052  0.00  0.00     0.048 A 
HETATM   13  C   UNK N   1      35.466  14.757   8.927  0.00  0.00     0.083 A 
HETATM   14  C   UNK N   1      34.868  16.051   9.036  0.00  0.00     0.118 A 
HETATM   15  C   UNK N   1      34.976  16.740  10.263  0.00  0.00     0.039 A 
HETATM   16  C   UNK N   1      35.616  16.168  11.367  0.00  0.00     0.032 A 
BRANCH  13  17
HETATM   17  C   UNK N   1      35.471  13.917   7.669  0.00  0.00     0.419 C 
HETATM   18  F   UNK N   1      36.064  14.615   6.632  0.00  0.00    -0.166 F 
HETATM   19  F   UNK N   1      34.180  13.562   7.329  0.00  0.00    -0.166 F 
HETATM   20  F   UNK N   1      36.196  12.749   7.856  0.00  0.00    -0.166 F 
ENDBRANCH  13  17
BRANCH  14  21
HETATM   21  N   UNK N   1      34.162  16.688   7.964  0.00  0.00    -0.115 N 
HETATM   22  O   UNK N   1      34.715  17.426   7.208  0.00  0.00    -0.532 OA
HETATM   23  O   UNK N   1      32.892  16.409   7.763  0.00  0.00    -0.532 OA
ENDBRANCH  14  21
ENDBRANCH   9  11
ENDBRANCH   1   7
TORSDOF 5
ENDMDL
MODEL 6
REMARK VINA RESULT:      -5.8      3.964      7.066
REMARK  5 active torsions:
REMARK  status: ('A' for Active; 'I' for Inactive)
REMARK    1  A    between atoms: C_2  and  C_3 
REMARK    2  A    between atoms: C_3  and  C_6 
REMARK       I    between atoms: C_6  and  N_8 
REMARK    3  A    between atoms: N_8  and  C_9 
REMARK    4  A    between atoms: C_13  and  N_14 
REMARK    5  A    between atoms: C_17  and  C_18 
ROOT
HETATM    1  C   UNK N   1      25.861  27.589  -4.538  0.00  0.00     0.144 C 
HETATM    2  O   UNK N   1      25.245  28.035  -3.367  0.00  0.00    -0.380 OA
HETATM    3  C   UNK N   1      24.778  27.150  -5.521  0.00  0.00     0.057 C 
HETATM    4  H   UNK N   1      24.717  28.264  -2.586  0.00  0.00     0.211 HD
ENDROOT
BRANCH   1   5
HETATM    5  C   UNK N   1      26.667  28.727  -5.156  0.00  0.00     0.132 C 
HETATM    6 Br   UNK N   1      27.068  30.126  -3.861  0.00  0.00    -0.093 Br
ENDBRANCH   1   5
BRANCH   1   7
HETATM    7  C   UNK N   1      26.767  26.432  -4.192  0.00  0.00     0.257 C 
HETATM    8  O   UNK N   1      26.476  25.698  -3.255  0.00  0.00    -0.270 OA
HETATM    9  N   UNK N   1      27.904  26.203  -4.915  0.00  0.00    -0.325 N 
HETATM   10  H   UNK N   1      28.050  26.716  -5.743  0.00  0.00     0.169 HD
BRANCH   9  11
HETATM   11  C   UNK N   1      28.883  25.250  -4.515  0.00  0.00     0.035 A 
HETATM   12  C   UNK N   1      28.955  24.011  -5.151  0.00  0.00     0.048 A 
HETATM   13  C   UNK N   1      29.930  23.065  -4.833  0.00  0.00     0.083 A 
HETATM   14  C   UNK N   1      30.894  23.385  -3.827  0.00  0.00     0.118 A 
HETATM   15  C   UNK N   1      30.784  24.625  -3.162  0.00  0.00     0.039 A 
HETATM   16  C   UNK N   1      29.784  25.545  -3.494  0.00  0.00     0.032 A 
BRANCH  13  17
HETATM   17  C   UNK N   1      29.892  21.761  -5.601  0.00  0.00     0.419 C 
HETATM   18  F   UNK N   1      30.973  21.683  -6.461  0.00  0.00    -0.166 F 
HETATM   19  F   UNK N   1      28.709  21.660  -6.308  0.00  0.00    -0.166 F 
HETATM   20  F   UNK N   1      29.964  20.676  -4.738  0.00  0.00    -0.166 F 
ENDBRANCH  13  17
BRANCH  14  21
HETATM   21  N   UNK N   1      31.971  22.515  -3.458  0.00  0.00    -0.115 N 
HETATM   22  O   UNK N   1      31.934  21.874  -2.452  0.00  0.00    -0.532 OA
HETATM   23  O   UNK N   1      32.995  22.363  -4.268  0.00  0.00    -0.532 OA
ENDBRANCH  14  21
ENDBRANCH   9  11
ENDBRANCH   1   7
TORSDOF 5
ENDMDL
MODEL 7
REMARK VINA RESULT:      -5.6      5.152      5.636
REMARK  5 active torsions:
REMARK  status: ('A' for Active; 'I' for Inactive)
REMARK    1  A    between atoms: C_2  and  C_3 
REMARK    2  A    between atoms: C_3  and  C_6 
REMARK       I    between atoms: C_6  and  N_8 
REMARK    3  A    between atoms: N_8  and  C_9 
REMARK    4  A    between atoms: C_13  and  N_14 
REMARK    5  A    between atoms: C_17  and  C_18 
ROOT
HETATM    1  C   UNK N   1      25.614  23.966  -8.959  0.00  0.00     0.144 C 
HETATM    2  O   UNK N   1      24.478  23.278  -8.529  0.00  0.00    -0.380 OA
HETATM    3  C   UNK N   1      26.689  22.947  -9.331  0.00  0.00     0.057 C 
HETATM    4  H   UNK N   1      23.771  22.702  -8.195  0.00  0.00     0.211 HD
ENDROOT
BRANCH   1   5
HETATM    5  C   UNK N   1      25.270  24.801 -10.187  0.00  0.00     0.132 C 
HETATM    6 Br   UNK N   1      26.852  25.259 -11.228  0.00  0.00    -0.093 Br
ENDBRANCH   1   5
BRANCH   1   7
HETATM    7  C   UNK N   1      26.089  24.855  -7.836  0.00  0.00     0.257 C 
HETATM    8  O   UNK N   1      26.817  24.391  -6.966  0.00  0.00    -0.270 OA
HETATM    9  N   UNK N   1      25.712  26.168  -7.786  0.00  0.00    -0.325 N 
HETATM   10  H   UNK N   1      25.243  26.555  -8.560  0.00  0.00     0.169 HD
BRANCH   9  11
HETATM   11  C   UNK N   1      25.974  26.994  -6.657  0.00  0.00     0.035 A 
HETATM   12  C   UNK N   1      27.073  27.853  -6.656  0.00  0.00     0.048 A 
HETATM   13  C   UNK N   1      27.341  28.721  -5.597  0.00  0.00     0.083 A 
HETATM   14  C   UNK N   1      26.449  28.735  -4.480  0.00  0.00     0.118 A 
HETATM   15  C   UNK N   1      25.366  27.831  -4.473  0.00  0.00     0.039 A 
HETATM   16  C   UNK N   1      25.135  26.962  -5.545  0.00  0.00     0.032 A 
BRANCH  13  17
HETATM   17  C   UNK N   1      28.567  29.598  -5.728  0.00  0.00     0.419 C 
HETATM   18  F   UNK N   1      28.196  30.929  -5.801  0.00  0.00    -0.166 F 
HETATM   19  F   UNK N   1      29.290  29.241  -6.850  0.00  0.00    -0.166 F 
HETATM   20  F   UNK N   1      29.398  29.455  -4.625  0.00  0.00    -0.166 F 
ENDBRANCH  13  17
BRANCH  14  21
HETATM   21  N   UNK N   1      26.595  29.622  -3.363  0.00  0.00    -0.115 N 
HETATM   22  O   UNK N   1      27.155  29.278  -2.367  0.00  0.00    -0.532 OA
HETATM   23  O   UNK N   1      26.163  30.861  -3.453  0.00  0.00    -0.532 OA
ENDBRANCH  14  21
ENDBRANCH   9  11
ENDBRANCH   1   7
TORSDOF 5
ENDMDL
MODEL 8
REMARK VINA RESULT:      -5.6      5.412      7.484
REMARK  5 active torsions:
REMARK  status: ('A' for Active; 'I' for Inactive)
REMARK    1  A    between atoms: C_2  and  C_3 
REMARK    2  A    between atoms: C_3  and  C_6 
REMARK       I    between atoms: C_6  and  N_8 
REMARK    3  A    between atoms: N_8  and  C_9 
REMARK    4  A    between atoms: C_13  and  N_14 
REMARK    5  A    between atoms: C_17  and  C_18 
ROOT
HETATM    1  C   UNK N   1      26.350  26.911  -3.874  0.00  0.00     0.144 C 
HETATM    2  O   UNK N   1      26.015  26.782  -2.525  0.00  0.00    -0.380 OA
HETATM    3  C   UNK N   1      25.220  27.650  -4.587  0.00  0.00     0.057 C 
HETATM    4  H   UNK N   1      25.657  26.698  -1.627  0.00  0.00     0.211 HD
ENDROOT
BRANCH   1   5
HETATM    5  C   UNK N   1      27.638  27.717  -4.006  0.00  0.00     0.132 C 
HETATM    6 Br   UNK N   1      27.499  29.100  -5.371  0.00  0.00    -0.093 Br
ENDBRANCH   1   5
BRANCH   1   7
HETATM    7  C   UNK N   1      26.534  25.530  -4.456  0.00  0.00     0.257 C 
HETATM    8  O   UNK N   1      26.441  24.551  -3.725  0.00  0.00    -0.270 OA
HETATM    9  N   UNK N   1      26.802  25.370  -5.786  0.00  0.00    -0.325 N 
HETATM   10  H   UNK N   1      26.737  26.153  -6.380  0.00  0.00     0.169 HD
BRANCH   9  11
HETATM   11  C   UNK N   1      27.169  24.112  -6.343  0.00  0.00     0.035 A 
HETATM   12  C   UNK N   1      26.203  23.299  -6.936  0.00  0.00     0.048 A 
HETATM   13  C   UNK N   1      26.521  22.084  -7.544  0.00  0.00     0.083 A 
HETATM   14  C   UNK N   1      27.889  21.667  -7.568  0.00  0.00     0.118 A 
HETATM   15  C   UNK N   1      28.850  22.478  -6.927  0.00  0.00     0.039 A 
HETATM   16  C   UNK N   1      28.495  23.683  -6.313  0.00  0.00     0.032 A 
BRANCH  13  17
HETATM   17  C   UNK N   1      25.375  21.302  -8.147  0.00  0.00     0.419 C 
HETATM   18  F   UNK N   1      25.500  21.259  -9.524  0.00  0.00    -0.166 F 
HETATM   19  F   UNK N   1      24.169  21.878  -7.795  0.00  0.00    -0.166 F 
HETATM   20  F   UNK N   1      25.371  19.994  -7.686  0.00  0.00    -0.166 F 
ENDBRANCH  13  17
BRANCH  14  21
HETATM   21  N   UNK N   1      28.338  20.467  -8.210  0.00  0.00    -0.115 N 
HETATM   22  O   UNK N   1      28.501  19.458  -7.596  0.00  0.00    -0.532 OA
HETATM   23  O   UNK N   1      28.516  20.452  -9.513  0.00  0.00    -0.532 OA
ENDBRANCH  14  21
ENDBRANCH   9  11
ENDBRANCH   1   7
TORSDOF 5
ENDMDL
MODEL 9
REMARK VINA RESULT:      -5.5     26.190     28.080
REMARK  5 active torsions:
REMARK  status: ('A' for Active; 'I' for Inactive)
REMARK    1  A    between atoms: C_2  and  C_3 
REMARK    2  A    between atoms: C_3  and  C_6 
REMARK       I    between atoms: C_6  and  N_8 
REMARK    3  A    between atoms: N_8  and  C_9 
REMARK    4  A    between atoms: C_13  and  N_14 
REMARK    5  A    between atoms: C_17  and  C_18 
ROOT
HETATM    1  C   UNK N   1      34.471   9.242  22.735  0.00  0.00     0.144 C 
HETATM    2  O   UNK N   1      34.363  10.152  23.788  0.00  0.00    -0.380 OA
HETATM    3  C   UNK N   1      35.812   8.520  22.851  0.00  0.00     0.057 C 
HETATM    4  H   UNK N   1      34.420  10.787  24.519  0.00  0.00     0.211 HD
ENDROOT
BRANCH   1   5
HETATM    5  C   UNK N   1      33.343   8.220  22.826  0.00  0.00     0.132 C 
HETATM    6 Br   UNK N   1      32.097   8.631  24.267  0.00  0.00    -0.093 Br
ENDBRANCH   1   5
BRANCH   1   7
HETATM    7  C   UNK N   1      34.386  10.002  21.434  0.00  0.00     0.257 C 
HETATM    8  O   UNK N   1      33.389   9.884  20.731  0.00  0.00    -0.270 OA
HETATM    9  N   UNK N   1      35.409  10.816  21.040  0.00  0.00    -0.325 N 
HETATM   10  H   UNK N   1      36.137  11.005  21.676  0.00  0.00     0.169 HD
BRANCH   9  11
HETATM   11  C   UNK N   1      35.462  11.402  19.743  0.00  0.00     0.035 A 
HETATM   12  C   UNK N   1      35.817  10.628  18.638  0.00  0.00     0.048 A 
HETATM   13  C   UNK N   1      35.829  11.142  17.341  0.00  0.00     0.083 A 
HETATM   14  C   UNK N   1      35.454  12.507  17.140  0.00  0.00     0.118 A 
HETATM   15  C   UNK N   1      35.139  13.290  18.271  0.00  0.00     0.039 A 
HETATM   16  C   UNK N   1      35.151  12.748  19.560  0.00  0.00     0.032 A 
BRANCH  13  17
HETATM   17  C   UNK N   1      36.235  10.192  16.235  0.00  0.00     0.419 C 
HETATM   18  F   UNK N   1      35.153   9.926  15.415  0.00  0.00    -0.166 F 
HETATM   19  F   UNK N   1      36.727   9.018  16.773  0.00  0.00    -0.166 F 
HETATM   20  F   UNK N   1      37.232  10.748  15.446  0.00  0.00    -0.166 F 
ENDBRANCH  13  17
BRANCH  14  21
HETATM   21  N   UNK N   1      35.379  13.125  15.849  0.00  0.00    -0.115 N 
HETATM   22  O   UNK N   1      36.302  13.729  15.395  0.00  0.00    -0.532 OA
HETATM   23  O   UNK N   1      34.297  12.973  15.115  0.00  0.00    -0.532 OA
ENDBRANCH  14  21
ENDBRANCH   9  11
ENDBRANCH   1   7
TORSDOF 5
ENDMDL
