MODEL 1
REMARK VINA RESULT:      -7.4      0.000      0.000
REMARK  9 active torsions:
REMARK  status: ('A' for Active; 'I' for Inactive)
REMARK    1  A    between atoms: N_1  and  S_12 
REMARK    2  A    between atoms: N_1  and  C_23 
REMARK    3  A    between atoms: N_3  and  S_10 
REMARK    4  A    between atoms: N_3  and  C_26 
REMARK    5  A    between atoms: C_4  and  C_18 
REMARK    6  A    between atoms: C_7  and  C_21 
REMARK    7  A    between atoms: C_8  and  C_22 
REMARK    8  A    between atoms: C_21  and  C_26 
REMARK    9  A    between atoms: C_22  and  C_23 
ROOT
HETATM    1  C   UNK N   1      34.953  12.855  12.357  0.00  0.00     0.008 A 
HETATM    2  C   UNK N   1      35.578  12.979  14.701  0.00  0.00    -0.026 A 
HETATM    3  C   UNK N   1      36.312  14.692  13.143  0.00  0.00     0.008 A 
HETATM    4  C   UNK N   1      35.632  14.056  12.094  0.00  0.00    -0.053 A 
HETATM    5  C   UNK N   1      34.928  12.319  13.646  0.00  0.00     0.013 A 
HETATM    6  C   UNK N   1      36.281  14.161  14.434  0.00  0.00     0.013 A 
ENDROOT
BRANCH   2   7
HETATM    7  C   UNK N   1      35.403  12.507  16.096  0.00  0.00    -0.026 A 
HETATM    8  C   UNK N   1      35.314  13.424  17.152  0.00  0.00     0.013 A 
HETATM    9  C   UNK N   1      35.310  12.981  18.477  0.00  0.00     0.008 A 
HETATM   10  C   UNK N   1      35.413  11.612  18.770  0.00  0.00    -0.053 A 
HETATM   11  C   UNK N   1      35.465  10.692  17.710  0.00  0.00     0.008 A 
HETATM   12  C   UNK N   1      35.458  11.135  16.386  0.00  0.00     0.013 A 
BRANCH  10  13
HETATM   13  C   UNK N   1      35.520  11.168  20.215  0.00  0.00     0.033 C 
HETATM   14  C   UNK N   1      36.869  10.500  20.426  0.00  0.00     0.017 C 
BRANCH  13  15
HETATM   15  C   UNK N   1      34.454  10.155  20.633  0.00  0.00     0.141 C 
BRANCH  15  16
HETATM   16  N   UNK N   1      34.360  10.050  22.086  0.00  0.00    -0.319 N 
HETATM   17  H   UNK N   1      35.129   9.857  22.727  0.00  0.00     0.172 HD
BRANCH  16  18
HETATM   18  S   UNK N   1      32.667  10.316  22.527  0.00  0.00     0.222 S 
HETATM   19  O   UNK N   1      32.182   9.041  23.230  0.00  0.00    -0.206 OA
HETATM   20  O   UNK N   1      32.504   9.394  21.307  0.00  0.00    -0.206 OA
HETATM   21  C   UNK N   1      33.768   9.736  23.852  0.00  0.00     0.185 C 
ENDBRANCH  16  18
ENDBRANCH  15  16
ENDBRANCH  13  15
ENDBRANCH  10  13
ENDBRANCH   2   7
BRANCH   4  22
HETATM   22  C   UNK N   1      35.580  14.714  10.728  0.00  0.00     0.033 C 
HETATM   23  C   UNK N   1      36.899  14.588   9.975  0.00  0.00     0.017 C 
BRANCH  22  24
HETATM   24  C   UNK N   1      35.241  16.202  10.804  0.00  0.00     0.141 C 
BRANCH  24  25
HETATM   25  N   UNK N   1      34.064  16.553  10.009  0.00  0.00    -0.319 N 
HETATM   26  H   UNK N   1      33.094  16.472  10.316  0.00  0.00     0.172 HD
BRANCH  25  27
HETATM   27  S   UNK N   1      34.606  17.139   8.426  0.00  0.00     0.222 S 
HETATM   28  O   UNK N   1      33.783  18.396   8.109  0.00  0.00    -0.206 OA
HETATM   29  O   UNK N   1      35.298  18.149   9.356  0.00  0.00    -0.206 OA
HETATM   30  C   UNK N   1      32.813  16.931   8.625  0.00  0.00     0.185 C 
ENDBRANCH  25  27
ENDBRANCH  24  25
ENDBRANCH  22  24
ENDBRANCH   4  22
TORSDOF 9
ENDMDL
MODEL 2
REMARK VINA RESULT:      -7.2      0.882     11.322
REMARK  9 active torsions:
REMARK  status: ('A' for Active; 'I' for Inactive)
REMARK    1  A    between atoms: N_1  and  S_12 
REMARK    2  A    between atoms: N_1  and  C_23 
REMARK    3  A    between atoms: N_3  and  S_10 
REMARK    4  A    between atoms: N_3  and  C_26 
REMARK    5  A    between atoms: C_4  and  C_18 
REMARK    6  A    between atoms: C_7  and  C_21 
REMARK    7  A    between atoms: C_8  and  C_22 
REMARK    8  A    between atoms: C_21  and  C_26 
REMARK    9  A    between atoms: C_22  and  C_23 
ROOT
HETATM    1  C   UNK N   1      35.345  10.610  17.646  0.00  0.00     0.008 A 
HETATM    2  C   UNK N   1      35.213  12.501  16.127  0.00  0.00    -0.026 A 
HETATM    3  C   UNK N   1      35.386  12.861  18.523  0.00  0.00     0.008 A 
HETATM    4  C   UNK N   1      35.442  11.478  18.746  0.00  0.00    -0.053 A 
HETATM    5  C   UNK N   1      35.229  11.115  16.349  0.00  0.00     0.013 A 
HETATM    6  C   UNK N   1      35.278  13.367  17.227  0.00  0.00     0.013 A 
ENDROOT
BRANCH   2   7
HETATM    7  C   UNK N   1      35.269  13.036  14.746  0.00  0.00    -0.026 A 
HETATM    8  C   UNK N   1      34.676  12.336  13.686  0.00  0.00     0.013 A 
HETATM    9  C   UNK N   1      34.864  12.754  12.367  0.00  0.00     0.008 A 
HETATM   10  C   UNK N   1      35.665  13.871  12.081  0.00  0.00    -0.053 A 
HETATM   11  C   UNK N   1      36.229  14.593  13.146  0.00  0.00     0.008 A 
HETATM   12  C   UNK N   1      36.031  14.181  14.465  0.00  0.00     0.013 A 
BRANCH  10  13
HETATM   13  C   UNK N   1      35.944  14.236  10.638  0.00  0.00     0.033 C 
HETATM   14  C   UNK N   1      37.431  14.073  10.367  0.00  0.00     0.017 C 
BRANCH  13  15
HETATM   15  C   UNK N   1      35.584  15.678  10.281  0.00  0.00     0.141 C 
BRANCH  15  16
HETATM   16  N   UNK N   1      35.099  15.783   8.909  0.00  0.00    -0.319 N 
HETATM   17  H   UNK N   1      35.289  15.128   8.151  0.00  0.00     0.172 HD
BRANCH  16  18
HETATM   18  S   UNK N   1      34.123  17.255   8.803  0.00  0.00     0.222 S 
HETATM   19  O   UNK N   1      34.780  18.153   7.745  0.00  0.00    -0.206 OA
HETATM   20  O   UNK N   1      35.329  17.767   9.609  0.00  0.00    -0.206 OA
HETATM   21  C   UNK N   1      34.484  16.410   7.236  0.00  0.00     0.185 C 
ENDBRANCH  16  18
ENDBRANCH  15  16
ENDBRANCH  13  15
ENDBRANCH  10  13
ENDBRANCH   2   7
BRANCH   4  22
HETATM   22  C   UNK N   1      35.679  10.954  20.151  0.00  0.00     0.033 C 
HETATM   23  C   UNK N   1      36.910  10.060  20.234  0.00  0.00     0.017 C 
BRANCH  22  24
HETATM   24  C   UNK N   1      34.496  10.150  20.687  0.00  0.00     0.141 C 
BRANCH  24  25
HETATM   25  N   UNK N   1      34.498  10.049  22.147  0.00  0.00    -0.319 N 
HETATM   26  H   UNK N   1      35.328  10.007  22.739  0.00  0.00     0.172 HD
BRANCH  25  27
HETATM   27  S   UNK N   1      32.818  10.012  22.712  0.00  0.00     0.222 S 
HETATM   28  O   UNK N   1      32.784  10.740  24.063  0.00  0.00    -0.206 OA
HETATM   29  O   UNK N   1      32.924  11.467  22.229  0.00  0.00    -0.206 OA
HETATM   30  C   UNK N   1      34.069   9.446  23.900  0.00  0.00     0.185 C 
ENDBRANCH  25  27
ENDBRANCH  24  25
ENDBRANCH  22  24
ENDBRANCH   4  22
TORSDOF 9
ENDMDL
MODEL 3
REMARK VINA RESULT:      -7.2      7.686     13.365
REMARK  9 active torsions:
REMARK  status: ('A' for Active; 'I' for Inactive)
REMARK    1  A    between atoms: N_1  and  S_12 
REMARK    2  A    between atoms: N_1  and  C_23 
REMARK    3  A    between atoms: N_3  and  S_10 
REMARK    4  A    between atoms: N_3  and  C_26 
REMARK    5  A    between atoms: C_4  and  C_18 
REMARK    6  A    between atoms: C_7  and  C_21 
REMARK    7  A    between atoms: C_8  and  C_22 
REMARK    8  A    between atoms: C_21  and  C_26 
REMARK    9  A    between atoms: C_22  and  C_23 
ROOT
HETATM    1  C   UNK N   1      25.996  17.380   4.988  0.00  0.00     0.008 A 
HETATM    2  C   UNK N   1      28.314  17.859   5.534  0.00  0.00    -0.026 A 
HETATM    3  C   UNK N   1      27.096  19.287   3.993  0.00  0.00     0.008 A 
HETATM    4  C   UNK N   1      25.941  18.509   4.155  0.00  0.00    -0.053 A 
HETATM    5  C   UNK N   1      27.172  17.055   5.669  0.00  0.00     0.013 A 
HETATM    6  C   UNK N   1      28.269  18.968   4.679  0.00  0.00     0.013 A 
ENDROOT
BRANCH   2   7
HETATM    7  C   UNK N   1      29.501  17.618   6.390  0.00  0.00    -0.026 A 
HETATM    8  C   UNK N   1      29.496  18.000   7.739  0.00  0.00     0.013 A 
HETATM    9  C   UNK N   1      30.664  17.920   8.502  0.00  0.00     0.008 A 
HETATM   10  C   UNK N   1      31.863  17.473   7.925  0.00  0.00    -0.053 A 
HETATM   11  C   UNK N   1      31.857  17.055   6.584  0.00  0.00     0.008 A 
HETATM   12  C   UNK N   1      30.687  17.125   5.825  0.00  0.00     0.013 A 
BRANCH  10  13
HETATM   13  C   UNK N   1      33.137  17.503   8.743  0.00  0.00     0.033 C 
HETATM   14  C   UNK N   1      34.245  18.122   7.906  0.00  0.00     0.017 C 
BRANCH  13  15
HETATM   15  C   UNK N   1      33.629  16.121   9.176  0.00  0.00     0.141 C 
BRANCH  15  16
HETATM   16  N   UNK N   1      34.536  16.212  10.315  0.00  0.00    -0.319 N 
HETATM   17  H   UNK N   1      34.393  16.768  11.158  0.00  0.00     0.172 HD
BRANCH  16  18
HETATM   18  S   UNK N   1      35.931  15.180   9.965  0.00  0.00     0.222 S 
HETATM   19  O   UNK N   1      36.261  14.421  11.258  0.00  0.00    -0.206 OA
HETATM   20  O   UNK N   1      36.603  16.309  10.764  0.00  0.00    -0.206 OA
HETATM   21  C   UNK N   1      34.498  14.371  10.736  0.00  0.00     0.185 C 
ENDBRANCH  16  18
ENDBRANCH  15  16
ENDBRANCH  13  15
ENDBRANCH  10  13
ENDBRANCH   2   7
BRANCH   4  22
HETATM   22  C   UNK N   1      24.646  18.944   3.493  0.00  0.00     0.033 C 
HETATM   23  C   UNK N   1      24.647  20.426   3.139  0.00  0.00     0.017 C 
BRANCH  22  24
HETATM   24  C   UNK N   1      23.422  18.687   4.370  0.00  0.00     0.141 C 
BRANCH  24  25
HETATM   25  N   UNK N   1      22.524  17.680   3.803  0.00  0.00    -0.319 N 
HETATM   26  H   UNK N   1      22.811  16.794   3.386  0.00  0.00     0.172 HD
BRANCH  25  27
HETATM   27  S   UNK N   1      20.856  18.260   3.959  0.00  0.00     0.222 S 
HETATM   28  O   UNK N   1      20.919  19.619   4.670  0.00  0.00    -0.206 OA
HETATM   29  O   UNK N   1      21.356  19.140   2.802  0.00  0.00    -0.206 OA
HETATM   30  C   UNK N   1      21.844  18.263   5.482  0.00  0.00     0.185 C 
ENDBRANCH  25  27
ENDBRANCH  24  25
ENDBRANCH  22  24
ENDBRANCH   4  22
TORSDOF 9
ENDMDL
MODEL 4
REMARK VINA RESULT:      -7.2      7.813     15.569
REMARK  9 active torsions:
REMARK  status: ('A' for Active; 'I' for Inactive)
REMARK    1  A    between atoms: N_1  and  S_12 
REMARK    2  A    between atoms: N_1  and  C_23 
REMARK    3  A    between atoms: N_3  and  S_10 
REMARK    4  A    between atoms: N_3  and  C_26 
REMARK    5  A    between atoms: C_4  and  C_18 
REMARK    6  A    between atoms: C_7  and  C_21 
REMARK    7  A    between atoms: C_8  and  C_22 
REMARK    8  A    between atoms: C_21  and  C_26 
REMARK    9  A    between atoms: C_22  and  C_23 
ROOT
HETATM    1  C   UNK N   1      31.583  17.047   6.899  0.00  0.00     0.008 A 
HETATM    2  C   UNK N   1      29.314  17.915   6.892  0.00  0.00    -0.026 A 
HETATM    3  C   UNK N   1      30.750  18.250   8.822  0.00  0.00     0.008 A 
HETATM    4  C   UNK N   1      31.801  17.579   8.180  0.00  0.00    -0.053 A 
HETATM    5  C   UNK N   1      30.351  17.210   6.262  0.00  0.00     0.013 A 
HETATM    6  C   UNK N   1      29.521  18.420   8.183  0.00  0.00     0.013 A 
ENDROOT
BRANCH   2   7
HETATM    7  C   UNK N   1      28.073  18.240   6.148  0.00  0.00    -0.026 A 
HETATM    8  C   UNK N   1      27.264  17.219   5.630  0.00  0.00     0.013 A 
HETATM    9  C   UNK N   1      26.186  17.523   4.796  0.00  0.00     0.008 A 
HETATM   10  C   UNK N   1      25.907  18.855   4.450  0.00  0.00    -0.053 A 
HETATM   11  C   UNK N   1      26.696  19.879   4.999  0.00  0.00     0.008 A 
HETATM   12  C   UNK N   1      27.766  19.575   5.841  0.00  0.00     0.013 A 
BRANCH  10  13
HETATM   13  C   UNK N   1      24.803  19.147   3.455  0.00  0.00     0.033 C 
HETATM   14  C   UNK N   1      25.138  20.429   2.710  0.00  0.00     0.017 C 
BRANCH  13  15
HETATM   15  C   UNK N   1      23.429  19.353   4.095  0.00  0.00     0.141 C 
BRANCH  15  16
HETATM   16  N   UNK N   1      22.380  18.686   3.332  0.00  0.00    -0.319 N 
HETATM   17  H   UNK N   1      22.507  17.906   2.687  0.00  0.00     0.172 HD
BRANCH  16  18
HETATM   18  S   UNK N   1      20.849  19.480   3.730  0.00  0.00     0.222 S 
HETATM   19  O   UNK N   1      20.120  19.737   2.404  0.00  0.00    -0.206 OA
HETATM   20  O   UNK N   1      21.667  20.676   3.211  0.00  0.00    -0.206 OA
HETATM   21  C   UNK N   1      20.748  18.024   2.648  0.00  0.00     0.185 C 
ENDBRANCH  16  18
ENDBRANCH  15  16
ENDBRANCH  13  15
ENDBRANCH  10  13
ENDBRANCH   2   7
BRANCH   4  22
HETATM   22  C   UNK N   1      33.163  17.511   8.846  0.00  0.00     0.033 C 
HETATM   23  C   UNK N   1      34.245  18.196   8.020  0.00  0.00     0.017 C 
BRANCH  22  24
HETATM   24  C   UNK N   1      33.624  16.076   9.099  0.00  0.00     0.141 C 
BRANCH  24  25
HETATM   25  N   UNK N   1      35.057  15.986   9.379  0.00  0.00    -0.319 N 
HETATM   26  H   UNK N   1      35.796  15.919   8.680  0.00  0.00     0.172 HD
BRANCH  25  27
HETATM   27  S   UNK N   1      35.290  16.011  11.136  0.00  0.00     0.222 S 
HETATM   28  O   UNK N   1      36.008  14.707  11.512  0.00  0.00    -0.206 OA
HETATM   29  O   UNK N   1      36.712  16.344  10.655  0.00  0.00    -0.206 OA
HETATM   30  C   UNK N   1      34.522  14.513  10.459  0.00  0.00     0.185 C 
ENDBRANCH  25  27
ENDBRANCH  24  25
ENDBRANCH  22  24
ENDBRANCH   4  22
TORSDOF 9
ENDMDL
MODEL 5
REMARK VINA RESULT:      -6.8      1.392     11.049
REMARK  9 active torsions:
REMARK  status: ('A' for Active; 'I' for Inactive)
REMARK    1  A    between atoms: N_1  and  S_12 
REMARK    2  A    between atoms: N_1  and  C_23 
REMARK    3  A    between atoms: N_3  and  S_10 
REMARK    4  A    between atoms: N_3  and  C_26 
REMARK    5  A    between atoms: C_4  and  C_18 
REMARK    6  A    between atoms: C_7  and  C_21 
REMARK    7  A    between atoms: C_8  and  C_22 
REMARK    8  A    between atoms: C_21  and  C_26 
REMARK    9  A    between atoms: C_22  and  C_23 
ROOT
HETATM    1  C   UNK N   1      35.187  12.902  18.435  0.00  0.00     0.008 A 
HETATM    2  C   UNK N   1      35.611  12.644  16.057  0.00  0.00    -0.026 A 
HETATM    3  C   UNK N   1      35.809  10.740  17.553  0.00  0.00     0.008 A 
HETATM    4  C   UNK N   1      35.437  11.536  18.646  0.00  0.00    -0.053 A 
HETATM    5  C   UNK N   1      35.276  13.452  17.154  0.00  0.00     0.013 A 
HETATM    6  C   UNK N   1      35.891  11.287  16.272  0.00  0.00     0.013 A 
ENDROOT
BRANCH   2   7
HETATM    7  C   UNK N   1      35.533  13.186  14.679  0.00  0.00    -0.026 A 
HETATM    8  C   UNK N   1      34.879  12.470  13.668  0.00  0.00     0.013 A 
HETATM    9  C   UNK N   1      34.941  12.901  12.340  0.00  0.00     0.008 A 
HETATM   10  C   UNK N   1      35.675  14.047  11.998  0.00  0.00    -0.053 A 
HETATM   11  C   UNK N   1      36.299  14.784  13.017  0.00  0.00     0.008 A 
HETATM   12  C   UNK N   1      36.227  14.360  14.345  0.00  0.00     0.013 A 
BRANCH  10  13
HETATM   13  C   UNK N   1      35.818  14.428  10.539  0.00  0.00     0.033 C 
HETATM   14  C   UNK N   1      37.275  14.275  10.132  0.00  0.00     0.017 C 
BRANCH  13  15
HETATM   15  C   UNK N   1      35.422  15.872  10.231  0.00  0.00     0.141 C 
BRANCH  15  16
HETATM   16  N   UNK N   1      34.013  15.972   9.865  0.00  0.00    -0.319 N 
HETATM   17  H   UNK N   1      33.265  15.352  10.173  0.00  0.00     0.172 HD
BRANCH  16  18
HETATM   18  S   UNK N   1      33.844  17.365   8.787  0.00  0.00     0.222 S 
HETATM   19  O   UNK N   1      34.815  17.146   7.618  0.00  0.00    -0.206 OA
HETATM   20  O   UNK N   1      35.172  17.702   9.485  0.00  0.00    -0.206 OA
HETATM   21  C   UNK N   1      33.717  15.725   8.015  0.00  0.00     0.185 C 
ENDBRANCH  16  18
ENDBRANCH  15  16
ENDBRANCH  13  15
ENDBRANCH  10  13
ENDBRANCH   2   7
BRANCH   4  22
HETATM   22  C   UNK N   1      35.238  10.894  20.007  0.00  0.00     0.033 C 
HETATM   23  C   UNK N   1      36.560  10.545  20.679  0.00  0.00     0.017 C 
BRANCH  22  24
HETATM   24  C   UNK N   1      34.411   9.611  19.937  0.00  0.00     0.141 C 
BRANCH  24  25
HETATM   25  N   UNK N   1      33.479   9.481  21.058  0.00  0.00    -0.319 N 
HETATM   26  H   UNK N   1      33.141  10.245  21.642  0.00  0.00     0.172 HD
BRANCH  25  27
HETATM   27  S   UNK N   1      33.041   7.772  21.230  0.00  0.00     0.222 S 
HETATM   28  O   UNK N   1      33.334   7.096  19.883  0.00  0.00    -0.206 OA
HETATM   29  O   UNK N   1      34.573   7.682  21.309  0.00  0.00    -0.206 OA
HETATM   30  C   UNK N   1      32.339   8.631  19.793  0.00  0.00     0.185 C 
ENDBRANCH  25  27
ENDBRANCH  24  25
ENDBRANCH  22  24
ENDBRANCH   4  22
TORSDOF 9
ENDMDL
MODEL 6
REMARK VINA RESULT:      -6.6      8.370     14.232
REMARK  9 active torsions:
REMARK  status: ('A' for Active; 'I' for Inactive)
REMARK    1  A    between atoms: N_1  and  S_12 
REMARK    2  A    between atoms: N_1  and  C_23 
REMARK    3  A    between atoms: N_3  and  S_10 
REMARK    4  A    between atoms: N_3  and  C_26 
REMARK    5  A    between atoms: C_4  and  C_18 
REMARK    6  A    between atoms: C_7  and  C_21 
REMARK    7  A    between atoms: C_8  and  C_22 
REMARK    8  A    between atoms: C_21  and  C_26 
REMARK    9  A    between atoms: C_22  and  C_23 
ROOT
HETATM    1  C   UNK N   1      30.374  17.950   8.529  0.00  0.00     0.008 A 
HETATM    2  C   UNK N   1      28.966  17.290   6.662  0.00  0.00    -0.026 A 
HETATM    3  C   UNK N   1      31.383  17.112   6.499  0.00  0.00     0.008 A 
HETATM    4  C   UNK N   1      31.526  17.590   7.810  0.00  0.00    -0.053 A 
HETATM    5  C   UNK N   1      29.107  17.805   7.961  0.00  0.00     0.013 A 
HETATM    6  C   UNK N   1      30.116  16.959   5.934  0.00  0.00     0.013 A 
ENDROOT
BRANCH   2   7
HETATM    7  C   UNK N   1      27.620  16.970   6.129  0.00  0.00    -0.026 A 
HETATM    8  C   UNK N   1      26.982  17.843   5.237  0.00  0.00     0.013 A 
HETATM    9  C   UNK N   1      25.655  17.624   4.859  0.00  0.00     0.008 A 
HETATM   10  C   UNK N   1      24.935  16.537   5.382  0.00  0.00    -0.053 A 
HETATM   11  C   UNK N   1      25.588  15.644   6.247  0.00  0.00     0.008 A 
HETATM   12  C   UNK N   1      26.917  15.856   6.615  0.00  0.00     0.013 A 
BRANCH  10  13
HETATM   13  C   UNK N   1      23.466  16.388   5.044  0.00  0.00     0.033 C 
HETATM   14  C   UNK N   1      22.969  17.687   4.430  0.00  0.00     0.017 C 
BRANCH  13  15
HETATM   15  C   UNK N   1      22.577  16.101   6.254  0.00  0.00     0.141 C 
BRANCH  15  16
HETATM   16  N   UNK N   1      21.163  16.143   5.897  0.00  0.00    -0.319 N 
HETATM   17  H   UNK N   1      20.762  16.590   5.073  0.00  0.00     0.172 HD
BRANCH  16  18
HETATM   18  S   UNK N   1      20.273  15.275   7.158  0.00  0.00     0.222 S 
HETATM   19  O   UNK N   1      19.078  16.156   7.548  0.00  0.00    -0.206 OA
HETATM   20  O   UNK N   1      20.998  16.340   7.999  0.00  0.00    -0.206 OA
HETATM   21  C   UNK N   1      19.299  15.871   5.744  0.00  0.00     0.185 C 
ENDBRANCH  16  18
ENDBRANCH  15  16
ENDBRANCH  13  15
ENDBRANCH  10  13
ENDBRANCH   2   7
BRANCH   4  22
HETATM   22  C   UNK N   1      32.904  17.634   8.445  0.00  0.00     0.033 C 
HETATM   23  C   UNK N   1      33.978  18.085   7.463  0.00  0.00     0.017 C 
BRANCH  22  24
HETATM   24  C   UNK N   1      33.338  16.280   9.003  0.00  0.00     0.141 C 
BRANCH  24  25
HETATM   25  N   UNK N   1      34.793  16.134   9.059  0.00  0.00    -0.319 N 
HETATM   26  H   UNK N   1      35.412  16.041   8.253  0.00  0.00     0.172 HD
BRANCH  25  27
HETATM   27  S   UNK N   1      35.296  16.143  10.759  0.00  0.00     0.222 S 
HETATM   28  O   UNK N   1      36.830  16.073  10.772  0.00  0.00    -0.206 OA
HETATM   29  O   UNK N   1      35.630  17.589  10.354  0.00  0.00    -0.206 OA
HETATM   30  C   UNK N   1      35.994  14.820   9.731  0.00  0.00     0.185 C 
ENDBRANCH  25  27
ENDBRANCH  24  25
ENDBRANCH  22  24
ENDBRANCH   4  22
TORSDOF 9
ENDMDL
MODEL 7
REMARK VINA RESULT:      -6.6      2.067      2.378
REMARK  9 active torsions:
REMARK  status: ('A' for Active; 'I' for Inactive)
REMARK    1  A    between atoms: N_1  and  S_12 
REMARK    2  A    between atoms: N_1  and  C_23 
REMARK    3  A    between atoms: N_3  and  S_10 
REMARK    4  A    between atoms: N_3  and  C_26 
REMARK    5  A    between atoms: C_4  and  C_18 
REMARK    6  A    between atoms: C_7  and  C_21 
REMARK    7  A    between atoms: C_8  and  C_22 
REMARK    8  A    between atoms: C_21  and  C_26 
REMARK    9  A    between atoms: C_22  and  C_23 
ROOT
HETATM    1  C   UNK N   1      34.944  13.027  12.541  0.00  0.00     0.008 A 
HETATM    2  C   UNK N   1      35.796  13.080  14.815  0.00  0.00    -0.026 A 
HETATM    3  C   UNK N   1      36.366  14.848  13.249  0.00  0.00     0.008 A 
HETATM    4  C   UNK N   1      35.588  14.241  12.252  0.00  0.00    -0.053 A 
HETATM    5  C   UNK N   1      35.048  12.450  13.808  0.00  0.00     0.013 A 
HETATM    6  C   UNK N   1      36.464  14.276  14.518  0.00  0.00     0.013 A 
ENDROOT
BRANCH   2   7
HETATM    7  C   UNK N   1      35.762  12.564  16.204  0.00  0.00    -0.026 A 
HETATM    8  C   UNK N   1      36.004  11.208  16.466  0.00  0.00     0.013 A 
HETATM    9  C   UNK N   1      35.816  10.690  17.750  0.00  0.00     0.008 A 
HETATM   10  C   UNK N   1      35.363  11.515  18.792  0.00  0.00    -0.053 A 
HETATM   11  C   UNK N   1      35.157  12.880  18.536  0.00  0.00     0.008 A 
HETATM   12  C   UNK N   1      35.356  13.400  17.256  0.00  0.00     0.013 A 
BRANCH  10  13
HETATM   13  C   UNK N   1      35.060  10.904  20.144  0.00  0.00     0.033 C 
HETATM   14  C   UNK N   1      36.345  10.338  20.727  0.00  0.00     0.017 C 
BRANCH  13  15
HETATM   15  C   UNK N   1      34.053   9.754  20.094  0.00  0.00     0.141 C 
BRANCH  15  16
HETATM   16  N   UNK N   1      33.976   9.058  21.374  0.00  0.00    -0.319 N 
HETATM   17  H   UNK N   1      34.755   8.861  22.002  0.00  0.00     0.172 HD
BRANCH  16  18
HETATM   18  S   UNK N   1      32.281   8.619  21.636  0.00  0.00     0.222 S 
HETATM   19  O   UNK N   1      31.514   9.021  20.368  0.00  0.00    -0.206 OA
HETATM   20  O   UNK N   1      32.218  10.143  21.842  0.00  0.00    -0.206 OA
HETATM   21  C   UNK N   1      33.040   8.031  20.094  0.00  0.00     0.185 C 
ENDBRANCH  16  18
ENDBRANCH  15  16
ENDBRANCH  13  15
ENDBRANCH  10  13
ENDBRANCH   2   7
BRANCH   4  22
HETATM   22  C   UNK N   1      35.399  14.942  10.919  0.00  0.00     0.033 C 
HETATM   23  C   UNK N   1      35.563  16.452  11.032  0.00  0.00     0.017 C 
BRANCH  22  24
HETATM   24  C   UNK N   1      34.025  14.679  10.305  0.00  0.00     0.141 C 
BRANCH  24  25
HETATM   25  N   UNK N   1      34.107  14.197   8.926  0.00  0.00    -0.319 N 
HETATM   26  H   UNK N   1      34.940  13.816   8.478  0.00  0.00     0.172 HD
BRANCH  25  27
HETATM   27  S   UNK N   1      32.517  14.391   8.166  0.00  0.00     0.222 S 
HETATM   28  O   UNK N   1      32.509  13.504   6.913  0.00  0.00    -0.206 OA
HETATM   29  O   UNK N   1      32.353  13.010   8.821  0.00  0.00    -0.206 OA
HETATM   30  C   UNK N   1      33.951  14.620   7.077  0.00  0.00     0.185 C 
ENDBRANCH  25  27
ENDBRANCH  24  25
ENDBRANCH  22  24
ENDBRANCH   4  22
TORSDOF 9
ENDMDL
MODEL 8
REMARK VINA RESULT:      -6.6      7.873     15.298
REMARK  9 active torsions:
REMARK  status: ('A' for Active; 'I' for Inactive)
REMARK    1  A    between atoms: N_1  and  S_12 
REMARK    2  A    between atoms: N_1  and  C_23 
REMARK    3  A    between atoms: N_3  and  S_10 
REMARK    4  A    between atoms: N_3  and  C_26 
REMARK    5  A    between atoms: C_4  and  C_18 
REMARK    6  A    between atoms: C_7  and  C_21 
REMARK    7  A    between atoms: C_8  and  C_22 
REMARK    8  A    between atoms: C_21  and  C_26 
REMARK    9  A    between atoms: C_22  and  C_23 
ROOT
HETATM    1  C   UNK N   1      30.566  18.036   8.640  0.00  0.00     0.008 A 
HETATM    2  C   UNK N   1      29.210  17.526   6.690  0.00  0.00    -0.026 A 
HETATM    3  C   UNK N   1      31.609  17.150   6.649  0.00  0.00     0.008 A 
HETATM    4  C   UNK N   1      31.721  17.593   7.975  0.00  0.00    -0.053 A 
HETATM    5  C   UNK N   1      29.323  18.006   8.004  0.00  0.00     0.013 A 
HETATM    6  C   UNK N   1      30.366  17.112   6.015  0.00  0.00     0.013 A 
ENDROOT
BRANCH   2   7
HETATM    7  C   UNK N   1      27.873  17.329   6.081  0.00  0.00    -0.026 A 
HETATM    8  C   UNK N   1      27.251  18.367   5.374  0.00  0.00     0.013 A 
HETATM    9  C   UNK N   1      25.930  18.237   4.938  0.00  0.00     0.008 A 
HETATM   10  C   UNK N   1      25.200  17.070   5.217  0.00  0.00    -0.053 A 
HETATM   11  C   UNK N   1      25.837  16.016   5.893  0.00  0.00     0.008 A 
HETATM   12  C   UNK N   1      27.160  16.143   6.318  0.00  0.00     0.013 A 
BRANCH  10  13
HETATM   13  C   UNK N   1      23.737  17.001   4.832  0.00  0.00     0.033 C 
HETATM   14  C   UNK N   1      23.598  16.145   3.583  0.00  0.00     0.017 C 
BRANCH  13  15
HETATM   15  C   UNK N   1      23.115  18.359   4.509  0.00  0.00     0.141 C 
BRANCH  15  16
HETATM   16  N   UNK N   1      22.100  18.246   3.467  0.00  0.00    -0.319 N 
HETATM   17  H   UNK N   1      22.075  17.550   2.722  0.00  0.00     0.172 HD
BRANCH  16  18
HETATM   18  S   UNK N   1      20.921  19.539   3.734  0.00  0.00     0.222 S 
HETATM   19  O   UNK N   1      20.400  19.961   2.353  0.00  0.00    -0.206 OA
HETATM   20  O   UNK N   1      22.129  20.350   3.237  0.00  0.00    -0.206 OA
HETATM   21  C   UNK N   1      20.379  18.153   2.692  0.00  0.00     0.185 C 
ENDBRANCH  16  18
ENDBRANCH  15  16
ENDBRANCH  13  15
ENDBRANCH  10  13
ENDBRANCH   2   7
BRANCH   4  22
HETATM   22  C   UNK N   1      33.062  17.512   8.681  0.00  0.00     0.033 C 
HETATM   23  C   UNK N   1      34.191  18.106   7.848  0.00  0.00     0.017 C 
BRANCH  22  24
HETATM   24  C   UNK N   1      33.459  16.077   9.027  0.00  0.00     0.141 C 
BRANCH  24  25
HETATM   25  N   UNK N   1      34.894  15.934   9.274  0.00  0.00    -0.319 N 
HETATM   26  H   UNK N   1      35.626  16.529   8.885  0.00  0.00     0.172 HD
BRANCH  25  27
HETATM   27  S   UNK N   1      35.145  14.554  10.357  0.00  0.00     0.222 S 
HETATM   28  O   UNK N   1      34.260  14.785  11.590  0.00  0.00    -0.206 OA
HETATM   29  O   UNK N   1      33.770  14.204   9.764  0.00  0.00    -0.206 OA
HETATM   30  C   UNK N   1      35.323  16.196  11.109  0.00  0.00     0.185 C 
ENDBRANCH  25  27
ENDBRANCH  24  25
ENDBRANCH  22  24
ENDBRANCH   4  22
TORSDOF 9
ENDMDL
MODEL 9
REMARK VINA RESULT:      -6.4      2.283      2.854
REMARK  9 active torsions:
REMARK  status: ('A' for Active; 'I' for Inactive)
REMARK    1  A    between atoms: N_1  and  S_12 
REMARK    2  A    between atoms: N_1  and  C_23 
REMARK    3  A    between atoms: N_3  and  S_10 
REMARK    4  A    between atoms: N_3  and  C_26 
REMARK    5  A    between atoms: C_4  and  C_18 
REMARK    6  A    between atoms: C_7  and  C_21 
REMARK    7  A    between atoms: C_8  and  C_22 
REMARK    8  A    between atoms: C_21  and  C_26 
REMARK    9  A    between atoms: C_22  and  C_23 
ROOT
HETATM    1  C   UNK N   1      35.281  12.690  12.283  0.00  0.00     0.008 A 
HETATM    2  C   UNK N   1      35.727  12.918  14.660  0.00  0.00    -0.026 A 
HETATM    3  C   UNK N   1      36.207  14.750  13.140  0.00  0.00     0.008 A 
HETATM    4  C   UNK N   1      35.728  14.002  12.056  0.00  0.00    -0.053 A 
HETATM    5  C   UNK N   1      35.283  12.151  13.572  0.00  0.00     0.013 A 
HETATM    6  C   UNK N   1      36.202  14.216  14.429  0.00  0.00     0.013 A 
ENDROOT
BRANCH   2   7
HETATM    7  C   UNK N   1      35.563  12.412  16.044  0.00  0.00    -0.026 A 
HETATM    8  C   UNK N   1      35.174  13.276  17.077  0.00  0.00     0.013 A 
HETATM    9  C   UNK N   1      35.174  12.840  18.404  0.00  0.00     0.008 A 
HETATM   10  C   UNK N   1      35.581  11.535  18.725  0.00  0.00    -0.053 A 
HETATM   11  C   UNK N   1      35.935  10.659  17.685  0.00  0.00     0.008 A 
HETATM   12  C   UNK N   1      35.924  11.092  16.358  0.00  0.00     0.013 A 
BRANCH  10  13
HETATM   13  C   UNK N   1      35.679  11.124  20.179  0.00  0.00     0.033 C 
HETATM   14  C   UNK N   1      36.840  10.157  20.340  0.00  0.00     0.017 C 
BRANCH  13  15
HETATM   15  C   UNK N   1      34.433  10.412  20.709  0.00  0.00     0.141 C 
BRANCH  15  16
HETATM   16  N   UNK N   1      34.607   9.995  22.096  0.00  0.00    -0.319 N 
HETATM   17  H   UNK N   1      35.496   9.860  22.578  0.00  0.00     0.172 HD
BRANCH  16  18
HETATM   18  S   UNK N   1      32.994   9.766  22.786  0.00  0.00     0.222 S 
HETATM   19  O   UNK N   1      32.027   9.578  21.609  0.00  0.00    -0.206 OA
HETATM   20  O   UNK N   1      32.893  11.221  22.297  0.00  0.00    -0.206 OA
HETATM   21  C   UNK N   1      33.537   8.528  21.572  0.00  0.00     0.185 C 
ENDBRANCH  16  18
ENDBRANCH  15  16
ENDBRANCH  13  15
ENDBRANCH  10  13
ENDBRANCH   2   7
BRANCH   4  22
HETATM   22  C   UNK N   1      35.632  14.646  10.685  0.00  0.00     0.033 C 
HETATM   23  C   UNK N   1      34.221  14.584  10.114  0.00  0.00     0.017 C 
BRANCH  22  24
HETATM   24  C   UNK N   1      36.564  13.996   9.663  0.00  0.00     0.141 C 
BRANCH  24  25
HETATM   25  N   UNK N   1      37.954  14.427   9.815  0.00  0.00    -0.319 N 
HETATM   26  H   UNK N   1      38.307  15.055  10.538  0.00  0.00     0.172 HD
BRANCH  25  27
HETATM   27  S   UNK N   1      38.921  13.676   8.532  0.00  0.00     0.222 S 
HETATM   28  O   UNK N   1      38.608  12.174   8.556  0.00  0.00    -0.206 OA
HETATM   29  O   UNK N   1      37.531  13.686   7.874  0.00  0.00    -0.206 OA
HETATM   30  C   UNK N   1      39.048  12.912  10.173  0.00  0.00     0.185 C 
ENDBRANCH  25  27
ENDBRANCH  24  25
ENDBRANCH  22  24
ENDBRANCH   4  22
TORSDOF 9
ENDMDL
