MODEL 1
REMARK VINA RESULT:      -8.2      0.000      0.000
REMARK  5 active torsions:
REMARK  status: ('A' for Active; 'I' for Inactive)
REMARK    1  A    between atoms: C_6  and  C_7 
REMARK    2  A    between atoms: C_7  and  C_8 
REMARK    3  A    between atoms: C_8  and  N_9 
REMARK    4  A    between atoms: C_17  and  C_18 
REMARK    5  A    between atoms: C_24  and  C_25 
ROOT
HETATM    1  C   UNK N   1      21.407  17.139   5.911  0.00  0.00     0.061 A 
HETATM    2  C   UNK N   1      20.774  17.589   7.165  0.00  0.00     0.260 A 
HETATM    3  O   UNK N   1      20.728  18.735   7.583  0.00  0.00    -0.267 OA
HETATM    4  N   UNK N   1      20.290  16.551   7.858  0.00  0.00    -0.289 N 
HETATM    5  C   UNK N   1      20.547  15.447   7.142  0.00  0.00     0.260 A 
HETATM    6  O   UNK N   1      20.228  14.335   7.528  0.00  0.00    -0.267 OA
HETATM    7  C   UNK N   1      21.253  15.782   5.882  0.00  0.00     0.061 A 
HETATM    8  H   UNK N   1      19.832  16.591   8.727  0.00  0.00     0.172 HD
ENDROOT
BRANCH   1   9
HETATM    9  C   UNK N   1      22.107  18.043   4.950  0.00  0.00     0.009 A 
HETATM   10  C   UNK N   1      23.466  18.338   4.967  0.00  0.00     0.104 A 
HETATM   11  N   UNK N   1      23.743  19.251   4.013  0.00  0.00    -0.355 N 
HETATM   12  C   UNK N   1      22.591  19.549   3.393  0.00  0.00     0.045 A 
HETATM   13  C   UNK N   1      22.396  20.459   2.354  0.00  0.00     0.030 A 
HETATM   14  C   UNK N   1      21.559  18.835   3.942  0.00  0.00     0.003 A 
HETATM   15  C   UNK N   1      21.088  20.625   1.865  0.00  0.00     0.002 A 
HETATM   16  C   UNK N   1      20.021  19.887   2.421  0.00  0.00     0.001 A 
HETATM   17  C   UNK N   1      20.253  18.980   3.473  0.00  0.00     0.014 A 
BRANCH  11  18
HETATM   18  C   UNK N   1      25.047  19.845   3.771  0.00  0.00     0.131 C 
BRANCH  18  19
HETATM   19  C   UNK N   1      26.181  18.920   4.202  0.00  0.00     0.056 C 
BRANCH  19  20
HETATM   20  C   UNK N   1      27.518  19.660   4.418  0.00  0.00     0.224 C 
HETATM   21  N   UNK N   1      28.491  18.852   5.155  0.00  0.00     0.088 N 
HETATM   22  C   UNK N   1      28.568  17.468   4.699  0.00  0.00     0.310 C 
HETATM   23  C   UNK N   1      28.047  18.903   6.543  0.00  0.00     0.272 C 
HETATM   24  C   UNK N   1      27.324  20.235   6.719  0.00  0.00     0.032 C 
HETATM   25  C   UNK N   1      27.295  20.847   5.330  0.00  0.00     0.037 C 
ENDBRANCH  19  20
ENDBRANCH  18  19
ENDBRANCH  11  18
ENDBRANCH   1   9
BRANCH   7  26
HETATM   26  C   UNK N   1      21.655  14.802   4.806  0.00  0.00     0.009 A 
HETATM   27  C   UNK N   1      21.180  14.696   3.504  0.00  0.00     0.003 A 
HETATM   28  C   UNK N   1      20.207  15.402   2.798  0.00  0.00     0.014 A 
HETATM   29  C   UNK N   1      21.880  13.682   2.906  0.00  0.00     0.043 A 
HETATM   30  C   UNK N   1      19.960  15.049   1.460  0.00  0.00     0.001 A 
HETATM   31  C   UNK N   1      20.685  14.002   0.854  0.00  0.00     0.002 A 
HETATM   32  C   UNK N   1      21.662  13.303   1.584  0.00  0.00     0.030 A 
HETATM   33  N   UNK N   1      22.770  13.143   3.750  0.00  0.00    -0.364 N 
HETATM   34  C   UNK N   1      22.645  13.826   4.912  0.00  0.00     0.101 A 
HETATM   35  H   UNK N   1      23.390  12.402   3.562  0.00  0.00     0.165 HD
ENDBRANCH   7  26
TORSDOF 5
ENDMDL
MODEL 2
REMARK VINA RESULT:      -8.2      5.843     10.969
REMARK  5 active torsions:
REMARK  status: ('A' for Active; 'I' for Inactive)
REMARK    1  A    between atoms: C_6  and  C_7 
REMARK    2  A    between atoms: C_7  and  C_8 
REMARK    3  A    between atoms: C_8  and  N_9 
REMARK    4  A    between atoms: C_17  and  C_18 
REMARK    5  A    between atoms: C_24  and  C_25 
ROOT
HETATM    1  C   UNK N   1      32.102  16.303   5.742  0.00  0.00     0.061 A 
HETATM    2  C   UNK N   1      32.570  16.715   4.405  0.00  0.00     0.260 A 
HETATM    3  O   UNK N   1      31.924  17.326   3.568  0.00  0.00    -0.267 OA
HETATM    4  N   UNK N   1      33.811  16.272   4.173  0.00  0.00    -0.289 N 
HETATM    5  C   UNK N   1      34.202  15.607   5.269  0.00  0.00     0.260 A 
HETATM    6  O   UNK N   1      35.298  15.079   5.351  0.00  0.00    -0.267 OA
HETATM    7  C   UNK N   1      33.139  15.612   6.303  0.00  0.00     0.061 A 
HETATM    8  H   UNK N   1      34.338  16.409   3.354  0.00  0.00     0.172 HD
ENDROOT
BRANCH   1   9
HETATM    9  C   UNK N   1      30.733  16.574   6.276  0.00  0.00     0.009 A 
HETATM   10  C   UNK N   1      29.542  16.211   5.657  0.00  0.00     0.104 A 
HETATM   11  N   UNK N   1      28.499  16.685   6.369  0.00  0.00    -0.355 N 
HETATM   12  C   UNK N   1      28.998  17.346   7.425  0.00  0.00     0.045 A 
HETATM   13  C   UNK N   1      28.289  18.016   8.421  0.00  0.00     0.030 A 
HETATM   14  C   UNK N   1      30.368  17.309   7.402  0.00  0.00     0.003 A 
HETATM   15  C   UNK N   1      29.026  18.660   9.430  0.00  0.00     0.002 A 
HETATM   16  C   UNK N   1      30.437  18.620   9.418  0.00  0.00     0.001 A 
HETATM   17  C   UNK N   1      31.122  17.938   8.393  0.00  0.00     0.014 A 
BRANCH  11  18
HETATM   18  C   UNK N   1      27.099  16.555   6.000  0.00  0.00     0.131 C 
BRANCH  18  19
HETATM   19  C   UNK N   1      26.727  17.490   4.852  0.00  0.00     0.056 C 
BRANCH  19  20
HETATM   20  C   UNK N   1      26.356  18.912   5.324  0.00  0.00     0.224 C 
HETATM   21  N   UNK N   1      25.153  19.423   4.665  0.00  0.00     0.088 N 
HETATM   22  C   UNK N   1      24.070  18.448   4.586  0.00  0.00     0.310 C 
HETATM   23  C   UNK N   1      25.591  19.802   3.327  0.00  0.00     0.272 C 
HETATM   24  C   UNK N   1      27.062  20.187   3.444  0.00  0.00     0.032 C 
HETATM   25  C   UNK N   1      27.430  19.884   4.886  0.00  0.00     0.037 C 
ENDBRANCH  19  20
ENDBRANCH  18  19
ENDBRANCH  11  18
ENDBRANCH   1   9
BRANCH   7  26
HETATM   26  C   UNK N   1      33.244  15.009   7.683  0.00  0.00     0.009 A 
HETATM   27  C   UNK N   1      33.938  15.484   8.790  0.00  0.00     0.003 A 
HETATM   28  C   UNK N   1      34.749  16.602   8.982  0.00  0.00     0.014 A 
HETATM   29  C   UNK N   1      33.695  14.611   9.817  0.00  0.00     0.043 A 
HETATM   30  C   UNK N   1      35.312  16.812  10.254  0.00  0.00     0.001 A 
HETATM   31  C   UNK N   1      35.056  15.906  11.304  0.00  0.00     0.002 A 
HETATM   32  C   UNK N   1      34.236  14.786  11.088  0.00  0.00     0.030 A 
HETATM   33  N   UNK N   1      32.887  13.617   9.427  0.00  0.00    -0.364 N 
HETATM   34  C   UNK N   1      32.600  13.854   8.126  0.00  0.00     0.101 A 
HETATM   35  H   UNK N   1      32.566  12.865   9.977  0.00  0.00     0.165 HD
ENDBRANCH   7  26
TORSDOF 5
ENDMDL
MODEL 3
REMARK VINA RESULT:      -8.1      5.041      8.646
REMARK  5 active torsions:
REMARK  status: ('A' for Active; 'I' for Inactive)
REMARK    1  A    between atoms: C_6  and  C_7 
REMARK    2  A    between atoms: C_7  and  C_8 
REMARK    3  A    between atoms: C_8  and  N_9 
REMARK    4  A    between atoms: C_17  and  C_18 
REMARK    5  A    between atoms: C_24  and  C_25 
ROOT
HETATM    1  C   UNK N   1      29.470  17.396   7.407  0.00  0.00     0.061 A 
HETATM    2  C   UNK N   1      29.339  18.242   8.609  0.00  0.00     0.260 A 
HETATM    3  O   UNK N   1      28.347  18.865   8.953  0.00  0.00    -0.267 OA
HETATM    4  N   UNK N   1      30.497  18.308   9.277  0.00  0.00    -0.289 N 
HETATM    5  C   UNK N   1      31.380  17.553   8.608  0.00  0.00     0.260 A 
HETATM    6  O   UNK N   1      32.535  17.426   8.977  0.00  0.00    -0.267 OA
HETATM    7  C   UNK N   1      30.758  16.943   7.408  0.00  0.00     0.061 A 
HETATM    8  H   UNK N   1      30.668  18.813  10.104  0.00  0.00     0.172 HD
ENDROOT
BRANCH   1   9
HETATM    9  C   UNK N   1      28.380  17.179   6.408  0.00  0.00     0.009 A 
HETATM   10  C   UNK N   1      27.800  15.952   6.104  0.00  0.00     0.104 A 
HETATM   11  N   UNK N   1      26.911  16.108   5.102  0.00  0.00    -0.355 N 
HETATM   12  C   UNK N   1      26.915  17.405   4.757  0.00  0.00     0.045 A 
HETATM   13  C   UNK N   1      26.166  18.019   3.754  0.00  0.00     0.030 A 
HETATM   14  C   UNK N   1      27.809  18.098   5.530  0.00  0.00     0.003 A 
HETATM   15  C   UNK N   1      26.345  19.400   3.554  0.00  0.00     0.002 A 
HETATM   16  C   UNK N   1      27.259  20.122   4.352  0.00  0.00     0.001 A 
HETATM   17  C   UNK N   1      28.003  19.468   5.353  0.00  0.00     0.014 A 
BRANCH  11  18
HETATM   18  C   UNK N   1      26.154  15.038   4.474  0.00  0.00     0.131 C 
BRANCH  18  19
HETATM   19  C   UNK N   1      27.031  13.828   4.165  0.00  0.00     0.056 C 
BRANCH  19  20
HETATM   20  C   UNK N   1      27.351  13.680   2.663  0.00  0.00     0.224 C 
HETATM   21  N   UNK N   1      28.528  12.843   2.422  0.00  0.00     0.088 N 
HETATM   22  C   UNK N   1      28.555  11.626   3.227  0.00  0.00     0.310 C 
HETATM   23  C   UNK N   1      29.666  13.693   2.750  0.00  0.00     0.272 C 
HETATM   24  C   UNK N   1      29.230  15.128   2.478  0.00  0.00     0.032 C 
HETATM   25  C   UNK N   1      27.763  15.024   2.100  0.00  0.00     0.037 C 
ENDBRANCH  19  20
ENDBRANCH  18  19
ENDBRANCH  11  18
ENDBRANCH   1   9
BRANCH   7  26
HETATM   26  C   UNK N   1      31.434  15.993   6.449  0.00  0.00     0.009 A 
HETATM   27  C   UNK N   1      31.950  16.253   5.185  0.00  0.00     0.003 A 
HETATM   28  C   UNK N   1      31.992  17.409   4.406  0.00  0.00     0.014 A 
HETATM   29  C   UNK N   1      32.496  15.082   4.729  0.00  0.00     0.043 A 
HETATM   30  C   UNK N   1      32.606  17.345   3.143  0.00  0.00     0.001 A 
HETATM   31  C   UNK N   1      33.164  16.134   2.683  0.00  0.00     0.002 A 
HETATM   32  C   UNK N   1      33.111  14.981   3.484  0.00  0.00     0.030 A 
HETATM   33  N   UNK N   1      32.359  14.101   5.630  0.00  0.00    -0.364 N 
HETATM   34  C   UNK N   1      31.718  14.649   6.688  0.00  0.00     0.101 A 
HETATM   35  H   UNK N   1      32.665  13.169   5.540  0.00  0.00     0.165 HD
ENDBRANCH   7  26
TORSDOF 5
ENDMDL
MODEL 4
REMARK VINA RESULT:      -7.9      2.068      4.070
REMARK  5 active torsions:
REMARK  status: ('A' for Active; 'I' for Inactive)
REMARK    1  A    between atoms: C_6  and  C_7 
REMARK    2  A    between atoms: C_7  and  C_8 
REMARK    3  A    between atoms: C_8  and  N_9 
REMARK    4  A    between atoms: C_17  and  C_18 
REMARK    5  A    between atoms: C_24  and  C_25 
ROOT
HETATM    1  C   UNK N   1      22.438  15.726   5.659  0.00  0.00     0.061 A 
HETATM    2  C   UNK N   1      22.441  15.072   6.981  0.00  0.00     0.260 A 
HETATM    3  O   UNK N   1      23.383  14.495   7.502  0.00  0.00    -0.267 OA
HETATM    4  N   UNK N   1      21.229  15.125   7.545  0.00  0.00    -0.289 N 
HETATM    5  C   UNK N   1      20.428  15.781   6.694  0.00  0.00     0.260 A 
HETATM    6  O   UNK N   1      19.249  15.979   6.935  0.00  0.00    -0.267 OA
HETATM    7  C   UNK N   1      21.167  16.192   5.476  0.00  0.00     0.061 A 
HETATM    8  H   UNK N   1      20.974  14.753   8.419  0.00  0.00     0.172 HD
ENDROOT
BRANCH   1   9
HETATM    9  C   UNK N   1      23.616  15.773   4.740  0.00  0.00     0.009 A 
HETATM   10  C   UNK N   1      24.802  16.457   4.988  0.00  0.00     0.104 A 
HETATM   11  N   UNK N   1      25.614  16.356   3.915  0.00  0.00    -0.355 N 
HETATM   12  C   UNK N   1      24.971  15.629   2.989  0.00  0.00     0.045 A 
HETATM   13  C   UNK N   1      25.421  15.287   1.714  0.00  0.00     0.030 A 
HETATM   14  C   UNK N   1      23.736  15.257   3.451  0.00  0.00     0.003 A 
HETATM   15  C   UNK N   1      24.565  14.526   0.898  0.00  0.00     0.002 A 
HETATM   16  C   UNK N   1      23.294  14.133   1.371  0.00  0.00     0.001 A 
HETATM   17  C   UNK N   1      22.869  14.500   2.663  0.00  0.00     0.014 A 
BRANCH  11  18
HETATM   18  C   UNK N   1      26.914  16.992   3.781  0.00  0.00     0.131 C 
BRANCH  18  19
HETATM   19  C   UNK N   1      27.332  17.704   5.064  0.00  0.00     0.056 C 
BRANCH  19  20
HETATM   20  C   UNK N   1      27.917  19.110   4.814  0.00  0.00     0.224 C 
HETATM   21  N   UNK N   1      27.725  20.007   5.955  0.00  0.00     0.088 N 
HETATM   22  C   UNK N   1      28.020  19.387   7.242  0.00  0.00     0.310 C 
HETATM   23  C   UNK N   1      26.321  20.398   5.893  0.00  0.00     0.272 C 
HETATM   24  C   UNK N   1      25.920  20.343   4.423  0.00  0.00     0.032 C 
HETATM   25  C   UNK N   1      27.139  19.790   3.707  0.00  0.00     0.037 C 
ENDBRANCH  19  20
ENDBRANCH  18  19
ENDBRANCH  11  18
ENDBRANCH   1   9
BRANCH   7  26
HETATM   26  C   UNK N   1      20.604  16.995   4.328  0.00  0.00     0.009 A 
HETATM   27  C   UNK N   1      21.117  18.142   3.733  0.00  0.00     0.003 A 
HETATM   28  C   UNK N   1      22.249  18.912   3.998  0.00  0.00     0.014 A 
HETATM   29  C   UNK N   1      20.270  18.471   2.709  0.00  0.00     0.043 A 
HETATM   30  C   UNK N   1      22.500  20.036   3.190  0.00  0.00     0.001 A 
HETATM   31  C   UNK N   1      21.621  20.367   2.138  0.00  0.00     0.002 A 
HETATM   32  C   UNK N   1      20.486  19.577   1.889  0.00  0.00     0.030 A 
HETATM   33  N   UNK N   1      19.256  17.601   2.618  0.00  0.00    -0.364 N 
HETATM   34  C   UNK N   1      19.455  16.690   3.599  0.00  0.00     0.101 A 
HETATM   35  H   UNK N   1      18.517  17.620   1.968  0.00  0.00     0.165 HD
ENDBRANCH   7  26
TORSDOF 5
ENDMDL
MODEL 5
REMARK VINA RESULT:      -7.9     11.930     15.127
REMARK  5 active torsions:
REMARK  status: ('A' for Active; 'I' for Inactive)
REMARK    1  A    between atoms: C_6  and  C_7 
REMARK    2  A    between atoms: C_7  and  C_8 
REMARK    3  A    between atoms: C_8  and  N_9 
REMARK    4  A    between atoms: C_17  and  C_18 
REMARK    5  A    between atoms: C_24  and  C_25 
ROOT
HETATM    1  C   UNK N   1      28.641  24.350  -3.800  0.00  0.00     0.061 A 
HETATM    2  C   UNK N   1      27.805  23.696  -2.775  0.00  0.00     0.260 A 
HETATM    3  O   UNK N   1      26.587  23.742  -2.695  0.00  0.00    -0.267 OA
HETATM    4  N   UNK N   1      28.563  23.073  -1.864  0.00  0.00    -0.289 N 
HETATM    5  C   UNK N   1      29.841  23.258  -2.223  0.00  0.00     0.260 A 
HETATM    6  O   UNK N   1      30.768  22.808  -1.573  0.00  0.00    -0.267 OA
HETATM    7  C   UNK N   1      29.934  24.063  -3.465  0.00  0.00     0.061 A 
HETATM    8  H   UNK N   1      28.242  22.573  -1.080  0.00  0.00     0.172 HD
ENDROOT
BRANCH   1   9
HETATM    9  C   UNK N   1      28.104  25.189  -4.913  0.00  0.00     0.009 A 
HETATM   10  C   UNK N   1      28.223  26.572  -5.007  0.00  0.00     0.104 A 
HETATM   11  N   UNK N   1      27.553  27.010  -6.093  0.00  0.00    -0.355 N 
HETATM   12  C   UNK N   1      27.007  25.940  -6.690  0.00  0.00     0.045 A 
HETATM   13  C   UNK N   1      26.211  25.920  -7.835  0.00  0.00     0.030 A 
HETATM   14  C   UNK N   1      27.314  24.801  -5.993  0.00  0.00     0.003 A 
HETATM   15  C   UNK N   1      25.728  24.675  -8.275  0.00  0.00     0.002 A 
HETATM   16  C   UNK N   1      26.047  23.496  -7.567  0.00  0.00     0.001 A 
HETATM   17  C   UNK N   1      26.849  23.554  -6.411  0.00  0.00     0.014 A 
BRANCH  11  18
HETATM   18  C   UNK N   1      27.402  28.403  -6.483  0.00  0.00     0.131 C 
BRANCH  18  19
HETATM   19  C   UNK N   1      28.519  29.274  -5.917  0.00  0.00     0.056 C 
BRANCH  19  20
HETATM   20  C   UNK N   1      27.997  30.500  -5.139  0.00  0.00     0.224 C 
HETATM   21  N   UNK N   1      28.963  30.991  -4.155  0.00  0.00     0.088 N 
HETATM   22  C   UNK N   1      30.329  31.062  -4.661  0.00  0.00     0.310 C 
HETATM   23  C   UNK N   1      28.883  30.045  -3.048  0.00  0.00     0.272 C 
HETATM   24  C   UNK N   1      27.463  29.489  -3.053  0.00  0.00     0.032 C 
HETATM   25  C   UNK N   1      26.815  30.090  -4.287  0.00  0.00     0.037 C 
ENDBRANCH  19  20
ENDBRANCH  18  19
ENDBRANCH  11  18
ENDBRANCH   1   9
BRANCH   7  26
HETATM   26  C   UNK N   1      31.207  24.423  -4.192  0.00  0.00     0.009 A 
HETATM   27  C   UNK N   1      31.808  25.669  -4.330  0.00  0.00     0.003 A 
HETATM   28  C   UNK N   1      31.443  26.942  -3.893  0.00  0.00     0.014 A 
HETATM   29  C   UNK N   1      32.964  25.477  -5.038  0.00  0.00     0.043 A 
HETATM   30  C   UNK N   1      32.290  28.023  -4.197  0.00  0.00     0.001 A 
HETATM   31  C   UNK N   1      33.478  27.815  -4.928  0.00  0.00     0.002 A 
HETATM   32  C   UNK N   1      33.826  26.523  -5.359  0.00  0.00     0.030 A 
HETATM   33  N   UNK N   1      33.133  24.185  -5.351  0.00  0.00    -0.364 N 
HETATM   34  C   UNK N   1      32.068  23.532  -4.832  0.00  0.00     0.101 A 
HETATM   35  H   UNK N   1      33.881  23.791  -5.856  0.00  0.00     0.165 HD
ENDBRANCH   7  26
TORSDOF 5
ENDMDL
MODEL 6
REMARK VINA RESULT:      -7.8      2.538      6.195
REMARK  5 active torsions:
REMARK  status: ('A' for Active; 'I' for Inactive)
REMARK    1  A    between atoms: C_6  and  C_7 
REMARK    2  A    between atoms: C_7  and  C_8 
REMARK    3  A    between atoms: C_8  and  N_9 
REMARK    4  A    between atoms: C_17  and  C_18 
REMARK    5  A    between atoms: C_24  and  C_25 
ROOT
HETATM    1  C   UNK N   1      21.739  18.877   3.818  0.00  0.00     0.061 A 
HETATM    2  C   UNK N   1      21.033  19.925   3.057  0.00  0.00     0.260 A 
HETATM    3  O   UNK N   1      19.827  20.009   2.886  0.00  0.00    -0.267 OA
HETATM    4  N   UNK N   1      21.901  20.776   2.495  0.00  0.00    -0.289 N 
HETATM    5  C   UNK N   1      23.130  20.371   2.843  0.00  0.00     0.260 A 
HETATM    6  O   UNK N   1      24.135  20.952   2.469  0.00  0.00    -0.267 OA
HETATM    7  C   UNK N   1      23.070  19.162   3.700  0.00  0.00     0.061 A 
HETATM    8  H   UNK N   1      21.678  21.552   1.933  0.00  0.00     0.172 HD
ENDROOT
BRANCH   1   9
HETATM    9  C   UNK N   1      21.063  17.734   4.502  0.00  0.00     0.009 A 
HETATM   10  C   UNK N   1      20.954  17.571   5.879  0.00  0.00     0.104 A 
HETATM   11  N   UNK N   1      20.359  16.391   6.150  0.00  0.00    -0.355 N 
HETATM   12  C   UNK N   1      20.091  15.796   4.977  0.00  0.00     0.045 A 
HETATM   13  C   UNK N   1      19.497  14.551   4.772  0.00  0.00     0.030 A 
HETATM   14  C   UNK N   1      20.514  16.583   3.939  0.00  0.00     0.003 A 
HETATM   15  C   UNK N   1      19.328  14.116   3.446  0.00  0.00     0.002 A 
HETATM   16  C   UNK N   1      19.755  14.925   2.371  0.00  0.00     0.001 A 
HETATM   17  C   UNK N   1      20.356  16.175   2.614  0.00  0.00     0.014 A 
BRANCH  11  18
HETATM   18  C   UNK N   1      20.129  15.849   7.479  0.00  0.00     0.131 C 
BRANCH  18  19
HETATM   19  C   UNK N   1      21.403  15.265   8.081  0.00  0.00     0.056 C 
BRANCH  19  20
HETATM   20  C   UNK N   1      21.657  13.802   7.659  0.00  0.00     0.224 C 
HETATM   21  N   UNK N   1      22.175  12.985   8.758  0.00  0.00     0.088 N 
HETATM   22  C   UNK N   1      21.480  13.198  10.024  0.00  0.00     0.310 C 
HETATM   23  C   UNK N   1      23.576  13.368   8.881  0.00  0.00     0.272 C 
HETATM   24  C   UNK N   1      24.030  13.808   7.493  0.00  0.00     0.032 C 
HETATM   25  C   UNK N   1      22.775  13.758   6.640  0.00  0.00     0.037 C 
ENDBRANCH  19  20
ENDBRANCH  18  19
ENDBRANCH  11  18
ENDBRANCH   1   9
BRANCH   7  26
HETATM   26  C   UNK N   1      24.252  18.460   4.323  0.00  0.00     0.009 A 
HETATM   27  C   UNK N   1      24.641  17.132   4.199  0.00  0.00     0.003 A 
HETATM   28  C   UNK N   1      24.085  16.050   3.516  0.00  0.00     0.014 A 
HETATM   29  C   UNK N   1      25.798  16.986   4.917  0.00  0.00     0.043 A 
HETATM   30  C   UNK N   1      24.739  14.807   3.584  0.00  0.00     0.001 A 
HETATM   31  C   UNK N   1      25.929  14.667   4.327  0.00  0.00     0.002 A 
HETATM   32  C   UNK N   1      26.472  15.771   5.008  0.00  0.00     0.030 A 
HETATM   33  N   UNK N   1      26.166  18.142   5.484  0.00  0.00    -0.364 N 
HETATM   34  C   UNK N   1      25.232  19.052   5.121  0.00  0.00     0.101 A 
HETATM   35  H   UNK N   1      26.957  18.299   6.050  0.00  0.00     0.165 HD
ENDBRANCH   7  26
TORSDOF 5
ENDMDL
MODEL 7
REMARK VINA RESULT:      -7.8      3.723      8.282
REMARK  5 active torsions:
REMARK  status: ('A' for Active; 'I' for Inactive)
REMARK    1  A    between atoms: C_6  and  C_7 
REMARK    2  A    between atoms: C_7  and  C_8 
REMARK    3  A    between atoms: C_8  and  N_9 
REMARK    4  A    between atoms: C_17  and  C_18 
REMARK    5  A    between atoms: C_24  and  C_25 
ROOT
HETATM    1  C   UNK N   1      28.662  15.457   5.692  0.00  0.00     0.061 A 
HETATM    2  C   UNK N   1      29.767  14.533   5.373  0.00  0.00     0.260 A 
HETATM    3  O   UNK N   1      29.674  13.466   4.788  0.00  0.00    -0.267 OA
HETATM    4  N   UNK N   1      30.926  14.981   5.873  0.00  0.00    -0.289 N 
HETATM    5  C   UNK N   1      30.666  16.143   6.488  0.00  0.00     0.260 A 
HETATM    6  O   UNK N   1      31.534  16.787   7.050  0.00  0.00    -0.267 OA
HETATM    7  C   UNK N   1      29.227  16.489   6.386  0.00  0.00     0.061 A 
HETATM    8  H   UNK N   1      31.802  14.540   5.801  0.00  0.00     0.172 HD
ENDROOT
BRANCH   1   9
HETATM    9  C   UNK N   1      27.231  15.210   5.342  0.00  0.00     0.009 A 
HETATM   10  C   UNK N   1      26.238  14.829   6.238  0.00  0.00     0.104 A 
HETATM   11  N   UNK N   1      25.086  14.612   5.571  0.00  0.00    -0.355 N 
HETATM   12  C   UNK N   1      25.323  14.840   4.270  0.00  0.00     0.045 A 
HETATM   13  C   UNK N   1      24.426  14.719   3.209  0.00  0.00     0.030 A 
HETATM   14  C   UNK N   1      26.631  15.202   4.084  0.00  0.00     0.003 A 
HETATM   15  C   UNK N   1      24.902  14.994   1.915  0.00  0.00     0.002 A 
HETATM   16  C   UNK N   1      26.246  15.376   1.716  0.00  0.00     0.001 A 
HETATM   17  C   UNK N   1      27.126  15.482   2.810  0.00  0.00     0.014 A 
BRANCH  11  18
HETATM   18  C   UNK N   1      23.845  14.142   6.166  0.00  0.00     0.131 C 
BRANCH  18  19
HETATM   19  C   UNK N   1      22.970  15.299   6.640  0.00  0.00     0.056 C 
BRANCH  19  20
HETATM   20  C   UNK N   1      21.460  15.011   6.508  0.00  0.00     0.224 C 
HETATM   21  N   UNK N   1      20.681  16.221   6.243  0.00  0.00     0.088 N 
HETATM   22  C   UNK N   1      21.277  17.093   5.237  0.00  0.00     0.310 C 
HETATM   23  C   UNK N   1      20.607  16.908   7.527  0.00  0.00     0.272 C 
HETATM   24  C   UNK N   1      20.682  15.830   8.602  0.00  0.00     0.032 C 
HETATM   25  C   UNK N   1      20.920  14.538   7.841  0.00  0.00     0.037 C 
ENDBRANCH  19  20
ENDBRANCH  18  19
ENDBRANCH  11  18
ENDBRANCH   1   9
BRANCH   7  26
HETATM   26  C   UNK N   1      28.581  17.748   6.914  0.00  0.00     0.009 A 
HETATM   27  C   UNK N   1      28.054  18.819   6.203  0.00  0.00     0.003 A 
HETATM   28  C   UNK N   1      27.972  19.092   4.837  0.00  0.00     0.014 A 
HETATM   29  C   UNK N   1      27.546  19.696   7.123  0.00  0.00     0.043 A 
HETATM   30  C   UNK N   1      27.357  20.289   4.428  0.00  0.00     0.001 A 
HETATM   31  C   UNK N   1      26.838  21.186   5.385  0.00  0.00     0.002 A 
HETATM   32  C   UNK N   1      26.931  20.891   6.756  0.00  0.00     0.030 A 
HETATM   33  N   UNK N   1      27.716  19.242   8.372  0.00  0.00    -0.364 N 
HETATM   34  C   UNK N   1      28.342  18.048   8.254  0.00  0.00     0.101 A 
HETATM   35  H   UNK N   1      27.441  19.688   9.206  0.00  0.00     0.165 HD
ENDBRANCH   7  26
TORSDOF 5
ENDMDL
MODEL 8
REMARK VINA RESULT:      -7.8      2.107      5.276
REMARK  5 active torsions:
REMARK  status: ('A' for Active; 'I' for Inactive)
REMARK    1  A    between atoms: C_6  and  C_7 
REMARK    2  A    between atoms: C_7  and  C_8 
REMARK    3  A    between atoms: C_8  and  N_9 
REMARK    4  A    between atoms: C_17  and  C_18 
REMARK    5  A    between atoms: C_24  and  C_25 
ROOT
HETATM    1  C   UNK N   1      22.813  16.219   5.287  0.00  0.00     0.061 A 
HETATM    2  C   UNK N   1      22.174  15.609   6.469  0.00  0.00     0.260 A 
HETATM    3  O   UNK N   1      22.223  14.433   6.794  0.00  0.00    -0.267 OA
HETATM    4  N   UNK N   1      21.451  16.512   7.142  0.00  0.00    -0.289 N 
HETATM    5  C   UNK N   1      21.578  17.679   6.496  0.00  0.00     0.260 A 
HETATM    6  O   UNK N   1      21.019  18.694   6.874  0.00  0.00    -0.267 OA
HETATM    7  C   UNK N   1      22.451  17.536   5.306  0.00  0.00     0.061 A 
HETATM    8  H   UNK N   1      20.926  16.350   7.959  0.00  0.00     0.172 HD
ENDROOT
BRANCH   1   9
HETATM    9  C   UNK N   1      23.626  15.464   4.287  0.00  0.00     0.009 A 
HETATM   10  C   UNK N   1      24.987  15.198   4.393  0.00  0.00     0.104 A 
HETATM   11  N   UNK N   1      25.414  14.571   3.278  0.00  0.00    -0.355 N 
HETATM   12  C   UNK N   1      24.358  14.435   2.462  0.00  0.00     0.045 A 
HETATM   13  C   UNK N   1      24.335  13.862   1.190  0.00  0.00     0.030 A 
HETATM   14  C   UNK N   1      23.240  14.977   3.039  0.00  0.00     0.003 A 
HETATM   15  C   UNK N   1      23.108  13.843   0.502  0.00  0.00     0.002 A 
HETATM   16  C   UNK N   1      21.951  14.393   1.094  0.00  0.00     0.001 A 
HETATM   17  C   UNK N   1      22.011  14.969   2.378  0.00  0.00     0.014 A 
BRANCH  11  18
HETATM   18  C   UNK N   1      26.789  14.189   3.001  0.00  0.00     0.131 C 
BRANCH  18  19
HETATM   19  C   UNK N   1      27.728  14.588   4.136  0.00  0.00     0.056 C 
BRANCH  19  20
HETATM   20  C   UNK N   1      29.002  15.308   3.645  0.00  0.00     0.224 C 
HETATM   21  N   UNK N   1      30.152  15.066   4.518  0.00  0.00     0.088 N 
HETATM   22  C   UNK N   1      30.295  13.673   4.925  0.00  0.00     0.310 C 
HETATM   23  C   UNK N   1      29.922  15.912   5.683  0.00  0.00     0.272 C 
HETATM   24  C   UNK N   1      29.105  17.106   5.199  0.00  0.00     0.032 C 
HETATM   25  C   UNK N   1      28.803  16.805   3.742  0.00  0.00     0.037 C 
ENDBRANCH  19  20
ENDBRANCH  18  19
ENDBRANCH  11  18
ENDBRANCH   1   9
BRANCH   7  26
HETATM   26  C   UNK N   1      22.861  18.648   4.371  0.00  0.00     0.009 A 
HETATM   27  C   UNK N   1      24.132  19.155   4.126  0.00  0.00     0.003 A 
HETATM   28  C   UNK N   1      25.386  18.844   4.653  0.00  0.00     0.014 A 
HETATM   29  C   UNK N   1      23.996  20.127   3.171  0.00  0.00     0.043 A 
HETATM   30  C   UNK N   1      26.506  19.551   4.180  0.00  0.00     0.001 A 
HETATM   31  C   UNK N   1      26.355  20.550   3.197  0.00  0.00     0.002 A 
HETATM   32  C   UNK N   1      25.082  20.848   2.680  0.00  0.00     0.030 A 
HETATM   33  N   UNK N   1      22.718  20.261   2.794  0.00  0.00    -0.364 N 
HETATM   34  C   UNK N   1      22.017  19.357   3.516  0.00  0.00     0.101 A 
HETATM   35  H   UNK N   1      22.361  20.890   2.125  0.00  0.00     0.165 HD
ENDBRANCH   7  26
TORSDOF 5
ENDMDL
MODEL 9
REMARK VINA RESULT:      -7.7     11.572     14.253
REMARK  5 active torsions:
REMARK  status: ('A' for Active; 'I' for Inactive)
REMARK    1  A    between atoms: C_6  and  C_7 
REMARK    2  A    between atoms: C_7  and  C_8 
REMARK    3  A    between atoms: C_8  and  N_9 
REMARK    4  A    between atoms: C_17  and  C_18 
REMARK    5  A    between atoms: C_24  and  C_25 
ROOT
HETATM    1  C   UNK N   1      28.837  23.707  -4.033  0.00  0.00     0.061 A 
HETATM    2  C   UNK N   1      28.315  23.569  -2.659  0.00  0.00     0.260 A 
HETATM    3  O   UNK N   1      27.278  24.044  -2.227  0.00  0.00    -0.267 OA
HETATM    4  N   UNK N   1      29.173  22.890  -1.888  0.00  0.00    -0.289 N 
HETATM    5  C   UNK N   1      30.218  22.558  -2.658  0.00  0.00     0.260 A 
HETATM    6  O   UNK N   1      31.172  21.935  -2.224  0.00  0.00    -0.267 OA
HETATM    7  C   UNK N   1      30.037  23.055  -4.044  0.00  0.00     0.061 A 
HETATM    8  H   UNK N   1      29.057  22.674  -0.935  0.00  0.00     0.172 HD
ENDROOT
BRANCH   1   9
HETATM    9  C   UNK N   1      28.155  24.474  -5.119  0.00  0.00     0.009 A 
HETATM   10  C   UNK N   1      28.170  25.858  -5.256  0.00  0.00     0.104 A 
HETATM   11  N   UNK N   1      27.385  26.218  -6.293  0.00  0.00    -0.355 N 
HETATM   12  C   UNK N   1      26.867  25.096  -6.815  0.00  0.00     0.045 A 
HETATM   13  C   UNK N   1      25.983  24.988  -7.889  0.00  0.00     0.030 A 
HETATM   14  C   UNK N   1      27.307  24.002  -6.119  0.00  0.00     0.003 A 
HETATM   15  C   UNK N   1      25.553  23.701  -8.256  0.00  0.00     0.002 A 
HETATM   16  C   UNK N   1      26.009  22.568  -7.548  0.00  0.00     0.001 A 
HETATM   17  C   UNK N   1      26.897  22.714  -6.465  0.00  0.00     0.014 A 
BRANCH  11  18
HETATM   18  C   UNK N   1      27.107  27.585  -6.704  0.00  0.00     0.131 C 
BRANCH  18  19
HETATM   19  C   UNK N   1      27.620  28.598  -5.685  0.00  0.00     0.056 C 
BRANCH  19  20
HETATM   20  C   UNK N   1      26.491  29.263  -4.870  0.00  0.00     0.224 C 
HETATM   21  N   UNK N   1      26.992  29.954  -3.681  0.00  0.00     0.088 N 
HETATM   22  C   UNK N   1      28.188  30.753  -3.928  0.00  0.00     0.310 C 
HETATM   23  C   UNK N   1      27.283  28.891  -2.725  0.00  0.00     0.272 C 
HETATM   24  C   UNK N   1      26.328  27.746  -3.044  0.00  0.00     0.032 C 
HETATM   25  C   UNK N   1      25.589  28.193  -4.293  0.00  0.00     0.037 C 
ENDBRANCH  19  20
ENDBRANCH  18  19
ENDBRANCH  11  18
ENDBRANCH   1   9
BRANCH   7  26
HETATM   26  C   UNK N   1      30.984  22.823  -5.197  0.00  0.00     0.009 A 
HETATM   27  C   UNK N   1      30.952  21.824  -6.162  0.00  0.00     0.003 A 
HETATM   28  C   UNK N   1      30.099  20.739  -6.364  0.00  0.00     0.014 A 
HETATM   29  C   UNK N   1      31.996  22.061  -7.016  0.00  0.00     0.043 A 
HETATM   30  C   UNK N   1      30.335  19.896  -7.464  0.00  0.00     0.001 A 
HETATM   31  C   UNK N   1      31.414  20.148  -8.336  0.00  0.00     0.002 A 
HETATM   32  C   UNK N   1      32.262  21.247  -8.114  0.00  0.00     0.030 A 
HETATM   33  N   UNK N   1      32.683  23.152  -6.651  0.00  0.00    -0.364 N 
HETATM   34  C   UNK N   1      32.067  23.630  -5.544  0.00  0.00     0.101 A 
HETATM   35  H   UNK N   1      33.474  23.530  -7.099  0.00  0.00     0.165 HD
ENDBRANCH   7  26
TORSDOF 5
ENDMDL
