REMARK  5 active torsions:
REMARK  status: ('A' for Active; 'I' for Inactive)
REMARK    1  A    between atoms: C_6  and  C_7 
REMARK    2  A    between atoms: C_7  and  C_8 
REMARK    3  A    between atoms: C_8  and  N_9 
REMARK    4  A    between atoms: C_17  and  C_18 
REMARK    5  A    between atoms: C_24  and  C_25 
ROOT
HETATM    1  C   UNK N   1       1.157   2.550  -0.069  0.00  0.00     0.061 A 
HETATM    2  C   UNK N   1       1.253   4.014   0.090  0.00  0.00     0.260 A 
HETATM    3  O   UNK N   1       0.325   4.807   0.076  0.00  0.00    -0.267 OA
HETATM    4  N   UNK N   1       2.530   4.402   0.191  0.00  0.00    -0.289 N 
HETATM    5  C   UNK N   1       3.284   3.296   0.124  0.00  0.00     0.260 A 
HETATM    6  O   UNK N   1       4.501   3.336   0.181  0.00  0.00    -0.267 OA
HETATM    7  C   UNK N   1       2.441   2.086  -0.033  0.00  0.00     0.061 A 
HETATM    8  H   UNK N   1       2.854   5.325   0.296  0.00  0.00     0.172 HD
ENDROOT
BRANCH   1   9
HETATM    9  C   UNK N   1      -0.123   1.809  -0.282  0.00  0.00     0.009 A 
HETATM   10  C   UNK N   1      -0.250   0.603  -0.963  0.00  0.00     0.104 A 
HETATM   11  N   UNK N   1      -1.553   0.262  -1.039  0.00  0.00    -0.355 N 
HETATM   12  C   UNK N   1      -2.259   1.225  -0.427  0.00  0.00     0.045 A 
HETATM   13  C   UNK N   1      -3.644   1.301  -0.281  0.00  0.00     0.030 A 
HETATM   14  C   UNK N   1      -1.420   2.199   0.046  0.00  0.00     0.003 A 
HETATM   15  C   UNK N   1      -4.172   2.420   0.387  0.00  0.00     0.002 A 
HETATM   16  C   UNK N   1      -3.313   3.424   0.884  0.00  0.00     0.001 A 
HETATM   17  C   UNK N   1      -1.919   3.318   0.714  0.00  0.00     0.014 A 
BRANCH  11  18
HETATM   18  C   UNK N   1      -2.079  -0.904  -1.730  0.00  0.00     0.131 C 
BRANCH  18  19
HETATM   19  C   UNK N   1      -1.494  -2.201  -1.179  0.00  0.00     0.056 C 
BRANCH  19  20
HETATM   20  C   UNK N   1      -2.014  -2.549   0.232  0.00  0.00     0.224 C 
HETATM   21  N   UNK N   1      -1.647  -3.905   0.644  0.00  0.00     0.088 N 
HETATM   22  C   UNK N   1      -0.262  -4.253   0.345  0.00  0.00     0.310 C 
HETATM   23  C   UNK N   1      -2.557  -4.778  -0.088  0.00  0.00     0.272 C 
HETATM   24  C   UNK N   1      -3.834  -3.978  -0.321  0.00  0.00     0.032 C 
HETATM   25  C   UNK N   1      -3.527  -2.591   0.215  0.00  0.00     0.037 C 
ENDBRANCH  19  20
ENDBRANCH  18  19
ENDBRANCH  11  18
ENDBRANCH   1   9
BRANCH   7  26
HETATM   26  C   UNK N   1       2.940   0.662  -0.089  0.00  0.00     0.009 A 
HETATM   27  C   UNK N   1       4.250   0.198  -0.087  0.00  0.00     0.003 A 
HETATM   28  C   UNK N   1       5.480   0.855  -0.062  0.00  0.00     0.014 A 
HETATM   29  C   UNK N   1       4.188  -1.170  -0.108  0.00  0.00     0.043 A 
HETATM   30  C   UNK N   1       6.654   0.081  -0.060  0.00  0.00     0.001 A 
HETATM   31  C   UNK N   1       6.579  -1.327  -0.083  0.00  0.00     0.002 A 
HETATM   32  C   UNK N   1       5.329  -1.969  -0.108  0.00  0.00     0.030 A 
HETATM   33  N   UNK N   1       2.919  -1.598  -0.119  0.00  0.00    -0.364 N 
HETATM   34  C   UNK N   1       2.148  -0.486  -0.100  0.00  0.00     0.101 A 
HETATM   35  H   UNK N   1       2.610  -2.533  -0.136  0.00  0.00     0.165 HD
ENDBRANCH   7  26
TORSDOF 5
