MODEL 1
REMARK VINA RESULT:      -7.6      0.000      0.000
REMARK  6 active torsions:
REMARK  status: ('A' for Active; 'I' for Inactive)
REMARK    1  A    between atoms: N_1  and  C_2 
REMARK    2  A    between atoms: C_2  and  C_3 
REMARK    3  A    between atoms: C_3  and  C_4 
REMARK    4  A    between atoms: C_4  and  N_5 
REMARK    5  A    between atoms: C_13  and  C_14 
REMARK    6  A    between atoms: C_20  and  C_21 
ROOT
HETATM    1  C   UNK N   1      21.160  16.294   4.705  0.00  0.00     0.061 A 
HETATM    2  C   UNK N   1      20.591  15.721   5.949  0.00  0.00     0.260 A 
HETATM    3  O   UNK N   1      20.197  14.579   6.114  0.00  0.00    -0.267 OA
HETATM    4  N   UNK N   1      20.530  16.638   6.920  0.00  0.00    -0.289 N 
HETATM    5  C   UNK N   1      21.021  17.778   6.423  0.00  0.00     0.260 A 
HETATM    6  O   UNK N   1      21.087  18.797   7.088  0.00  0.00    -0.267 OA
HETATM    7  C   UNK N   1      21.443  17.609   5.009  0.00  0.00     0.061 A 
HETATM    8  H   UNK N   1      20.190  16.500   7.833  0.00  0.00     0.172 HD
ENDROOT
BRANCH   1   9
HETATM    9  C   UNK N   1      21.331  15.532   3.407  0.00  0.00     0.009 A 
HETATM   10  C   UNK N   1      20.304  14.975   2.650  0.00  0.00     0.104 A 
HETATM   11  N   UNK N   1      20.806  14.335   1.577  0.00  0.00    -0.355 N 
HETATM   12  C   UNK N   1      22.139  14.458   1.627  0.00  0.00     0.045 A 
HETATM   13  C   UNK N   1      23.068  13.931   0.730  0.00  0.00     0.030 A 
HETATM   14  C   UNK N   1      22.509  15.184   2.732  0.00  0.00     0.003 A 
HETATM   15  C   UNK N   1      24.429  14.165   0.983  0.00  0.00     0.002 A 
HETATM   16  C   UNK N   1      24.822  14.913   2.112  0.00  0.00     0.001 A 
HETATM   17  C   UNK N   1      23.857  15.429   2.997  0.00  0.00     0.014 A 
BRANCH  11  18
HETATM   18  C   UNK N   1      20.012  13.601   0.599  0.00  0.00     0.130 C 
BRANCH  18  19
HETATM   19  C   UNK N   1      18.537  13.636   0.955  0.00  0.00     0.039 C 
BRANCH  19  20
HETATM   20  C   UNK N   1      17.752  14.252  -0.188  0.00  0.00     0.112 C 
BRANCH  20  21
HETATM   21  N   UNK N   1      18.069  15.666  -0.295  0.00  0.00    -0.430 N 
HETATM   22  H   UNK N   1      19.011  16.049  -0.224  0.00  0.00     0.149 HD
HETATM   23  H   UNK N   1      17.299  16.317  -0.452  0.00  0.00     0.149 HD
ENDBRANCH  20  21
ENDBRANCH  19  20
ENDBRANCH  18  19
ENDBRANCH  11  18
ENDBRANCH   1   9
BRANCH   7  24
HETATM   24  C   UNK N   1      22.056  18.704   4.156  0.00  0.00     0.009 A 
HETATM   25  C   UNK N   1      23.398  19.040   3.986  0.00  0.00     0.003 A 
HETATM   26  C   UNK N   1      24.579  18.521   4.518  0.00  0.00     0.014 A 
HETATM   27  C   UNK N   1      23.438  20.093   3.109  0.00  0.00     0.043 A 
HETATM   28  C   UNK N   1      25.802  19.099   4.134  0.00  0.00     0.001 A 
HETATM   29  C   UNK N   1      25.826  20.182   3.231  0.00  0.00     0.002 A 
HETATM   30  C   UNK N   1      24.627  20.691   2.708  0.00  0.00     0.030 A 
HETATM   31  N   UNK N   1      22.208  20.439   2.713  0.00  0.00    -0.364 N 
HETATM   32  C   UNK N   1      21.361  19.595   3.343  0.00  0.00     0.101 A 
HETATM   33  H   UNK N   1      21.970  21.162   2.089  0.00  0.00     0.165 HD
ENDBRANCH   7  24
TORSDOF 6
ENDMDL
MODEL 2
REMARK VINA RESULT:      -7.6      2.990      5.521
REMARK  6 active torsions:
REMARK  status: ('A' for Active; 'I' for Inactive)
REMARK    1  A    between atoms: N_1  and  C_2 
REMARK    2  A    between atoms: C_2  and  C_3 
REMARK    3  A    between atoms: C_3  and  C_4 
REMARK    4  A    between atoms: C_4  and  N_5 
REMARK    5  A    between atoms: C_13  and  C_14 
REMARK    6  A    between atoms: C_20  and  C_21 
ROOT
HETATM    1  C   UNK N   1      21.994  19.053   4.011  0.00  0.00     0.061 A 
HETATM    2  C   UNK N   1      21.258  20.049   3.194  0.00  0.00     0.260 A 
HETATM    3  O   UNK N   1      20.048  20.189   3.127  0.00  0.00    -0.267 OA
HETATM    4  N   UNK N   1      22.099  20.806   2.482  0.00  0.00    -0.289 N 
HETATM    5  C   UNK N   1      23.340  20.398   2.765  0.00  0.00     0.260 A 
HETATM    6  O   UNK N   1      24.321  20.910   2.254  0.00  0.00    -0.267 OA
HETATM    7  C   UNK N   1      23.327  19.280   3.744  0.00  0.00     0.061 A 
HETATM    8  H   UNK N   1      21.851  21.531   1.865  0.00  0.00     0.172 HD
ENDROOT
BRANCH   1   9
HETATM    9  C   UNK N   1      21.338  18.019   4.903  0.00  0.00     0.009 A 
HETATM   10  C   UNK N   1      21.326  18.037   6.295  0.00  0.00     0.104 A 
HETATM   11  N   UNK N   1      20.691  16.950   6.772  0.00  0.00    -0.355 N 
HETATM   12  C   UNK N   1      20.297  16.222   5.718  0.00  0.00     0.045 A 
HETATM   13  C   UNK N   1      19.623  15.002   5.740  0.00  0.00     0.030 A 
HETATM   14  C   UNK N   1      20.673  16.837   4.550  0.00  0.00     0.003 A 
HETATM   15  C   UNK N   1      19.322  14.397   4.510  0.00  0.00     0.002 A 
HETATM   16  C   UNK N   1      19.699  15.019   3.303  0.00  0.00     0.001 A 
HETATM   17  C   UNK N   1      20.380  16.251   3.317  0.00  0.00     0.014 A 
BRANCH  11  18
HETATM   18  C   UNK N   1      20.536  16.630   8.186  0.00  0.00     0.130 C 
BRANCH  18  19
HETATM   19  C   UNK N   1      19.622  17.627   8.876  0.00  0.00     0.039 C 
BRANCH  19  20
HETATM   20  C   UNK N   1      18.246  17.015   9.058  0.00  0.00     0.112 C 
BRANCH  20  21
HETATM   21  N   UNK N   1      17.357  17.983   9.677  0.00  0.00    -0.430 N 
HETATM   22  H   UNK N   1      17.223  18.936   9.339  0.00  0.00     0.149 HD
HETATM   23  H   UNK N   1      16.831  17.690  10.501  0.00  0.00     0.149 HD
ENDBRANCH  20  21
ENDBRANCH  19  20
ENDBRANCH  18  19
ENDBRANCH  11  18
ENDBRANCH   1   9
BRANCH   7  24
HETATM   24  C   UNK N   1      24.568  18.597   4.288  0.00  0.00     0.009 A 
HETATM   25  C   UNK N   1      25.639  19.148   4.990  0.00  0.00     0.003 A 
HETATM   26  C   UNK N   1      25.931  20.447   5.406  0.00  0.00     0.014 A 
HETATM   27  C   UNK N   1      26.503  18.121   5.268  0.00  0.00     0.043 A 
HETATM   28  C   UNK N   1      27.125  20.676   6.114  0.00  0.00     0.001 A 
HETATM   29  C   UNK N   1      28.004  19.608   6.392  0.00  0.00     0.002 A 
HETATM   30  C   UNK N   1      27.693  18.309   5.964  0.00  0.00     0.030 A 
HETATM   31  N   UNK N   1      26.044  16.960   4.791  0.00  0.00    -0.364 N 
HETATM   32  C   UNK N   1      24.864  17.241   4.195  0.00  0.00     0.101 A 
HETATM   33  H   UNK N   1      26.479  16.079   4.859  0.00  0.00     0.165 HD
ENDBRANCH   7  24
TORSDOF 6
ENDMDL
MODEL 3
REMARK VINA RESULT:      -7.1      3.547      5.481
REMARK  6 active torsions:
REMARK  status: ('A' for Active; 'I' for Inactive)
REMARK    1  A    between atoms: N_1  and  C_2 
REMARK    2  A    between atoms: C_2  and  C_3 
REMARK    3  A    between atoms: C_3  and  C_4 
REMARK    4  A    between atoms: C_4  and  N_5 
REMARK    5  A    between atoms: C_13  and  C_14 
REMARK    6  A    between atoms: C_20  and  C_21 
ROOT
HETATM    1  C   UNK N   1      22.510  18.841   4.315  0.00  0.00     0.061 A 
HETATM    2  C   UNK N   1      21.556  19.500   3.389  0.00  0.00     0.260 A 
HETATM    3  O   UNK N   1      20.349  19.335   3.344  0.00  0.00    -0.267 OA
HETATM    4  N   UNK N   1      22.190  20.325   2.549  0.00  0.00    -0.289 N 
HETATM    5  C   UNK N   1      23.493  20.273   2.846  0.00  0.00     0.260 A 
HETATM    6  O   UNK N   1      24.320  20.925   2.234  0.00  0.00    -0.267 OA
HETATM    7  C   UNK N   1      23.749  19.340   3.973  0.00  0.00     0.061 A 
HETATM    8  H   UNK N   1      21.774  20.872   1.844  0.00  0.00     0.172 HD
ENDROOT
BRANCH   1   9
HETATM    9  C   UNK N   1      22.123  17.821   5.366  0.00  0.00     0.009 A 
HETATM   10  C   UNK N   1      21.249  18.041   6.428  0.00  0.00     0.104 A 
HETATM   11  N   UNK N   1      21.157  16.938   7.195  0.00  0.00    -0.355 N 
HETATM   12  C   UNK N   1      21.961  16.010   6.657  0.00  0.00     0.045 A 
HETATM   13  C   UNK N   1      22.197  14.721   7.134  0.00  0.00     0.030 A 
HETATM   14  C   UNK N   1      22.575  16.506   5.535  0.00  0.00     0.003 A 
HETATM   15  C   UNK N   1      23.098  13.914   6.423  0.00  0.00     0.002 A 
HETATM   16  C   UNK N   1      23.733  14.409   5.266  0.00  0.00     0.001 A 
HETATM   17  C   UNK N   1      23.473  15.716   4.813  0.00  0.00     0.014 A 
BRANCH  11  18
HETATM   18  C   UNK N   1      20.365  16.835   8.414  0.00  0.00     0.130 C 
BRANCH  18  19
HETATM   19  C   UNK N   1      18.882  16.765   8.098  0.00  0.00     0.039 C 
BRANCH  19  20
HETATM   20  C   UNK N   1      18.079  17.031   9.357  0.00  0.00     0.112 C 
BRANCH  20  21
HETATM   21  N   UNK N   1      18.307  18.393   9.807  0.00  0.00    -0.430 N 
HETATM   22  H   UNK N   1      19.189  18.729  10.194  0.00  0.00     0.149 HD
HETATM   23  H   UNK N   1      17.536  19.056   9.730  0.00  0.00     0.149 HD
ENDBRANCH  20  21
ENDBRANCH  19  20
ENDBRANCH  18  19
ENDBRANCH  11  18
ENDBRANCH   1   9
BRANCH   7  24
HETATM   24  C   UNK N   1      25.118  19.063   4.566  0.00  0.00     0.009 A 
HETATM   25  C   UNK N   1      26.059  18.103   4.196  0.00  0.00     0.003 A 
HETATM   26  C   UNK N   1      26.066  17.114   3.212  0.00  0.00     0.014 A 
HETATM   27  C   UNK N   1      27.137  18.260   5.028  0.00  0.00     0.043 A 
HETATM   28  C   UNK N   1      27.200  16.289   3.095  0.00  0.00     0.001 A 
HETATM   29  C   UNK N   1      28.300  16.464   3.959  0.00  0.00     0.002 A 
HETATM   30  C   UNK N   1      28.273  17.463   4.943  0.00  0.00     0.030 A 
HETATM   31  N   UNK N   1      26.937  19.259   5.895  0.00  0.00    -0.364 N 
HETATM   32  C   UNK N   1      25.711  19.755   5.617  0.00  0.00     0.101 A 
HETATM   33  H   UNK N   1      27.558  19.568   6.594  0.00  0.00     0.165 HD
ENDBRANCH   7  24
TORSDOF 6
ENDMDL
MODEL 4
REMARK VINA RESULT:      -7.1     11.289     13.626
REMARK  6 active torsions:
REMARK  status: ('A' for Active; 'I' for Inactive)
REMARK    1  A    between atoms: N_1  and  C_2 
REMARK    2  A    between atoms: C_2  and  C_3 
REMARK    3  A    between atoms: C_3  and  C_4 
REMARK    4  A    between atoms: C_4  and  N_5 
REMARK    5  A    between atoms: C_13  and  C_14 
REMARK    6  A    between atoms: C_20  and  C_21 
ROOT
HETATM    1  C   UNK N   1      28.674  23.480  -3.788  0.00  0.00     0.061 A 
HETATM    2  C   UNK N   1      28.459  23.389  -2.323  0.00  0.00     0.260 A 
HETATM    3  O   UNK N   1      27.445  23.680  -1.713  0.00  0.00    -0.267 OA
HETATM    4  N   UNK N   1      29.558  22.949  -1.700  0.00  0.00    -0.289 N 
HETATM    5  C   UNK N   1      30.488  22.733  -2.637  0.00  0.00     0.260 A 
HETATM    6  O   UNK N   1      31.603  22.329  -2.358  0.00  0.00    -0.267 OA
HETATM    7  C   UNK N   1      29.969  23.054  -3.991  0.00  0.00     0.061 A 
HETATM    8  H   UNK N   1      29.663  22.808  -0.732  0.00  0.00     0.172 HD
ENDROOT
BRANCH   1   9
HETATM    9  C   UNK N   1      27.641  23.977  -4.779  0.00  0.00     0.009 A 
HETATM   10  C   UNK N   1      27.233  23.310  -5.931  0.00  0.00     0.104 A 
HETATM   11  N   UNK N   1      26.331  24.048  -6.605  0.00  0.00    -0.355 N 
HETATM   12  C   UNK N   1      26.152  25.185  -5.919  0.00  0.00     0.045 A 
HETATM   13  C   UNK N   1      25.324  26.254  -6.259  0.00  0.00     0.030 A 
HETATM   14  C   UNK N   1      26.935  25.188  -4.792  0.00  0.00     0.003 A 
HETATM   15  C   UNK N   1      25.302  27.364  -5.402  0.00  0.00     0.002 A 
HETATM   16  C   UNK N   1      26.098  27.379  -4.239  0.00  0.00     0.001 A 
HETATM   17  C   UNK N   1      26.924  26.283  -3.926  0.00  0.00     0.014 A 
BRANCH  11  18
HETATM   18  C   UNK N   1      25.730  23.669  -7.878  0.00  0.00     0.130 C 
BRANCH  18  19
HETATM   19  C   UNK N   1      26.322  22.372  -8.398  0.00  0.00     0.039 C 
BRANCH  19  20
HETATM   20  C   UNK N   1      25.280  21.272  -8.327  0.00  0.00     0.112 C 
BRANCH  20  21
HETATM   21  N   UNK N   1      24.041  21.803  -7.786  0.00  0.00    -0.430 N 
HETATM   22  H   UNK N   1      23.560  21.418  -6.973  0.00  0.00     0.149 HD
HETATM   23  H   UNK N   1      23.628  22.614  -8.246  0.00  0.00     0.149 HD
ENDBRANCH  20  21
ENDBRANCH  19  20
ENDBRANCH  18  19
ENDBRANCH  11  18
ENDBRANCH   1   9
BRANCH   7  24
HETATM   24  C   UNK N   1      30.764  22.905  -5.276  0.00  0.00     0.009 A 
HETATM   25  C   UNK N   1      30.701  21.897  -6.237  0.00  0.00     0.003 A 
HETATM   26  C   UNK N   1      29.937  20.735  -6.343  0.00  0.00     0.014 A 
HETATM   27  C   UNK N   1      31.610  22.219  -7.211  0.00  0.00     0.043 A 
HETATM   28  C   UNK N   1      30.117  19.909  -7.467  0.00  0.00     0.001 A 
HETATM   29  C   UNK N   1      31.057  20.256  -8.461  0.00  0.00     0.002 A 
HETATM   30  C   UNK N   1      31.817  21.428  -8.336  0.00  0.00     0.030 A 
HETATM   31  N   UNK N   1      32.236  23.366  -6.928  0.00  0.00    -0.364 N 
HETATM   32  C   UNK N   1      31.724  23.792  -5.752  0.00  0.00     0.101 A 
HETATM   33  H   UNK N   1      32.931  23.810  -7.467  0.00  0.00     0.165 HD
ENDBRANCH   7  24
TORSDOF 6
ENDMDL
MODEL 5
REMARK VINA RESULT:      -7.0     12.101     15.834
REMARK  6 active torsions:
REMARK  status: ('A' for Active; 'I' for Inactive)
REMARK    1  A    between atoms: N_1  and  C_2 
REMARK    2  A    between atoms: C_2  and  C_3 
REMARK    3  A    between atoms: C_3  and  C_4 
REMARK    4  A    between atoms: C_4  and  N_5 
REMARK    5  A    between atoms: C_13  and  C_14 
REMARK    6  A    between atoms: C_20  and  C_21 
ROOT
HETATM    1  C   UNK N   1      26.499  25.551  -7.122  0.00  0.00     0.061 A 
HETATM    2  C   UNK N   1      25.735  25.164  -8.334  0.00  0.00     0.260 A 
HETATM    3  O   UNK N   1      25.458  25.878  -9.282  0.00  0.00    -0.267 OA
HETATM    4  N   UNK N   1      25.343  23.888  -8.270  0.00  0.00    -0.289 N 
HETATM    5  C   UNK N   1      25.790  23.390  -7.112  0.00  0.00     0.260 A 
HETATM    6  O   UNK N   1      25.576  22.237  -6.780  0.00  0.00    -0.267 OA
HETATM    7  C   UNK N   1      26.541  24.414  -6.343  0.00  0.00     0.061 A 
HETATM    8  H   UNK N   1      24.822  23.403  -8.950  0.00  0.00     0.172 HD
ENDROOT
BRANCH   1   9
HETATM    9  C   UNK N   1      27.054  26.936  -6.861  0.00  0.00     0.009 A 
HETATM   10  C   UNK N   1      28.025  27.579  -7.625  0.00  0.00     0.104 A 
HETATM   11  N   UNK N   1      28.318  28.782  -7.095  0.00  0.00    -0.355 N 
HETATM   12  C   UNK N   1      27.563  28.929  -5.998  0.00  0.00     0.045 A 
HETATM   13  C   UNK N   1      27.553  30.013  -5.120  0.00  0.00     0.030 A 
HETATM   14  C   UNK N   1      26.772  27.822  -5.813  0.00  0.00     0.003 A 
HETATM   15  C   UNK N   1      26.692  29.952  -4.014  0.00  0.00     0.002 A 
HETATM   16  C   UNK N   1      25.872  28.823  -3.814  0.00  0.00     0.001 A 
HETATM   17  C   UNK N   1      25.908  27.746  -4.719  0.00  0.00     0.014 A 
BRANCH  11  18
HETATM   18  C   UNK N   1      29.324  29.699  -7.616  0.00  0.00     0.130 C 
BRANCH  18  19
HETATM   19  C   UNK N   1      29.770  29.287  -9.008  0.00  0.00     0.039 C 
BRANCH  19  20
HETATM   20  C   UNK N   1      30.504  30.439  -9.668  0.00  0.00     0.112 C 
BRANCH  20  21
HETATM   21  N   UNK N   1      30.287  30.401 -11.104  0.00  0.00    -0.430 N 
HETATM   22  H   UNK N   1      29.401  30.154 -11.543  0.00  0.00     0.149 HD
HETATM   23  H   UNK N   1      31.072  30.637 -11.712  0.00  0.00     0.149 HD
ENDBRANCH  20  21
ENDBRANCH  19  20
ENDBRANCH  18  19
ENDBRANCH  11  18
ENDBRANCH   1   9
BRANCH   7  24
HETATM   24  C   UNK N   1      27.192  24.172  -4.994  0.00  0.00     0.009 A 
HETATM   25  C   UNK N   1      28.517  23.847  -4.702  0.00  0.00     0.003 A 
HETATM   26  C   UNK N   1      29.639  23.636  -5.503  0.00  0.00     0.014 A 
HETATM   27  C   UNK N   1      28.610  23.742  -3.339  0.00  0.00     0.043 A 
HETATM   28  C   UNK N   1      30.860  23.317  -4.883  0.00  0.00     0.001 A 
HETATM   29  C   UNK N   1      30.939  23.212  -3.478  0.00  0.00     0.002 A 
HETATM   30  C   UNK N   1      29.799  23.428  -2.690  0.00  0.00     0.030 A 
HETATM   31  N   UNK N   1      27.432  23.984  -2.753  0.00  0.00    -0.364 N 
HETATM   32  C   UNK N   1      26.564  24.249  -3.755  0.00  0.00     0.101 A 
HETATM   33  H   UNK N   1      27.237  23.969  -1.788  0.00  0.00     0.165 HD
ENDBRANCH   7  24
TORSDOF 6
ENDMDL
MODEL 6
REMARK VINA RESULT:      -7.0      3.626      6.044
REMARK  6 active torsions:
REMARK  status: ('A' for Active; 'I' for Inactive)
REMARK    1  A    between atoms: N_1  and  C_2 
REMARK    2  A    between atoms: C_2  and  C_3 
REMARK    3  A    between atoms: C_3  and  C_4 
REMARK    4  A    between atoms: C_4  and  N_5 
REMARK    5  A    between atoms: C_13  and  C_14 
REMARK    6  A    between atoms: C_20  and  C_21 
ROOT
HETATM    1  C   UNK N   1      22.795  18.331   4.463  0.00  0.00     0.061 A 
HETATM    2  C   UNK N   1      21.637  18.823   3.676  0.00  0.00     0.260 A 
HETATM    3  O   UNK N   1      20.504  18.375   3.686  0.00  0.00    -0.267 OA
HETATM    4  N   UNK N   1      21.985  19.852   2.897  0.00  0.00    -0.289 N 
HETATM    5  C   UNK N   1      23.285  20.090   3.107  0.00  0.00     0.260 A 
HETATM    6  O   UNK N   1      23.881  20.979   2.523  0.00  0.00    -0.267 OA
HETATM    7  C   UNK N   1      23.848  19.145   4.105  0.00  0.00     0.061 A 
HETATM    8  H   UNK N   1      21.395  20.346   2.284  0.00  0.00     0.172 HD
ENDROOT
BRANCH   1   9
HETATM    9  C   UNK N   1      22.749  17.153   5.415  0.00  0.00     0.009 A 
HETATM   10  C   UNK N   1      23.580  16.036   5.366  0.00  0.00     0.104 A 
HETATM   11  N   UNK N   1      23.246  15.161   6.333  0.00  0.00    -0.355 N 
HETATM   12  C   UNK N   1      22.210  15.684   7.004  0.00  0.00     0.045 A 
HETATM   13  C   UNK N   1      21.523  15.111   8.073  0.00  0.00     0.030 A 
HETATM   14  C   UNK N   1      21.869  16.904   6.476  0.00  0.00     0.003 A 
HETATM   15  C   UNK N   1      20.446  15.827   8.620  0.00  0.00     0.002 A 
HETATM   16  C   UNK N   1      20.088  17.083   8.090  0.00  0.00     0.001 A 
HETATM   17  C   UNK N   1      20.803  17.631   7.009  0.00  0.00     0.014 A 
BRANCH  11  18
HETATM   18  C   UNK N   1      23.881  13.866   6.539  0.00  0.00     0.130 C 
BRANCH  18  19
HETATM   19  C   UNK N   1      24.962  13.950   7.602  0.00  0.00     0.039 C 
BRANCH  19  20
HETATM   20  C   UNK N   1      24.583  13.079   8.785  0.00  0.00     0.112 C 
BRANCH  20  21
HETATM   21  N   UNK N   1      25.301  13.518   9.968  0.00  0.00    -0.430 N 
HETATM   22  H   UNK N   1      25.942  14.310   9.988  0.00  0.00     0.149 HD
HETATM   23  H   UNK N   1      25.153  13.001  10.835  0.00  0.00     0.149 HD
ENDBRANCH  20  21
ENDBRANCH  19  20
ENDBRANCH  18  19
ENDBRANCH  11  18
ENDBRANCH   1   9
BRANCH   7  24
HETATM   24  C   UNK N   1      25.289  19.153   4.580  0.00  0.00     0.009 A 
HETATM   25  C   UNK N   1      26.330  18.287   4.246  0.00  0.00     0.003 A 
HETATM   26  C   UNK N   1      26.403  17.171   3.414  0.00  0.00     0.014 A 
HETATM   27  C   UNK N   1      27.439  18.717   4.927  0.00  0.00     0.043 A 
HETATM   28  C   UNK N   1      27.634  16.501   3.290  0.00  0.00     0.001 A 
HETATM   29  C   UNK N   1      28.766  16.956   3.998  0.00  0.00     0.002 A 
HETATM   30  C   UNK N   1      28.672  18.081   4.831  0.00  0.00     0.030 A 
HETATM   31  N   UNK N   1      27.165  19.799   5.664  0.00  0.00    -0.364 N 
HETATM   32  C   UNK N   1      25.859  20.072   5.455  0.00  0.00     0.101 A 
HETATM   33  H   UNK N   1      27.790  20.294   6.243  0.00  0.00     0.165 HD
ENDBRANCH   7  24
TORSDOF 6
ENDMDL
MODEL 7
REMARK VINA RESULT:      -7.0      6.341      9.098
REMARK  6 active torsions:
REMARK  status: ('A' for Active; 'I' for Inactive)
REMARK    1  A    between atoms: N_1  and  C_2 
REMARK    2  A    between atoms: C_2  and  C_3 
REMARK    3  A    between atoms: C_3  and  C_4 
REMARK    4  A    between atoms: C_4  and  N_5 
REMARK    5  A    between atoms: C_13  and  C_14 
REMARK    6  A    between atoms: C_20  and  C_21 
ROOT
HETATM    1  C   UNK N   1      29.579  17.616   7.368  0.00  0.00     0.061 A 
HETATM    2  C   UNK N   1      29.544  18.004   8.800  0.00  0.00     0.260 A 
HETATM    3  O   UNK N   1      28.574  18.388   9.430  0.00  0.00    -0.267 OA
HETATM    4  N   UNK N   1      30.755  17.903   9.357  0.00  0.00    -0.289 N 
HETATM    5  C   UNK N   1      31.596  17.472   8.410  0.00  0.00     0.260 A 
HETATM    6  O   UNK N   1      32.780  17.292   8.632  0.00  0.00    -0.267 OA
HETATM    7  C   UNK N   1      30.889  17.269   7.119  0.00  0.00     0.061 A 
HETATM    8  H   UNK N   1      30.986  18.107  10.292  0.00  0.00     0.172 HD
ENDROOT
BRANCH   1   9
HETATM    9  C   UNK N   1      28.383  17.653   6.438  0.00  0.00     0.009 A 
HETATM   10  C   UNK N   1      27.808  16.551   5.810  0.00  0.00     0.104 A 
HETATM   11  N   UNK N   1      26.788  16.940   5.023  0.00  0.00    -0.355 N 
HETATM   12  C   UNK N   1      26.694  18.273   5.121  0.00  0.00     0.045 A 
HETATM   13  C   UNK N   1      25.792  19.106   4.459  0.00  0.00     0.030 A 
HETATM   14  C   UNK N   1      27.652  18.756   5.976  0.00  0.00     0.003 A 
HETATM   15  C   UNK N   1      25.882  20.487   4.693  0.00  0.00     0.002 A 
HETATM   16  C   UNK N   1      26.859  20.995   5.573  0.00  0.00     0.001 A 
HETATM   17  C   UNK N   1      27.754  20.126   6.223  0.00  0.00     0.014 A 
BRANCH  11  18
HETATM   18  C   UNK N   1      25.995  16.048   4.186  0.00  0.00     0.130 C 
BRANCH  18  19
HETATM   19  C   UNK N   1      26.528  16.014   2.765  0.00  0.00     0.039 C 
BRANCH  19  20
HETATM   20  C   UNK N   1      27.560  14.909   2.634  0.00  0.00     0.112 C 
BRANCH  20  21
HETATM   21  N   UNK N   1      28.875  15.488   2.420  0.00  0.00    -0.430 N 
HETATM   22  H   UNK N   1      29.078  16.485   2.477  0.00  0.00     0.149 HD
HETATM   23  H   UNK N   1      29.644  14.855   2.199  0.00  0.00     0.149 HD
ENDBRANCH  20  21
ENDBRANCH  19  20
ENDBRANCH  18  19
ENDBRANCH  11  18
ENDBRANCH   1   9
BRANCH   7  24
HETATM   24  C   UNK N   1      31.549  16.771   5.846  0.00  0.00     0.009 A 
HETATM   25  C   UNK N   1      31.424  15.533   5.217  0.00  0.00     0.003 A 
HETATM   26  C   UNK N   1      30.698  14.383   5.525  0.00  0.00     0.014 A 
HETATM   27  C   UNK N   1      32.211  15.576   4.095  0.00  0.00     0.043 A 
HETATM   28  C   UNK N   1      30.791  13.276   4.662  0.00  0.00     0.001 A 
HETATM   29  C   UNK N   1      31.605  13.336   3.512  0.00  0.00     0.002 A 
HETATM   30  C   UNK N   1      32.329  14.502   3.219  0.00  0.00     0.030 A 
HETATM   31  N   UNK N   1      32.819  16.761   3.975  0.00  0.00    -0.364 N 
HETATM   32  C   UNK N   1      32.418  17.496   5.036  0.00  0.00     0.101 A 
HETATM   33  H   UNK N   1      33.435  17.040   3.259  0.00  0.00     0.165 HD
ENDBRANCH   7  24
TORSDOF 6
ENDMDL
MODEL 8
REMARK VINA RESULT:      -6.9      3.225      7.048
REMARK  6 active torsions:
REMARK  status: ('A' for Active; 'I' for Inactive)
REMARK    1  A    between atoms: N_1  and  C_2 
REMARK    2  A    between atoms: C_2  and  C_3 
REMARK    3  A    between atoms: C_3  and  C_4 
REMARK    4  A    between atoms: C_4  and  N_5 
REMARK    5  A    between atoms: C_13  and  C_14 
REMARK    6  A    between atoms: C_20  and  C_21 
ROOT
HETATM    1  C   UNK N   1      23.988  18.887   3.739  0.00  0.00     0.061 A 
HETATM    2  C   UNK N   1      23.709  20.129   2.977  0.00  0.00     0.260 A 
HETATM    3  O   UNK N   1      24.529  20.879   2.477  0.00  0.00    -0.267 OA
HETATM    4  N   UNK N   1      22.395  20.368   2.907  0.00  0.00    -0.289 N 
HETATM    5  C   UNK N   1      21.775  19.378   3.558  0.00  0.00     0.260 A 
HETATM    6  O   UNK N   1      20.561  19.335   3.662  0.00  0.00    -0.267 OA
HETATM    7  C   UNK N   1      22.751  18.401   4.105  0.00  0.00     0.061 A 
HETATM    8  H   UNK N   1      21.964  21.130   2.458  0.00  0.00     0.172 HD
ENDROOT
BRANCH   1   9
HETATM    9  C   UNK N   1      25.375  18.352   4.033  0.00  0.00     0.009 A 
HETATM   10  C   UNK N   1      26.274  18.888   4.951  0.00  0.00     0.104 A 
HETATM   11  N   UNK N   1      27.428  18.195   4.936  0.00  0.00    -0.355 N 
HETATM   12  C   UNK N   1      27.299  17.224   4.021  0.00  0.00     0.045 A 
HETATM   13  C   UNK N   1      28.257  16.280   3.653  0.00  0.00     0.030 A 
HETATM   14  C   UNK N   1      26.057  17.281   3.440  0.00  0.00     0.003 A 
HETATM   15  C   UNK N   1      27.917  15.359   2.650  0.00  0.00     0.002 A 
HETATM   16  C   UNK N   1      26.643  15.403   2.048  0.00  0.00     0.001 A 
HETATM   17  C   UNK N   1      25.701  16.371   2.443  0.00  0.00     0.014 A 
BRANCH  11  18
HETATM   18  C   UNK N   1      28.602  18.513   5.740  0.00  0.00     0.130 C 
BRANCH  18  19
HETATM   19  C   UNK N   1      28.661  17.650   6.987  0.00  0.00     0.039 C 
BRANCH  19  20
HETATM   20  C   UNK N   1      28.828  18.532   8.210  0.00  0.00     0.112 C 
BRANCH  20  21
HETATM   21  N   UNK N   1      27.525  18.964   8.686  0.00  0.00    -0.430 N 
HETATM   22  H   UNK N   1      26.825  18.339   9.084  0.00  0.00     0.149 HD
HETATM   23  H   UNK N   1      27.298  19.956   8.620  0.00  0.00     0.149 HD
ENDBRANCH  20  21
ENDBRANCH  19  20
ENDBRANCH  18  19
ENDBRANCH  11  18
ENDBRANCH   1   9
BRANCH   7  24
HETATM   24  C   UNK N   1      22.377  17.153   4.883  0.00  0.00     0.009 A 
HETATM   25  C   UNK N   1      21.620  17.037   6.048  0.00  0.00     0.003 A 
HETATM   26  C   UNK N   1      20.987  17.975   6.864  0.00  0.00     0.014 A 
HETATM   27  C   UNK N   1      21.557  15.701   6.350  0.00  0.00     0.043 A 
HETATM   28  C   UNK N   1      20.285  17.520   7.995  0.00  0.00     0.001 A 
HETATM   29  C   UNK N   1      20.231  16.142   8.292  0.00  0.00     0.002 A 
HETATM   30  C   UNK N   1      20.875  15.214   7.460  0.00  0.00     0.030 A 
HETATM   31  N   UNK N   1      22.221  14.970   5.449  0.00  0.00    -0.364 N 
HETATM   32  C   UNK N   1      22.720  15.847   4.550  0.00  0.00     0.101 A 
HETATM   33  H   UNK N   1      22.326  13.990   5.444  0.00  0.00     0.165 HD
ENDBRANCH   7  24
TORSDOF 6
ENDMDL
MODEL 9
REMARK VINA RESULT:      -6.8      2.586      6.622
REMARK  6 active torsions:
REMARK  status: ('A' for Active; 'I' for Inactive)
REMARK    1  A    between atoms: N_1  and  C_2 
REMARK    2  A    between atoms: C_2  and  C_3 
REMARK    3  A    between atoms: C_3  and  C_4 
REMARK    4  A    between atoms: C_4  and  N_5 
REMARK    5  A    between atoms: C_13  and  C_14 
REMARK    6  A    between atoms: C_20  and  C_21 
ROOT
HETATM    1  C   UNK N   1      20.444  15.670   3.689  0.00  0.00     0.061 A 
HETATM    2  C   UNK N   1      19.885  15.033   2.472  0.00  0.00     0.260 A 
HETATM    3  O   UNK N   1      20.144  15.315   1.314  0.00  0.00    -0.267 OA
HETATM    4  N   UNK N   1      19.003  14.079   2.787  0.00  0.00    -0.289 N 
HETATM    5  C   UNK N   1      18.934  14.025   4.122  0.00  0.00     0.260 A 
HETATM    6  O   UNK N   1      18.200  13.242   4.699  0.00  0.00    -0.267 OA
HETATM    7  C   UNK N   1      19.843  15.021   4.746  0.00  0.00     0.061 A 
HETATM    8  H   UNK N   1      18.498  13.519   2.155  0.00  0.00     0.172 HD
ENDROOT
BRANCH   1   9
HETATM    9  C   UNK N   1      21.442  16.811   3.681  0.00  0.00     0.009 A 
HETATM   10  C   UNK N   1      22.725  16.772   4.221  0.00  0.00     0.104 A 
HETATM   11  N   UNK N   1      23.330  17.966   4.079  0.00  0.00    -0.355 N 
HETATM   12  C   UNK N   1      22.462  18.782   3.464  0.00  0.00     0.045 A 
HETATM   13  C   UNK N   1      22.656  20.123   3.134  0.00  0.00     0.030 A 
HETATM   14  C   UNK N   1      21.290  18.118   3.201  0.00  0.00     0.003 A 
HETATM   15  C   UNK N   1      21.600  20.801   2.505  0.00  0.00     0.002 A 
HETATM   16  C   UNK N   1      20.392  20.131   2.226  0.00  0.00     0.001 A 
HETATM   17  C   UNK N   1      20.231  18.777   2.575  0.00  0.00     0.014 A 
BRANCH  11  18
HETATM   18  C   UNK N   1      24.663  18.288   4.572  0.00  0.00     0.130 C 
BRANCH  18  19
HETATM   19  C   UNK N   1      25.728  17.520   3.811  0.00  0.00     0.039 C 
BRANCH  19  20
HETATM   20  C   UNK N   1      26.432  16.559   4.751  0.00  0.00     0.112 C 
BRANCH  20  21
HETATM   21  N   UNK N   1      26.249  16.993   6.125  0.00  0.00    -0.430 N 
HETATM   22  H   UNK N   1      25.656  17.773   6.405  0.00  0.00     0.149 HD
HETATM   23  H   UNK N   1      26.745  16.484   6.856  0.00  0.00     0.149 HD
ENDBRANCH  20  21
ENDBRANCH  19  20
ENDBRANCH  18  19
ENDBRANCH  11  18
ENDBRANCH   1   9
BRANCH   7  24
HETATM   24  C   UNK N   1      20.017  15.210   6.242  0.00  0.00     0.009 A 
HETATM   25  C   UNK N   1      20.580  14.344   7.178  0.00  0.00     0.003 A 
HETATM   26  C   UNK N   1      21.139  13.070   7.074  0.00  0.00     0.014 A 
HETATM   27  C   UNK N   1      20.512  14.973   8.394  0.00  0.00     0.043 A 
HETATM   28  C   UNK N   1      21.631  12.453   8.238  0.00  0.00     0.001 A 
HETATM   29  C   UNK N   1      21.554  13.115   9.482  0.00  0.00     0.002 A 
HETATM   30  C   UNK N   1      20.987  14.395   9.566  0.00  0.00     0.030 A 
HETATM   31  N   UNK N   1      19.948  16.181   8.282  0.00  0.00    -0.364 N 
HETATM   32  C   UNK N   1      19.647  16.333   6.974  0.00  0.00     0.101 A 
HETATM   33  H   UNK N   1      19.785  16.827   9.008  0.00  0.00     0.165 HD
ENDBRANCH   7  24
TORSDOF 6
ENDMDL
