REMARK  6 active torsions:
REMARK  status: ('A' for Active; 'I' for Inactive)
REMARK    1  A    between atoms: N_1  and  C_2 
REMARK    2  A    between atoms: C_2  and  C_3 
REMARK    3  A    between atoms: C_3  and  C_4 
REMARK    4  A    between atoms: C_4  and  N_5 
REMARK    5  A    between atoms: C_13  and  C_14 
REMARK    6  A    between atoms: C_20  and  C_21 
ROOT
HETATM    1  C   UNK N   1       0.716   1.818   0.005  0.00  0.00     0.061 A 
HETATM    2  C   UNK N   1       0.743   3.301   0.034  0.00  0.00     0.260 A 
HETATM    3  O   UNK N   1      -0.219   4.050   0.021  0.00  0.00    -0.267 OA
HETATM    4  N   UNK N   1       1.998   3.761   0.057  0.00  0.00    -0.289 N 
HETATM    5  C   UNK N   1       2.812   2.700   0.052  0.00  0.00     0.260 A 
HETATM    6  O   UNK N   1       4.025   2.817   0.065  0.00  0.00    -0.267 OA
HETATM    7  C   UNK N   1       2.039   1.432   0.024  0.00  0.00     0.061 A 
HETATM    8  H   UNK N   1       2.273   4.706   0.076  0.00  0.00     0.172 HD
ENDROOT
BRANCH   1   9
HETATM    9  C   UNK N   1      -0.546   0.982  -0.062  0.00  0.00     0.009 A 
HETATM   10  C   UNK N   1      -0.598  -0.397  -0.247  0.00  0.00     0.104 A 
HETATM   11  N   UNK N   1      -1.877  -0.815  -0.297  0.00  0.00    -0.355 N 
HETATM   12  C   UNK N   1      -2.656   0.266  -0.156  0.00  0.00     0.045 A 
HETATM   13  C   UNK N   1      -4.050   0.308  -0.170  0.00  0.00     0.030 A 
HETATM   14  C   UNK N   1      -1.885   1.392  -0.010  0.00  0.00     0.003 A 
HETATM   15  C   UNK N   1      -4.669   1.559  -0.024  0.00  0.00     0.002 A 
HETATM   16  C   UNK N   1      -3.889   2.723   0.131  0.00  0.00     0.001 A 
HETATM   17  C   UNK N   1      -2.484   2.644   0.139  0.00  0.00     0.014 A 
BRANCH  11  18
HETATM   18  C   UNK N   1      -2.294  -2.193  -0.526  0.00  0.00     0.130 C 
BRANCH  18  19
HETATM   19  C   UNK N   1      -3.022  -2.752   0.683  0.00  0.00     0.039 C 
BRANCH  19  20
HETATM   20  C   UNK N   1      -3.591  -4.118   0.348  0.00  0.00     0.112 C 
BRANCH  20  21
HETATM   21  N   UNK N   1      -4.943  -3.975  -0.163  0.00  0.00    -0.430 N 
HETATM   22  H   UNK N   1      -5.330  -3.103  -0.523  0.00  0.00     0.149 HD
HETATM   23  H   UNK N   1      -5.543  -4.800  -0.163  0.00  0.00     0.149 HD
ENDBRANCH  20  21
ENDBRANCH  19  20
ENDBRANCH  18  19
ENDBRANCH  11  18
ENDBRANCH   1   9
BRANCH   7  24
HETATM   24  C   UNK N   1       2.658   0.046   0.027  0.00  0.00     0.009 A 
HETATM   25  C   UNK N   1       4.004  -0.316   0.003  0.00  0.00     0.003 A 
HETATM   26  C   UNK N   1       5.184   0.426  -0.039  0.00  0.00     0.014 A 
HETATM   27  C   UNK N   1       4.048  -1.686   0.028  0.00  0.00     0.043 A 
HETATM   28  C   UNK N   1       6.412  -0.260  -0.053  0.00  0.00     0.001 A 
HETATM   29  C   UNK N   1       6.440  -1.670  -0.027  0.00  0.00     0.002 A 
HETATM   30  C   UNK N   1       5.242  -2.399   0.014  0.00  0.00     0.030 A 
HETATM   31  N   UNK N   1       2.818  -2.209   0.071  0.00  0.00    -0.364 N 
HETATM   32  C   UNK N   1       1.966  -1.160   0.074  0.00  0.00     0.101 A 
HETATM   33  H   UNK N   1       2.582  -3.165   0.094  0.00  0.00     0.165 HD
ENDBRANCH   7  24
TORSDOF 6
