MODEL 1
REMARK VINA RESULT:      -7.4      0.000      0.000
REMARK  5 active torsions:
REMARK  status: ('A' for Active; 'I' for Inactive)
REMARK    1  A    between atoms: C_3  and  C_8 
REMARK    2  A    between atoms: C_8  and  N_9 
REMARK       I    between atoms: N_9  and  C_10 
REMARK    3  A    between atoms: C_10  and  C_11 
REMARK    4  A    between atoms: C_14  and  O_17 
REMARK    5  A    between atoms: O_17  and  C_18 
ROOT
HETATM    1  C   UNK N   1      32.729  17.597   7.829  0.00  0.00     0.032 A 
HETATM    2  C   UNK N   1      32.434  17.179   6.520  0.00  0.00     0.020 A 
HETATM    3  C   UNK N   1      31.108  17.146   6.065  0.00  0.00     0.038 A 
HETATM    4  C   UNK N   1      30.061  17.553   6.904  0.00  0.00     0.076 A 
HETATM    5  C   UNK N   1      30.364  17.973   8.204  0.00  0.00     0.038 A 
HETATM    6  C   UNK N   1      31.675  17.991   8.659  0.00  0.00     0.020 A 
ENDROOT
BRANCH   1   7
HETATM    7  C   UNK N   1      34.145  17.663   8.305  0.00  0.00     0.251 C 
HETATM    8  N   UNK N   1      34.678  16.776   9.195  0.00  0.00    -0.351 N 
HETATM    9  H   UNK N   1      35.571  16.970   9.560  0.00  0.00     0.163 HD
HETATM   10  O   UNK N   1      34.866  18.551   7.869  0.00  0.00    -0.268 OA
BRANCH   8  11
HETATM   11  C   UNK N   1      34.012  15.568   9.633  0.00  0.00     0.179 C 
BRANCH  11  12
HETATM   12  C   UNK N   1      34.691  14.917  10.789  0.00  0.00     0.026 A 
HETATM   13  N   UNK N   1      34.401  13.629  11.122  0.00  0.00    -0.368 N 
HETATM   14  C   UNK N   1      34.952  13.039  12.218  0.00  0.00     0.088 A 
ATOM     15  HN  UNK N   1      33.757  13.095  10.538  1.00  0.00     0.165 HD
HETATM   16  C   UNK N   1      35.828  13.756  13.037  0.00  0.00     0.017 A 
HETATM   17  C   UNK N   1      36.135  15.078  12.715  0.00  0.00     0.003 A 
HETATM   18  C   UNK N   1      35.560  15.666  11.587  0.00  0.00     0.027 A 
ENDBRANCH  11  12
ENDBRANCH   8  11
ENDBRANCH   1   7
BRANCH   4  19
HETATM   19  O   UNK N   1      28.782  17.533   6.429  0.00  0.00    -0.311 OA
BRANCH  19  20
HETATM   20  C   UNK N   1      28.086  18.551   5.841  0.00  0.00     0.076 A 
HETATM   21  C   UNK N   1      27.827  18.480   4.466  0.00  0.00     0.037 A 
HETATM   22  C   UNK N   1      27.132  19.508   3.821  0.00  0.00     0.003 A 
HETATM   23  C   UNK N   1      26.690  20.619   4.544  0.00  0.00     0.000 A 
HETATM   24  C   UNK N   1      26.941  20.703   5.914  0.00  0.00     0.003 A 
HETATM   25  C   UNK N   1      27.635  19.677   6.557  0.00  0.00     0.037 A 
ENDBRANCH  19  20
ENDBRANCH   4  19
TORSDOF 5
ENDMDL
MODEL 2
REMARK VINA RESULT:      -7.3      4.142      8.287
REMARK  5 active torsions:
REMARK  status: ('A' for Active; 'I' for Inactive)
REMARK    1  A    between atoms: C_3  and  C_8 
REMARK    2  A    between atoms: C_8  and  N_9 
REMARK       I    between atoms: N_9  and  C_10 
REMARK    3  A    between atoms: C_10  and  C_11 
REMARK    4  A    between atoms: C_14  and  O_17 
REMARK    5  A    between atoms: O_17  and  C_18 
ROOT
HETATM    1  C   UNK N   1      29.433  17.646   8.153  0.00  0.00     0.032 A 
HETATM    2  C   UNK N   1      30.623  18.089   8.754  0.00  0.00     0.020 A 
HETATM    3  C   UNK N   1      31.866  17.792   8.176  0.00  0.00     0.038 A 
HETATM    4  C   UNK N   1      31.934  17.069   6.976  0.00  0.00     0.076 A 
HETATM    5  C   UNK N   1      30.743  16.636   6.381  0.00  0.00     0.038 A 
HETATM    6  C   UNK N   1      29.515  16.918   6.963  0.00  0.00     0.020 A 
ENDROOT
BRANCH   1   7
HETATM    7  C   UNK N   1      28.106  17.990   8.752  0.00  0.00     0.251 C 
HETATM    8  N   UNK N   1      27.431  19.141   8.465  0.00  0.00    -0.351 N 
HETATM    9  H   UNK N   1      26.635  19.355   9.002  0.00  0.00     0.163 HD
HETATM   10  O   UNK N   1      27.594  17.197   9.531  0.00  0.00    -0.268 OA
BRANCH   8  11
HETATM   11  C   UNK N   1      27.813  20.066   7.419  0.00  0.00     0.179 C 
BRANCH  11  12
HETATM   12  C   UNK N   1      27.160  19.768   6.112  0.00  0.00     0.026 A 
HETATM   13  N   UNK N   1      25.806  19.659   6.028  0.00  0.00    -0.368 N 
HETATM   14  C   UNK N   1      25.194  19.313   4.862  0.00  0.00     0.088 A 
ATOM     15  HN  UNK N   1      25.238  19.840   6.856  1.00  0.00     0.165 HD
HETATM   16  C   UNK N   1      25.954  19.051   3.720  0.00  0.00     0.017 A 
HETATM   17  C   UNK N   1      27.344  19.153   3.787  0.00  0.00     0.003 A 
HETATM   18  C   UNK N   1      27.953  19.509   4.990  0.00  0.00     0.027 A 
ENDBRANCH  11  12
ENDBRANCH   8  11
ENDBRANCH   1   7
BRANCH   4  19
HETATM   19  O   UNK N   1      33.154  16.813   6.422  0.00  0.00    -0.311 OA
BRANCH  19  20
HETATM   20  C   UNK N   1      33.430  16.141   5.265  0.00  0.00     0.076 A 
HETATM   21  C   UNK N   1      33.125  16.755   4.043  0.00  0.00     0.037 A 
HETATM   22  C   UNK N   1      33.375  16.096   2.835  0.00  0.00     0.003 A 
HETATM   23  C   UNK N   1      33.931  14.814   2.836  0.00  0.00     0.000 A 
HETATM   24  C   UNK N   1      34.239  14.190   4.046  0.00  0.00     0.003 A 
HETATM   25  C   UNK N   1      33.989  14.848   5.251  0.00  0.00     0.037 A 
ENDBRANCH  19  20
ENDBRANCH   4  19
TORSDOF 5
ENDMDL
MODEL 3
REMARK VINA RESULT:      -7.3      2.753      8.999
REMARK  5 active torsions:
REMARK  status: ('A' for Active; 'I' for Inactive)
REMARK    1  A    between atoms: C_3  and  C_8 
REMARK    2  A    between atoms: C_8  and  N_9 
REMARK       I    between atoms: N_9  and  C_10 
REMARK    3  A    between atoms: C_10  and  C_11 
REMARK    4  A    between atoms: C_14  and  O_17 
REMARK    5  A    between atoms: O_17  and  C_18 
ROOT
HETATM    1  C   UNK N   1      34.926  16.811   9.300  0.00  0.00     0.032 A 
HETATM    2  C   UNK N   1      35.235  17.015  10.655  0.00  0.00     0.020 A 
HETATM    3  C   UNK N   1      35.696  15.954  11.449  0.00  0.00     0.038 A 
HETATM    4  C   UNK N   1      35.877  14.680  10.892  0.00  0.00     0.076 A 
HETATM    5  C   UNK N   1      35.572  14.487   9.540  0.00  0.00     0.038 A 
HETATM    6  C   UNK N   1      35.101  15.534   8.759  0.00  0.00     0.020 A 
ENDROOT
BRANCH   1   7
HETATM    7  C   UNK N   1      34.465  17.948   8.445  0.00  0.00     0.251 C 
HETATM    8  N   UNK N   1      33.290  17.934   7.751  0.00  0.00    -0.351 N 
HETATM    9  H   UNK N   1      33.127  18.660   7.106  0.00  0.00     0.163 HD
HETATM   10  O   UNK N   1      35.171  18.945   8.371  0.00  0.00    -0.268 OA
BRANCH   8  11
HETATM   11  C   UNK N   1      32.270  16.919   7.903  0.00  0.00     0.179 C 
BRANCH  11  12
HETATM   12  C   UNK N   1      30.927  17.486   8.212  0.00  0.00     0.026 A 
HETATM   13  N   UNK N   1      30.688  18.072   9.417  0.00  0.00    -0.368 N 
HETATM   14  C   UNK N   1      29.449  18.529   9.750  0.00  0.00     0.088 A 
ATOM     15  HN  UNK N   1      31.453  18.173  10.085  1.00  0.00     0.165 HD
HETATM   16  C   UNK N   1      28.385  18.393   8.855  0.00  0.00     0.017 A 
HETATM   17  C   UNK N   1      28.609  17.791   7.616  0.00  0.00     0.003 A 
HETATM   18  C   UNK N   1      29.886  17.329   7.293  0.00  0.00     0.027 A 
ENDBRANCH  11  12
ENDBRANCH   8  11
ENDBRANCH   1   7
BRANCH   4  19
HETATM   19  O   UNK N   1      36.348  13.671  11.679  0.00  0.00    -0.311 OA
BRANCH  19  20
HETATM   20  C   UNK N   1      35.870  13.253  12.889  0.00  0.00     0.076 A 
HETATM   21  C   UNK N   1      36.429  13.793  14.054  0.00  0.00     0.037 A 
HETATM   22  C   UNK N   1      35.982  13.381  15.314  0.00  0.00     0.003 A 
HETATM   23  C   UNK N   1      34.971  12.422  15.421  0.00  0.00     0.000 A 
HETATM   24  C   UNK N   1      34.406  11.875  14.269  0.00  0.00     0.003 A 
HETATM   25  C   UNK N   1      34.853  12.287  13.012  0.00  0.00     0.037 A 
ENDBRANCH  19  20
ENDBRANCH   4  19
TORSDOF 5
ENDMDL
MODEL 4
REMARK VINA RESULT:      -7.3      9.809     13.642
REMARK  5 active torsions:
REMARK  status: ('A' for Active; 'I' for Inactive)
REMARK    1  A    between atoms: C_3  and  C_8 
REMARK    2  A    between atoms: C_8  and  N_9 
REMARK       I    between atoms: N_9  and  C_10 
REMARK    3  A    between atoms: C_10  and  C_11 
REMARK    4  A    between atoms: C_14  and  O_17 
REMARK    5  A    between atoms: O_17  and  C_18 
ROOT
HETATM    1  C   UNK N   1      20.007  15.128   5.916  0.00  0.00     0.032 A 
HETATM    2  C   UNK N   1      20.143  13.737   5.768  0.00  0.00     0.020 A 
HETATM    3  C   UNK N   1      21.160  13.045   6.442  0.00  0.00     0.038 A 
HETATM    4  C   UNK N   1      22.040  13.730   7.292  0.00  0.00     0.076 A 
HETATM    5  C   UNK N   1      21.894  15.115   7.438  0.00  0.00     0.038 A 
HETATM    6  C   UNK N   1      20.897  15.801   6.758  0.00  0.00     0.020 A 
ENDROOT
BRANCH   1   7
HETATM    7  C   UNK N   1      18.903  15.861   5.223  0.00  0.00     0.251 C 
HETATM    8  N   UNK N   1      19.072  16.526   4.043  0.00  0.00    -0.351 N 
HETATM    9  H   UNK N   1      18.335  17.095   3.726  0.00  0.00     0.163 HD
HETATM   10  O   UNK N   1      17.791  15.859   5.734  0.00  0.00    -0.268 OA
BRANCH   8  11
HETATM   11  C   UNK N   1      20.266  16.444   3.230  0.00  0.00     0.179 C 
BRANCH  11  12
HETATM   12  C   UNK N   1      20.900  17.773   2.993  0.00  0.00     0.026 A 
HETATM   13  N   UNK N   1      22.005  18.144   3.696  0.00  0.00    -0.368 N 
HETATM   14  C   UNK N   1      22.556  19.381   3.550  0.00  0.00     0.088 A 
ATOM     15  HN  UNK N   1      22.432  17.481   4.344  1.00  0.00     0.165 HD
HETATM   16  C   UNK N   1      21.983  20.307   2.675  0.00  0.00     0.017 A 
HETATM   17  C   UNK N   1      20.847  19.947   1.949  0.00  0.00     0.003 A 
HETATM   18  C   UNK N   1      20.297  18.674   2.111  0.00  0.00     0.027 A 
ENDBRANCH  11  12
ENDBRANCH   8  11
ENDBRANCH   1   7
BRANCH   4  19
HETATM   19  O   UNK N   1      23.006  13.031   7.953  0.00  0.00    -0.311 OA
BRANCH  19  20
HETATM   20  C   UNK N   1      23.039  12.681   9.274  0.00  0.00     0.076 A 
HETATM   21  C   UNK N   1      24.282  12.461   9.879  0.00  0.00     0.037 A 
HETATM   22  C   UNK N   1      24.361  12.085  11.224  0.00  0.00     0.003 A 
HETATM   23  C   UNK N   1      23.195  11.923  11.977  0.00  0.00     0.000 A 
HETATM   24  C   UNK N   1      21.949  12.137  11.387  0.00  0.00     0.003 A 
HETATM   25  C   UNK N   1      21.872  12.513  10.045  0.00  0.00     0.037 A 
ENDBRANCH  19  20
ENDBRANCH   4  19
TORSDOF 5
ENDMDL
MODEL 5
REMARK VINA RESULT:      -7.2      3.311      8.730
REMARK  5 active torsions:
REMARK  status: ('A' for Active; 'I' for Inactive)
REMARK    1  A    between atoms: C_3  and  C_8 
REMARK    2  A    between atoms: C_8  and  N_9 
REMARK       I    between atoms: N_9  and  C_10 
REMARK    3  A    between atoms: C_10  and  C_11 
REMARK    4  A    between atoms: C_14  and  O_17 
REMARK    5  A    between atoms: O_17  and  C_18 
ROOT
HETATM    1  C   UNK N   1      29.628  17.757   8.239  0.00  0.00     0.032 A 
HETATM    2  C   UNK N   1      30.727  18.317   8.914  0.00  0.00     0.020 A 
HETATM    3  C   UNK N   1      32.030  18.126   8.432  0.00  0.00     0.038 A 
HETATM    4  C   UNK N   1      32.251  17.394   7.257  0.00  0.00     0.076 A 
HETATM    5  C   UNK N   1      31.151  16.845   6.588  0.00  0.00     0.038 A 
HETATM    6  C   UNK N   1      29.862  17.021   7.074  0.00  0.00     0.020 A 
ENDROOT
BRANCH   1   7
HETATM    7  C   UNK N   1      28.235  17.987   8.734  0.00  0.00     0.251 C 
HETATM    8  N   UNK N   1      27.467  19.044   8.340  0.00  0.00    -0.351 N 
HETATM    9  H   UNK N   1      26.618  19.199   8.814  0.00  0.00     0.163 HD
HETATM   10  O   UNK N   1      27.757  17.185   9.525  0.00  0.00    -0.268 OA
BRANCH   8  11
HETATM   11  C   UNK N   1      27.821  19.950   7.268  0.00  0.00     0.179 C 
BRANCH  11  12
HETATM   12  C   UNK N   1      27.104  19.653   5.995  0.00  0.00     0.026 A 
HETATM   13  N   UNK N   1      26.379  18.508   5.864  0.00  0.00    -0.368 N 
HETATM   14  C   UNK N   1      25.779  18.180   4.686  0.00  0.00     0.088 A 
ATOM     15  HN  UNK N   1      26.282  17.884   6.664  1.00  0.00     0.165 HD
HETATM   16  C   UNK N   1      25.908  19.017   3.575  0.00  0.00     0.017 A 
HETATM   17  C   UNK N   1      26.651  20.193   3.688  0.00  0.00     0.003 A 
HETATM   18  C   UNK N   1      27.257  20.512   4.903  0.00  0.00     0.027 A 
ENDBRANCH  11  12
ENDBRANCH   8  11
ENDBRANCH   1   7
BRANCH   4  19
HETATM   19  O   UNK N   1      33.526  17.242   6.797  0.00  0.00    -0.311 OA
BRANCH  19  20
HETATM   20  C   UNK N   1      34.374  16.189   6.996  0.00  0.00     0.076 A 
HETATM   21  C   UNK N   1      34.911  15.540   5.877  0.00  0.00     0.037 A 
HETATM   22  C   UNK N   1      35.770  14.447   6.034  0.00  0.00     0.003 A 
HETATM   23  C   UNK N   1      36.098  13.990   7.314  0.00  0.00     0.000 A 
HETATM   24  C   UNK N   1      35.569  14.627   8.437  0.00  0.00     0.003 A 
HETATM   25  C   UNK N   1      34.712  15.717   8.279  0.00  0.00     0.037 A 
ENDBRANCH  19  20
ENDBRANCH   4  19
TORSDOF 5
ENDMDL
MODEL 6
REMARK VINA RESULT:      -7.2     12.982     17.107
REMARK  5 active torsions:
REMARK  status: ('A' for Active; 'I' for Inactive)
REMARK    1  A    between atoms: C_3  and  C_8 
REMARK    2  A    between atoms: C_8  and  N_9 
REMARK       I    between atoms: N_9  and  C_10 
REMARK    3  A    between atoms: C_10  and  C_11 
REMARK    4  A    between atoms: C_14  and  O_17 
REMARK    5  A    between atoms: O_17  and  C_18 
ROOT
HETATM    1  C   UNK N   1      27.802  24.779  -3.332  0.00  0.00     0.032 A 
HETATM    2  C   UNK N   1      27.706  23.692  -2.447  0.00  0.00     0.020 A 
HETATM    3  C   UNK N   1      28.843  22.939  -2.118  0.00  0.00     0.038 A 
HETATM    4  C   UNK N   1      30.095  23.277  -2.651  0.00  0.00     0.076 A 
HETATM    5  C   UNK N   1      30.182  24.364  -3.528  0.00  0.00     0.038 A 
HETATM    6  C   UNK N   1      29.054  25.099  -3.865  0.00  0.00     0.020 A 
ENDROOT
BRANCH   1   7
HETATM    7  C   UNK N   1      26.596  25.602  -3.658  0.00  0.00     0.251 C 
HETATM    8  N   UNK N   1      25.852  25.424  -4.789  0.00  0.00    -0.351 N 
HETATM    9  H   UNK N   1      25.161  26.094  -4.996  0.00  0.00     0.163 HD
HETATM   10  O   UNK N   1      26.254  26.473  -2.870  0.00  0.00    -0.268 OA
BRANCH   8  11
HETATM   11  C   UNK N   1      26.016  24.313  -5.701  0.00  0.00     0.179 C 
BRANCH  11  12
HETATM   12  C   UNK N   1      25.860  24.706  -7.130  0.00  0.00     0.026 A 
HETATM   13  N   UNK N   1      25.293  23.848  -8.022  0.00  0.00    -0.368 N 
HETATM   14  C   UNK N   1      25.209  24.156  -9.346  0.00  0.00     0.088 A 
ATOM     15  HN  UNK N   1      24.922  22.957  -7.693  1.00  0.00     0.165 HD
HETATM   16  C   UNK N   1      25.719  25.367  -9.820  0.00  0.00     0.017 A 
HETATM   17  C   UNK N   1      26.308  26.258  -8.922  0.00  0.00     0.003 A 
HETATM   18  C   UNK N   1      26.384  25.925  -7.569  0.00  0.00     0.027 A 
ENDBRANCH  11  12
ENDBRANCH   8  11
ENDBRANCH   1   7
BRANCH   4  19
HETATM   19  O   UNK N   1      31.188  22.543  -2.298  0.00  0.00    -0.311 OA
BRANCH  19  20
HETATM   20  C   UNK N   1      31.818  21.568  -3.020  0.00  0.00     0.076 A 
HETATM   21  C   UNK N   1      33.171  21.312  -2.763  0.00  0.00     0.037 A 
HETATM   22  C   UNK N   1      33.860  20.336  -3.490  0.00  0.00     0.003 A 
HETATM   23  C   UNK N   1      33.202  19.606  -4.484  0.00  0.00     0.000 A 
HETATM   24  C   UNK N   1      31.855  19.852  -4.751  0.00  0.00     0.003 A 
HETATM   25  C   UNK N   1      31.169  20.826  -4.025  0.00  0.00     0.037 A 
ENDBRANCH  19  20
ENDBRANCH   4  19
TORSDOF 5
ENDMDL
MODEL 7
REMARK VINA RESULT:      -7.0      3.157      5.360
REMARK  5 active torsions:
REMARK  status: ('A' for Active; 'I' for Inactive)
REMARK    1  A    between atoms: C_3  and  C_8 
REMARK    2  A    between atoms: C_8  and  N_9 
REMARK       I    between atoms: N_9  and  C_10 
REMARK    3  A    between atoms: C_10  and  C_11 
REMARK    4  A    between atoms: C_14  and  O_17 
REMARK    5  A    between atoms: O_17  and  C_18 
ROOT
HETATM    1  C   UNK N   1      36.019  14.472  10.665  0.00  0.00     0.032 A 
HETATM    2  C   UNK N   1      36.104  15.875  10.698  0.00  0.00     0.020 A 
HETATM    3  C   UNK N   1      35.107  16.662  10.103  0.00  0.00     0.038 A 
HETATM    4  C   UNK N   1      34.000  16.059   9.489  0.00  0.00     0.076 A 
HETATM    5  C   UNK N   1      33.921  14.662   9.466  0.00  0.00     0.038 A 
HETATM    6  C   UNK N   1      34.915  13.883  10.041  0.00  0.00     0.020 A 
ENDROOT
BRANCH   1   7
HETATM    7  C   UNK N   1      37.064  13.632  11.327  0.00  0.00     0.251 C 
HETATM    8  N   UNK N   1      37.129  13.445  12.678  0.00  0.00    -0.351 N 
HETATM    9  H   UNK N   1      37.924  12.994  13.043  0.00  0.00     0.163 HD
HETATM   10  O   UNK N   1      37.899  13.078  10.624  0.00  0.00    -0.268 OA
BRANCH   8  11
HETATM   11  C   UNK N   1      36.102  13.868  13.605  0.00  0.00     0.179 C 
BRANCH  11  12
HETATM   12  C   UNK N   1      35.404  12.725  14.260  0.00  0.00     0.026 A 
HETATM   13  N   UNK N   1      35.667  12.410  15.558  0.00  0.00    -0.368 N 
HETATM   14  C   UNK N   1      35.098  11.325  16.153  0.00  0.00     0.088 A 
ATOM     15  HN  UNK N   1      36.303  12.998  16.096  1.00  0.00     0.165 HD
HETATM   16  C   UNK N   1      34.232  10.500  15.431  0.00  0.00     0.017 A 
HETATM   17  C   UNK N   1      33.953  10.804  14.098  0.00  0.00     0.003 A 
HETATM   18  C   UNK N   1      34.545  11.920  13.506  0.00  0.00     0.027 A 
ENDBRANCH  11  12
ENDBRANCH   8  11
ENDBRANCH   1   7
BRANCH   4  19
HETATM   19  O   UNK N   1      33.034  16.848   8.938  0.00  0.00    -0.311 OA
BRANCH  19  20
HETATM   20  C   UNK N   1      32.727  17.006   7.615  0.00  0.00     0.076 A 
HETATM   21  C   UNK N   1      33.761  17.296   6.717  0.00  0.00     0.037 A 
HETATM   22  C   UNK N   1      33.490  17.482   5.357  0.00  0.00     0.003 A 
HETATM   23  C   UNK N   1      32.179  17.382   4.883  0.00  0.00     0.000 A 
HETATM   24  C   UNK N   1      31.139  17.095   5.767  0.00  0.00     0.003 A 
HETATM   25  C   UNK N   1      31.411  16.910   7.123  0.00  0.00     0.037 A 
ENDBRANCH  19  20
ENDBRANCH   4  19
TORSDOF 5
ENDMDL
MODEL 8
REMARK VINA RESULT:      -6.8     14.171     16.753
REMARK  5 active torsions:
REMARK  status: ('A' for Active; 'I' for Inactive)
REMARK    1  A    between atoms: C_3  and  C_8 
REMARK    2  A    between atoms: C_8  and  N_9 
REMARK       I    between atoms: N_9  and  C_10 
REMARK    3  A    between atoms: C_10  and  C_11 
REMARK    4  A    between atoms: C_14  and  O_17 
REMARK    5  A    between atoms: O_17  and  C_18 
ROOT
HETATM    1  C   UNK N   1      25.962  24.467  -5.701  0.00  0.00     0.032 A 
HETATM    2  C   UNK N   1      26.348  24.556  -4.353  0.00  0.00     0.020 A 
HETATM    3  C   UNK N   1      26.313  25.788  -3.682  0.00  0.00     0.038 A 
HETATM    4  C   UNK N   1      25.868  26.942  -4.342  0.00  0.00     0.076 A 
HETATM    5  C   UNK N   1      25.480  26.843  -5.683  0.00  0.00     0.038 A 
HETATM    6  C   UNK N   1      25.530  25.627  -6.351  0.00  0.00     0.020 A 
ENDROOT
BRANCH   1   7
HETATM    7  C   UNK N   1      25.968  23.149  -6.407  0.00  0.00     0.251 C 
HETATM    8  N   UNK N   1      27.085  22.613  -6.979  0.00  0.00    -0.351 N 
HETATM    9  H   UNK N   1      26.976  21.812  -7.542  0.00  0.00     0.163 HD
HETATM   10  O   UNK N   1      24.923  22.515  -6.469  0.00  0.00    -0.268 OA
BRANCH   8  11
HETATM   11  C   UNK N   1      28.419  23.147  -6.811  0.00  0.00     0.179 C 
BRANCH  11  12
HETATM   12  C   UNK N   1      29.254  22.340  -5.876  0.00  0.00     0.026 A 
HETATM   13  N   UNK N   1      29.458  22.760  -4.597  0.00  0.00    -0.368 N 
HETATM   14  C   UNK N   1      30.278  22.079  -3.750  0.00  0.00     0.088 A 
ATOM     15  HN  UNK N   1      28.986  23.601  -4.266  1.00  0.00     0.165 HD
HETATM   16  C   UNK N   1      30.941  20.929  -4.186  0.00  0.00     0.017 A 
HETATM   17  C   UNK N   1      30.749  20.485  -5.494  0.00  0.00     0.003 A 
HETATM   18  C   UNK N   1      29.904  21.196  -6.348  0.00  0.00     0.027 A 
ENDBRANCH  11  12
ENDBRANCH   8  11
ENDBRANCH   1   7
BRANCH   4  19
HETATM   19  O   UNK N   1      25.822  28.122  -3.661  0.00  0.00    -0.311 OA
BRANCH  19  20
HETATM   20  C   UNK N   1      26.786  29.087  -3.581  0.00  0.00     0.076 A 
HETATM   21  C   UNK N   1      27.614  29.117  -2.451  0.00  0.00     0.037 A 
HETATM   22  C   UNK N   1      28.602  30.098  -2.320  0.00  0.00     0.003 A 
HETATM   23  C   UNK N   1      28.772  31.062  -3.318  0.00  0.00     0.000 A 
HETATM   24  C   UNK N   1      27.953  31.045  -4.448  0.00  0.00     0.003 A 
HETATM   25  C   UNK N   1      26.967  30.066  -4.577  0.00  0.00     0.037 A 
ENDBRANCH  19  20
ENDBRANCH   4  19
TORSDOF 5
ENDMDL
MODEL 9
REMARK VINA RESULT:      -6.7      8.637     12.522
REMARK  5 active torsions:
REMARK  status: ('A' for Active; 'I' for Inactive)
REMARK    1  A    between atoms: C_3  and  C_8 
REMARK    2  A    between atoms: C_8  and  N_9 
REMARK       I    between atoms: N_9  and  C_10 
REMARK    3  A    between atoms: C_10  and  C_11 
REMARK    4  A    between atoms: C_14  and  O_17 
REMARK    5  A    between atoms: O_17  and  C_18 
ROOT
HETATM    1  C   UNK N   1      36.423  13.247  15.721  0.00  0.00     0.032 A 
HETATM    2  C   UNK N   1      35.411  13.284  16.695  0.00  0.00     0.020 A 
HETATM    3  C   UNK N   1      34.925  12.097  17.262  0.00  0.00     0.038 A 
HETATM    4  C   UNK N   1      35.461  10.858  16.881  0.00  0.00     0.076 A 
HETATM    5  C   UNK N   1      36.472  10.831  15.914  0.00  0.00     0.038 A 
HETATM    6  C   UNK N   1      36.942  12.005  15.342  0.00  0.00     0.020 A 
ENDROOT
BRANCH   1   7
HETATM    7  C   UNK N   1      36.964  14.514  15.139  0.00  0.00     0.251 C 
HETATM    8  N   UNK N   1      36.761  14.888  13.843  0.00  0.00    -0.351 N 
HETATM    9  H   UNK N   1      37.263  15.663  13.502  0.00  0.00     0.163 HD
HETATM   10  O   UNK N   1      37.615  15.257  15.862  0.00  0.00    -0.268 OA
BRANCH   8  11
HETATM   11  C   UNK N   1      35.852  14.218  12.938  0.00  0.00     0.179 C 
BRANCH  11  12
HETATM   12  C   UNK N   1      36.536  13.238  12.046  0.00  0.00     0.026 A 
HETATM   13  N   UNK N   1      37.690  13.576  11.410  0.00  0.00    -0.368 N 
HETATM   14  C   UNK N   1      38.292  12.725  10.533  0.00  0.00     0.088 A 
ATOM     15  HN  UNK N   1      38.116  14.485  11.594  1.00  0.00     0.165 HD
HETATM   16  C   UNK N   1      37.721  11.479  10.259  0.00  0.00     0.017 A 
HETATM   17  C   UNK N   1      36.535  11.116  10.899  0.00  0.00     0.003 A 
HETATM   18  C   UNK N   1      35.934  12.002  11.794  0.00  0.00     0.027 A 
ENDBRANCH  11  12
ENDBRANCH   8  11
ENDBRANCH   1   7
BRANCH   4  19
HETATM   19  O   UNK N   1      34.987   9.721  17.465  0.00  0.00    -0.311 OA
BRANCH  19  20
HETATM   20  C   UNK N   1      34.700   9.506  18.783  0.00  0.00     0.076 A 
HETATM   21  C   UNK N   1      33.486   8.893  19.115  0.00  0.00     0.037 A 
HETATM   22  C   UNK N   1      33.145   8.669  20.453  0.00  0.00     0.003 A 
HETATM   23  C   UNK N   1      34.016   9.059  21.474  0.00  0.00     0.000 A 
HETATM   24  C   UNK N   1      35.228   9.672  21.158  0.00  0.00     0.003 A 
HETATM   25  C   UNK N   1      35.567   9.895  19.823  0.00  0.00     0.037 A 
ENDBRANCH  19  20
ENDBRANCH   4  19
TORSDOF 5
ENDMDL
