REMARK  6 active torsions:
REMARK  status: ('A' for Active; 'I' for Inactive)
REMARK    1  A    between atoms: N_6  and  C_7 
REMARK    2  A    between atoms: C_9  and  O_10 
REMARK    3  A    between atoms: C_14  and  N_15 
REMARK       I    between atoms: N_15  and  C_16 
REMARK    4  A    between atoms: C_24  and  N_25 
REMARK    5  A    between atoms: N_25  and  C_26 
REMARK    6  A    between atoms: C_31  and  C_32 
REMARK       I    between atoms: C_32  and  N_34 
ROOT
HETATM    1  N   UNK N   1       4.880  -0.204  -0.101  0.00  0.00    -0.189 N 
HETATM    2  C   UNK N   1       4.870   1.220  -0.078  0.00  0.00     0.684 A 
HETATM    3  N   UNK N   1       3.679   1.861  -0.066  0.00  0.00    -0.175 N 
ATOM      4  HN  UNK N   1       2.822   1.308  -0.084  1.00  0.00     0.186 HD
HETATM    5  N   UNK N   1       6.021   1.942  -0.054  0.00  0.00    -0.200 N 
ATOM      6  HN  UNK N   1       6.919   1.459  -0.059  1.00  0.00     0.183 HD
HETATM    7  C   UNK N   1       5.991   3.299  -0.024  0.00  0.00     0.133 A 
HETATM    8  C   UNK N   1       4.770   3.973  -0.012  0.00  0.00     0.094 A 
HETATM    9 Cl   UNK N   1       4.783   5.724   0.030  0.00  0.00    -0.079 Cl
HETATM   10  C   UNK N   1       3.585   3.217  -0.032  0.00  0.00     0.144 A 
HETATM   11  H   UNK N   1       4.007  -0.654  -0.162  0.00  0.00     0.184 HD
ENDROOT
BRANCH   1  12
HETATM   12  C   UNK N   1       6.030  -1.040  -0.046  0.00  0.00     0.082 A 
HETATM   13  C   UNK N   1       5.903  -2.459  -0.011  0.00  0.00     0.097 A 
HETATM   14  C   UNK N   1       7.064  -3.242   0.078  0.00  0.00     0.068 A 
HETATM   15  C   UNK N   1       8.338  -2.653   0.138  0.00  0.00     0.033 A 
HETATM   16  C   UNK N   1       8.444  -1.262   0.090  0.00  0.00     0.032 A 
HETATM   17  C   UNK N   1       7.309  -0.471  -0.004  0.00  0.00     0.035 A 
BRANCH  13  18
HETATM   18  O   UNK N   1       4.710  -3.114  -0.039  0.00  0.00    -0.354 OA
HETATM   19  C   UNK N   1       3.464  -2.530  -0.075  0.00  0.00     0.210 C 
ENDBRANCH  13  18
BRANCH  15  20
HETATM   20  N   UNK N   1       9.509  -3.449   0.310  0.00  0.00    -0.377 N 
HETATM   21  C   UNK N   1      10.807  -2.825   0.483  0.00  0.00     0.149 C 
HETATM   22  C   UNK N   1      11.812  -3.555  -0.404  0.00  0.00     0.187 C 
HETATM   23  O   UNK N   1      11.807  -4.923  -0.071  0.00  0.00    -0.388 OA
HETATM   24  C   UNK N   1      10.578  -5.445  -0.524  0.00  0.00     0.187 C 
HETATM   25  C   UNK N   1       9.442  -4.896   0.343  0.00  0.00     0.149 C 
ENDBRANCH  15  20
ENDBRANCH   1  12
BRANCH  10  26
HETATM   26  N   UNK N   1       2.299   3.854  -0.014  0.00  0.00    -0.340 N 
HETATM   27  H   UNK N   1       2.283   4.838  -0.014  0.00  0.00     0.167 HD
BRANCH  26  28
HETATM   28  C   UNK N   1       1.038   3.178   0.002  0.00  0.00     0.049 A 
HETATM   29  C   UNK N   1       1.034   1.768   0.018  0.00  0.00     0.030 A 
HETATM   30  C   UNK N   1      -0.134   1.022   0.027  0.00  0.00     0.002 A 
HETATM   31  C   UNK N   1      -1.352   1.670   0.020  0.00  0.00     0.001 A 
HETATM   32  C   UNK N   1      -1.393   3.059   0.006  0.00  0.00     0.019 A 
HETATM   33  C   UNK N   1      -0.232   3.867  -0.001  0.00  0.00     0.058 A 
BRANCH  33  34
HETATM   34  C   UNK N   1      -0.547   5.363  -0.017  0.00  0.00     0.253 C 
HETATM   35  O   UNK N   1      -1.732   5.664  -0.052  0.00  0.00    -0.268 OA
HETATM   36  N   UNK N   1       0.328   6.405   0.007  0.00  0.00    -0.361 N 
HETATM   37  C   UNK N   1       1.752   6.390   0.070  0.00  0.00     0.149 C 
HETATM   38  H   UNK N   1      -0.083   7.299  -0.023  0.00  0.00     0.162 HD
ENDBRANCH  33  34
ENDBRANCH  26  28
ENDBRANCH  10  26
TORSDOF 6
