MODEL 1
REMARK VINA RESULT:      -8.3      0.000      0.000
REMARK  6 active torsions:
REMARK  status: ('A' for Active; 'I' for Inactive)
REMARK    1  A    between atoms: N_6  and  C_7 
REMARK    2  A    between atoms: C_9  and  O_10 
REMARK    3  A    between atoms: C_14  and  N_15 
REMARK       I    between atoms: N_15  and  C_16 
REMARK    4  A    between atoms: C_24  and  N_25 
REMARK    5  A    between atoms: N_25  and  C_26 
REMARK    6  A    between atoms: C_31  and  C_32 
REMARK       I    between atoms: C_32  and  N_34 
ROOT
HETATM    1  N   UNK N   1      26.954  17.016   6.381  0.00  0.00    -0.189 N 
HETATM    2  C   UNK N   1      26.264  17.893   5.497  0.00  0.00     0.684 A 
HETATM    3  N   UNK N   1      24.912  17.853   5.467  0.00  0.00    -0.175 N 
ATOM      4  HN  UNK N   1      24.425  17.190   6.070  1.00  0.00     0.186 HD
HETATM    5  N   UNK N   1      26.927  18.771   4.699  0.00  0.00    -0.200 N 
ATOM      6  HN  UNK N   1      27.946  18.804   4.724  1.00  0.00     0.183 HD
HETATM    7  C   UNK N   1      26.250  19.604   3.868  0.00  0.00     0.133 A 
HETATM    8  C   UNK N   1      24.857  19.573   3.826  0.00  0.00     0.094 A 
HETATM    9 Cl   UNK N   1      24.029  20.670   2.740  0.00  0.00    -0.079 Cl
HETATM   10  C   UNK N   1      24.180  18.665   4.659  0.00  0.00     0.144 A 
HETATM   11  H   UNK N   1      26.406  16.379   6.894  0.00  0.00     0.184 HD
ENDROOT
BRANCH   1  12
HETATM   12  C   UNK N   1      28.360  16.970   6.595  0.00  0.00     0.082 A 
HETATM   13  C   UNK N   1      29.213  16.253   5.707  0.00  0.00     0.097 A 
HETATM   14  C   UNK N   1      30.589  16.206   5.977  0.00  0.00     0.068 A 
HETATM   15  C   UNK N   1      31.133  16.846   7.103  0.00  0.00     0.033 A 
HETATM   16  C   UNK N   1      30.284  17.554   7.956  0.00  0.00     0.032 A 
HETATM   17  C   UNK N   1      28.922  17.617   7.703  0.00  0.00     0.035 A 
BRANCH  13  18
HETATM   18  O   UNK N   1      28.771  15.584   4.607  0.00  0.00    -0.354 OA
HETATM   19  C   UNK N   1      28.836  16.029   3.305  0.00  0.00     0.210 C 
ENDBRANCH  13  18
BRANCH  15  20
HETATM   20  N   UNK N   1      32.519  16.728   7.418  0.00  0.00    -0.377 N 
HETATM   21  C   UNK N   1      32.996  15.645   8.257  0.00  0.00     0.149 C 
HETATM   22  C   UNK N   1      33.972  16.223   9.279  0.00  0.00     0.187 C 
HETATM   23  O   UNK N   1      35.006  16.892   8.596  0.00  0.00    -0.388 OA
HETATM   24  C   UNK N   1      34.437  18.055   8.038  0.00  0.00     0.187 C 
HETATM   25  C   UNK N   1      33.496  17.663   6.896  0.00  0.00     0.149 C 
ENDBRANCH  15  20
ENDBRANCH   1  12
BRANCH  10  26
HETATM   26  N   UNK N   1      22.746  18.592   4.665  0.00  0.00    -0.340 N 
HETATM   27  H   UNK N   1      22.277  18.999   5.429  0.00  0.00     0.167 HD
BRANCH  26  28
HETATM   28  C   UNK N   1      21.942  17.979   3.653  0.00  0.00     0.049 A 
HETATM   29  C   UNK N   1      22.110  16.600   3.409  0.00  0.00     0.030 A 
HETATM   30  C   UNK N   1      21.384  15.916   2.446  0.00  0.00     0.002 A 
HETATM   31  C   UNK N   1      20.455  16.597   1.687  0.00  0.00     0.001 A 
HETATM   32  C   UNK N   1      20.257  17.957   1.897  0.00  0.00     0.019 A 
HETATM   33  C   UNK N   1      20.969  18.701   2.867  0.00  0.00     0.058 A 
BRANCH  33  34
HETATM   34  C   UNK N   1      20.567  20.176   2.899  0.00  0.00     0.253 C 
HETATM   35  O   UNK N   1      20.213  20.615   3.984  0.00  0.00    -0.268 OA
HETATM   36  N   UNK N   1      20.558  21.065   1.869  0.00  0.00    -0.361 N 
HETATM   37  C   UNK N   1      20.929  20.876   0.506  0.00  0.00     0.149 C 
HETATM   38  H   UNK N   1      20.250  21.972   2.100  0.00  0.00     0.162 HD
ENDBRANCH  33  34
ENDBRANCH  26  28
ENDBRANCH  10  26
TORSDOF 6
ENDMDL
MODEL 2
REMARK VINA RESULT:      -8.2      1.282      2.016
REMARK  6 active torsions:
REMARK  status: ('A' for Active; 'I' for Inactive)
REMARK    1  A    between atoms: N_6  and  C_7 
REMARK    2  A    between atoms: C_9  and  O_10 
REMARK    3  A    between atoms: C_14  and  N_15 
REMARK       I    between atoms: N_15  and  C_16 
REMARK    4  A    between atoms: C_24  and  N_25 
REMARK    5  A    between atoms: N_25  and  C_26 
REMARK    6  A    between atoms: C_31  and  C_32 
REMARK       I    between atoms: C_32  and  N_34 
ROOT
HETATM    1  N   UNK N   1      27.199  16.758   6.048  0.00  0.00    -0.189 N 
HETATM    2  C   UNK N   1      26.490  17.699   5.247  0.00  0.00     0.684 A 
HETATM    3  N   UNK N   1      25.139  17.708   5.300  0.00  0.00    -0.175 N 
ATOM      4  HN  UNK N   1      24.665  17.036   5.903  1.00  0.00     0.186 HD
HETATM    5  N   UNK N   1      27.137  18.588   4.449  0.00  0.00    -0.200 N 
ATOM      6  HN  UNK N   1      28.156  18.584   4.412  1.00  0.00     0.183 HD
HETATM    7  C   UNK N   1      26.443  19.482   3.698  0.00  0.00     0.133 A 
HETATM    8  C   UNK N   1      25.050  19.502   3.743  0.00  0.00     0.094 A 
HETATM    9 Cl   UNK N   1      24.200  20.677   2.759  0.00  0.00    -0.079 Cl
HETATM   10  C   UNK N   1      24.390  18.582   4.576  0.00  0.00     0.144 A 
HETATM   11  H   UNK N   1      26.660  16.119   6.566  0.00  0.00     0.184 HD
ENDROOT
BRANCH   1  12
HETATM   12  C   UNK N   1      28.613  16.653   6.172  0.00  0.00     0.082 A 
HETATM   13  C   UNK N   1      29.325  17.433   7.128  0.00  0.00     0.097 A 
HETATM   14  C   UNK N   1      30.722  17.321   7.190  0.00  0.00     0.068 A 
HETATM   15  C   UNK N   1      31.424  16.462   6.328  0.00  0.00     0.033 A 
HETATM   16  C   UNK N   1      30.709  15.696   5.406  0.00  0.00     0.032 A 
HETATM   17  C   UNK N   1      29.327  15.788   5.333  0.00  0.00     0.035 A 
BRANCH  13  18
HETATM   18  O   UNK N   1      28.731  18.308   7.986  0.00  0.00    -0.354 OA
HETATM   19  C   UNK N   1      28.635  18.168   9.352  0.00  0.00     0.210 C 
ENDBRANCH  13  18
BRANCH  15  20
HETATM   20  N   UNK N   1      32.849  16.412   6.339  0.00  0.00    -0.377 N 
HETATM   21  C   UNK N   1      33.596  16.354   5.097  0.00  0.00     0.149 C 
HETATM   22  C   UNK N   1      34.684  15.293   5.240  0.00  0.00     0.187 C 
HETATM   23  O   UNK N   1      35.486  15.607   6.354  0.00  0.00    -0.388 OA
HETATM   24  C   UNK N   1      34.695  15.378   7.499  0.00  0.00     0.187 C 
HETATM   25  C   UNK N   1      33.597  16.441   7.580  0.00  0.00     0.149 C 
ENDBRANCH  15  20
ENDBRANCH   1  12
BRANCH  10  26
HETATM   26  N   UNK N   1      22.958  18.560   4.668  0.00  0.00    -0.340 N 
HETATM   27  H   UNK N   1      22.549  19.011   5.441  0.00  0.00     0.167 HD
BRANCH  26  28
HETATM   28  C   UNK N   1      22.075  17.937   3.730  0.00  0.00     0.049 A 
HETATM   29  C   UNK N   1      22.208  16.552   3.502  0.00  0.00     0.030 A 
HETATM   30  C   UNK N   1      21.407  15.859   2.609  0.00  0.00     0.002 A 
HETATM   31  C   UNK N   1      20.434  16.538   1.904  0.00  0.00     0.001 A 
HETATM   32  C   UNK N   1      20.268  17.903   2.100  0.00  0.00     0.019 A 
HETATM   33  C   UNK N   1      21.056  18.657   3.000  0.00  0.00     0.058 A 
BRANCH  33  34
HETATM   34  C   UNK N   1      20.676  20.137   3.031  0.00  0.00     0.253 C 
HETATM   35  O   UNK N   1      20.372  20.593   4.124  0.00  0.00    -0.268 OA
HETATM   36  N   UNK N   1      20.638  21.015   1.992  0.00  0.00    -0.361 N 
HETATM   37  C   UNK N   1      20.953  20.806   0.617  0.00  0.00     0.149 C 
HETATM   38  H   UNK N   1      20.352  21.928   2.224  0.00  0.00     0.162 HD
ENDBRANCH  33  34
ENDBRANCH  26  28
ENDBRANCH  10  26
TORSDOF 6
ENDMDL
MODEL 3
REMARK VINA RESULT:      -8.0      5.461     12.682
REMARK  6 active torsions:
REMARK  status: ('A' for Active; 'I' for Inactive)
REMARK    1  A    between atoms: N_6  and  C_7 
REMARK    2  A    between atoms: C_9  and  O_10 
REMARK    3  A    between atoms: C_14  and  N_15 
REMARK       I    between atoms: N_15  and  C_16 
REMARK    4  A    between atoms: C_24  and  N_25 
REMARK    5  A    between atoms: N_25  and  C_26 
REMARK    6  A    between atoms: C_31  and  C_32 
REMARK       I    between atoms: C_32  and  N_34 
ROOT
HETATM    1  N   UNK N   1      32.249  15.886   9.437  0.00  0.00    -0.189 N 
HETATM    2  C   UNK N   1      32.822  14.611   9.167  0.00  0.00     0.684 A 
HETATM    3  N   UNK N   1      33.709  14.097  10.050  0.00  0.00    -0.175 N 
ATOM      4  HN  UNK N   1      33.949  14.641  10.879  1.00  0.00     0.186 HD
HETATM    5  N   UNK N   1      32.490  13.899   8.058  0.00  0.00    -0.200 N 
ATOM      6  HN  UNK N   1      31.819  14.284   7.394  1.00  0.00     0.183 HD
HETATM    7  C   UNK N   1      33.042  12.681   7.822  0.00  0.00     0.133 A 
HETATM    8  C   UNK N   1      33.958  12.139   8.724  0.00  0.00     0.094 A 
HETATM    9 Cl   UNK N   1      34.639  10.563   8.377  0.00  0.00    -0.079 Cl
HETATM   10  C   UNK N   1      34.291  12.881   9.870  0.00  0.00     0.144 A 
HETATM   11  H   UNK N   1      32.572  16.359  10.237  0.00  0.00     0.184 HD
ENDROOT
BRANCH   1  12
HETATM   12  C   UNK N   1      31.254  16.544   8.661  0.00  0.00     0.082 A 
HETATM   13  C   UNK N   1      31.472  16.831   7.282  0.00  0.00     0.097 A 
HETATM   14  C   UNK N   1      30.476  17.513   6.566  0.00  0.00     0.068 A 
HETATM   15  C   UNK N   1      29.282  17.919   7.184  0.00  0.00     0.033 A 
HETATM   16  C   UNK N   1      29.080  17.618   8.532  0.00  0.00     0.032 A 
HETATM   17  C   UNK N   1      30.049  16.940   9.255  0.00  0.00     0.035 A 
BRANCH  13  18
HETATM   18  O   UNK N   1      32.607  16.499   6.609  0.00  0.00    -0.354 OA
HETATM   19  C   UNK N   1      33.515  17.379   6.064  0.00  0.00     0.210 C 
ENDBRANCH  13  18
BRANCH  15  20
HETATM   20  N   UNK N   1      28.308  18.682   6.473  0.00  0.00    -0.377 N 
HETATM   21  C   UNK N   1      27.999  18.378   5.089  0.00  0.00     0.149 C 
HETATM   22  C   UNK N   1      27.946  19.690   4.311  0.00  0.00     0.187 C 
HETATM   23  O   UNK N   1      27.003  20.543   4.914  0.00  0.00    -0.388 OA
HETATM   24  C   UNK N   1      27.556  20.951   6.146  0.00  0.00     0.187 C 
HETATM   25  C   UNK N   1      27.582  19.762   7.110  0.00  0.00     0.149 C 
ENDBRANCH  15  20
ENDBRANCH   1  12
BRANCH  10  26
HETATM   26  N   UNK N   1      35.221  12.373  10.837  0.00  0.00    -0.340 N 
HETATM   27  H   UNK N   1      36.139  12.194  10.530  0.00  0.00     0.167 HD
BRANCH  26  28
HETATM   28  C   UNK N   1      34.928  12.108  12.212  0.00  0.00     0.049 A 
HETATM   29  C   UNK N   1      34.270  10.903  12.536  0.00  0.00     0.030 A 
HETATM   30  C   UNK N   1      33.936  10.557  13.836  0.00  0.00     0.002 A 
HETATM   31  C   UNK N   1      34.252  11.417  14.868  0.00  0.00     0.001 A 
HETATM   32  C   UNK N   1      34.901  12.614  14.593  0.00  0.00     0.019 A 
HETATM   33  C   UNK N   1      35.267  13.013  13.286  0.00  0.00     0.058 A 
BRANCH  33  34
HETATM   34  C   UNK N   1      35.969  14.371  13.252  0.00  0.00     0.253 C 
HETATM   35  O   UNK N   1      35.799  15.040  12.242  0.00  0.00    -0.268 OA
HETATM   36  N   UNK N   1      36.758  14.932  14.208  0.00  0.00    -0.361 N 
HETATM   37  C   UNK N   1      37.127  14.426  15.488  0.00  0.00     0.149 C 
HETATM   38  H   UNK N   1      37.127  15.816  13.982  0.00  0.00     0.162 HD
ENDBRANCH  33  34
ENDBRANCH  26  28
ENDBRANCH  10  26
TORSDOF 6
ENDMDL
MODEL 4
REMARK VINA RESULT:      -7.9      7.076     14.517
REMARK  6 active torsions:
REMARK  status: ('A' for Active; 'I' for Inactive)
REMARK    1  A    between atoms: N_6  and  C_7 
REMARK    2  A    between atoms: C_9  and  O_10 
REMARK    3  A    between atoms: C_14  and  N_15 
REMARK       I    between atoms: N_15  and  C_16 
REMARK    4  A    between atoms: C_24  and  N_25 
REMARK    5  A    between atoms: N_25  and  C_26 
REMARK    6  A    between atoms: C_31  and  C_32 
REMARK       I    between atoms: C_32  and  N_34 
ROOT
HETATM    1  N   UNK N   1      34.545  15.659  11.059  0.00  0.00    -0.189 N 
HETATM    2  C   UNK N   1      35.298  14.531  11.493  0.00  0.00     0.684 A 
HETATM    3  N   UNK N   1      35.915  14.586  12.696  0.00  0.00    -0.175 N 
ATOM      4  HN  UNK N   1      35.831  15.436  13.254  1.00  0.00     0.186 HD
HETATM    5  N   UNK N   1      35.399  13.406  10.738  0.00  0.00    -0.200 N 
ATOM      6  HN  UNK N   1      34.932  13.363   9.833  1.00  0.00     0.183 HD
HETATM    7  C   UNK N   1      36.115  12.338  11.173  0.00  0.00     0.133 A 
HETATM    8  C   UNK N   1      36.756  12.380  12.411  0.00  0.00     0.094 A 
HETATM    9 Cl   UNK N   1      37.666  10.976  12.929  0.00  0.00    -0.079 Cl
HETATM   10  C   UNK N   1      36.642  13.547  13.187  0.00  0.00     0.144 A 
HETATM   11  H   UNK N   1      34.556  16.452  11.641  0.00  0.00     0.184 HD
ENDROOT
BRANCH   1  12
HETATM   12  C   UNK N   1      33.779  15.752   9.863  0.00  0.00     0.082 A 
HETATM   13  C   UNK N   1      34.004  16.804   8.929  0.00  0.00     0.097 A 
HETATM   14  C   UNK N   1      33.201  16.875   7.781  0.00  0.00     0.068 A 
HETATM   15  C   UNK N   1      32.184  15.936   7.543  0.00  0.00     0.033 A 
HETATM   16  C   UNK N   1      31.986  14.905   8.463  0.00  0.00     0.032 A 
HETATM   17  C   UNK N   1      32.773  14.814   9.601  0.00  0.00     0.035 A 
BRANCH  13  18
HETATM   18  O   UNK N   1      34.949  17.771   9.090  0.00  0.00    -0.354 OA
HETATM   19  C   UNK N   1      34.995  18.978   8.430  0.00  0.00     0.210 C 
ENDBRANCH  13  18
BRANCH  15  20
HETATM   20  N   UNK N   1      31.318  16.059   6.417  0.00  0.00    -0.377 N 
HETATM   21  C   UNK N   1      31.788  15.729   5.084  0.00  0.00     0.149 C 
HETATM   22  C   UNK N   1      31.332  16.830   4.130  0.00  0.00     0.187 C 
HETATM   23  O   UNK N   1      29.932  16.952   4.208  0.00  0.00    -0.388 OA
HETATM   24  C   UNK N   1      29.645  17.516   5.468  0.00  0.00     0.187 C 
HETATM   25  C   UNK N   1      29.942  16.489   6.564  0.00  0.00     0.149 C 
ENDBRANCH  15  20
ENDBRANCH   1  12
BRANCH  10  26
HETATM   26  N   UNK N   1      37.273  13.647  14.472  0.00  0.00    -0.340 N 
HETATM   27  H   UNK N   1      38.248  13.520  14.506  0.00  0.00     0.167 HD
BRANCH  26  28
HETATM   28  C   UNK N   1      36.603  13.919  15.707  0.00  0.00     0.049 A 
HETATM   29  C   UNK N   1      37.007  15.045  16.454  0.00  0.00     0.030 A 
HETATM   30  C   UNK N   1      36.426  15.389  17.664  0.00  0.00     0.002 A 
HETATM   31  C   UNK N   1      35.409  14.608  18.174  0.00  0.00     0.001 A 
HETATM   32  C   UNK N   1      34.980  13.490  17.468  0.00  0.00     0.019 A 
HETATM   33  C   UNK N   1      35.536  13.097  16.229  0.00  0.00     0.058 A 
BRANCH  33  34
HETATM   34  C   UNK N   1      34.890  11.834  15.659  0.00  0.00     0.253 C 
HETATM   35  O   UNK N   1      33.873  11.999  14.999  0.00  0.00    -0.268 OA
HETATM   36  N   UNK N   1      35.307  10.545  15.790  0.00  0.00    -0.361 N 
HETATM   37  C   UNK N   1      36.450  10.028  16.467  0.00  0.00     0.149 C 
HETATM   38  H   UNK N   1      34.737   9.873  15.353  0.00  0.00     0.162 HD
ENDBRANCH  33  34
ENDBRANCH  26  28
ENDBRANCH  10  26
TORSDOF 6
ENDMDL
MODEL 5
REMARK VINA RESULT:      -7.8      2.305      3.267
REMARK  6 active torsions:
REMARK  status: ('A' for Active; 'I' for Inactive)
REMARK    1  A    between atoms: N_6  and  C_7 
REMARK    2  A    between atoms: C_9  and  O_10 
REMARK    3  A    between atoms: C_14  and  N_15 
REMARK       I    between atoms: N_15  and  C_16 
REMARK    4  A    between atoms: C_24  and  N_25 
REMARK    5  A    between atoms: N_25  and  C_26 
REMARK    6  A    between atoms: C_31  and  C_32 
REMARK       I    between atoms: C_32  and  N_34 
ROOT
HETATM    1  N   UNK N   1      27.124  18.052   5.858  0.00  0.00    -0.189 N 
HETATM    2  C   UNK N   1      26.065  17.228   5.381  0.00  0.00     0.684 A 
HETATM    3  N   UNK N   1      24.804  17.715   5.401  0.00  0.00    -0.175 N 
ATOM      4  HN  UNK N   1      24.644  18.654   5.766  1.00  0.00     0.186 HD
HETATM    5  N   UNK N   1      26.295  15.979   4.898  0.00  0.00    -0.200 N 
ATOM      6  HN  UNK N   1      27.246  15.613   4.879  1.00  0.00     0.183 HD
HETATM    7  C   UNK N   1      25.273  15.211   4.440  0.00  0.00     0.133 A 
HETATM    8  C   UNK N   1      23.967  15.700   4.455  0.00  0.00     0.094 A 
HETATM    9 Cl   UNK N   1      22.684  14.673   3.850  0.00  0.00    -0.079 Cl
HETATM   10  C   UNK N   1      23.741  16.996   4.952  0.00  0.00     0.144 A 
HETATM   11  H   UNK N   1      26.873  18.927   6.233  0.00  0.00     0.184 HD
ENDROOT
BRANCH   1  12
HETATM   12  C   UNK N   1      28.511  17.734   5.848  0.00  0.00     0.082 A 
HETATM   13  C   UNK N   1      29.168  17.281   7.029  0.00  0.00     0.097 A 
HETATM   14  C   UNK N   1      30.544  17.012   6.979  0.00  0.00     0.068 A 
HETATM   15  C   UNK N   1      31.279  17.186   5.794  0.00  0.00     0.033 A 
HETATM   16  C   UNK N   1      30.616  17.618   4.644  0.00  0.00     0.032 A 
HETATM   17  C   UNK N   1      29.256  17.883   4.671  0.00  0.00     0.035 A 
BRANCH  13  18
HETATM   18  O   UNK N   1      28.542  17.109   8.225  0.00  0.00    -0.354 OA
HETATM   19  C   UNK N   1      28.275  18.092   9.151  0.00  0.00     0.210 C 
ENDBRANCH  13  18
BRANCH  15  20
HETATM   20  N   UNK N   1      32.691  16.989   5.769  0.00  0.00    -0.377 N 
HETATM   21  C   UNK N   1      33.325  16.336   4.640  0.00  0.00     0.149 C 
HETATM   22  C   UNK N   1      34.330  15.320   5.176  0.00  0.00     0.187 C 
HETATM   23  O   UNK N   1      35.244  15.981   6.018  0.00  0.00    -0.388 OA
HETATM   24  C   UNK N   1      34.535  16.340   7.183  0.00  0.00     0.187 C 
HETATM   25  C   UNK N   1      33.539  17.453   6.849  0.00  0.00     0.149 C 
ENDBRANCH  15  20
ENDBRANCH   1  12
BRANCH  10  26
HETATM   26  N   UNK N   1      22.420  17.556   4.986  0.00  0.00    -0.340 N 
HETATM   27  H   UNK N   1      21.880  17.389   5.791  0.00  0.00     0.167 HD
BRANCH  26  28
HETATM   28  C   UNK N   1      21.824  18.339   3.948  0.00  0.00     0.049 A 
HETATM   29  C   UNK N   1      22.443  19.553   3.584  0.00  0.00     0.030 A 
HETATM   30  C   UNK N   1      21.939  20.385   2.597  0.00  0.00     0.002 A 
HETATM   31  C   UNK N   1      20.785  20.026   1.932  0.00  0.00     0.001 A 
HETATM   32  C   UNK N   1      20.144  18.836   2.258  0.00  0.00     0.019 A 
HETATM   33  C   UNK N   1      20.617  17.951   3.254  0.00  0.00     0.058 A 
BRANCH  33  34
HETATM   34  C   UNK N   1      19.733  16.715   3.421  0.00  0.00     0.253 C 
HETATM   35  O   UNK N   1      19.078  16.656   4.453  0.00  0.00    -0.268 OA
HETATM   36  N   UNK N   1      19.579  15.671   2.562  0.00  0.00    -0.361 N 
HETATM   37  C   UNK N   1      20.175  15.454   1.286  0.00  0.00     0.149 C 
HETATM   38  H   UNK N   1      18.967  14.963   2.867  0.00  0.00     0.162 HD
ENDBRANCH  33  34
ENDBRANCH  26  28
ENDBRANCH  10  26
TORSDOF 6
ENDMDL
MODEL 6
REMARK VINA RESULT:      -7.7      7.741     14.381
REMARK  6 active torsions:
REMARK  status: ('A' for Active; 'I' for Inactive)
REMARK    1  A    between atoms: N_6  and  C_7 
REMARK    2  A    between atoms: C_9  and  O_10 
REMARK    3  A    between atoms: C_14  and  N_15 
REMARK       I    between atoms: N_15  and  C_16 
REMARK    4  A    between atoms: C_24  and  N_25 
REMARK    5  A    between atoms: N_25  and  C_26 
REMARK    6  A    between atoms: C_31  and  C_32 
REMARK       I    between atoms: C_32  and  N_34 
ROOT
HETATM    1  N   UNK N   1      35.015  16.168  10.981  0.00  0.00    -0.189 N 
HETATM    2  C   UNK N   1      35.628  14.936  11.349  0.00  0.00     0.684 A 
HETATM    3  N   UNK N   1      36.164  14.822  12.586  0.00  0.00    -0.175 N 
ATOM      4  HN  UNK N   1      36.123  15.623  13.216  1.00  0.00     0.186 HD
HETATM    5  N   UNK N   1      35.674  13.878  10.497  0.00  0.00    -0.200 N 
ATOM      6  HN  UNK N   1      35.266  13.963   9.567  1.00  0.00     0.183 HD
HETATM    7  C   UNK N   1      36.256  12.709  10.870  0.00  0.00     0.133 A 
HETATM    8  C   UNK N   1      36.813  12.578  12.142  0.00  0.00     0.094 A 
HETATM    9 Cl   UNK N   1      37.549  11.050  12.577  0.00  0.00    -0.079 Cl
HETATM   10  C   UNK N   1      36.756  13.677  13.017  0.00  0.00     0.144 A 
HETATM   11  H   UNK N   1      35.061  16.901  11.635  0.00  0.00     0.184 HD
ENDROOT
BRANCH   1  12
HETATM   12  C   UNK N   1      34.343  16.442   9.757  0.00  0.00     0.082 A 
HETATM   13  C   UNK N   1      33.363  15.544   9.241  0.00  0.00     0.097 A 
HETATM   14  C   UNK N   1      32.752  15.839   8.013  0.00  0.00     0.068 A 
HETATM   15  C   UNK N   1      33.093  16.993   7.288  0.00  0.00     0.033 A 
HETATM   16  C   UNK N   1      34.045  17.867   7.814  0.00  0.00     0.032 A 
HETATM   17  C   UNK N   1      34.656  17.597   9.029  0.00  0.00     0.035 A 
BRANCH  13  18
HETATM   18  O   UNK N   1      32.990  14.392   9.863  0.00  0.00    -0.354 OA
HETATM   19  C   UNK N   1      32.730  13.187   9.250  0.00  0.00     0.210 C 
ENDBRANCH  13  18
BRANCH  15  20
HETATM   20  N   UNK N   1      32.528  17.247   6.003  0.00  0.00    -0.377 N 
HETATM   21  C   UNK N   1      31.094  17.173   5.798  0.00  0.00     0.149 C 
HETATM   22  C   UNK N   1      30.833  16.397   4.511  0.00  0.00     0.187 C 
HETATM   23  O   UNK N   1      31.511  17.027   3.450  0.00  0.00    -0.388 OA
HETATM   24  C   UNK N   1      32.887  16.800   3.658  0.00  0.00     0.187 C 
HETATM   25  C   UNK N   1      33.357  17.609   4.871  0.00  0.00     0.149 C 
ENDBRANCH  15  20
ENDBRANCH   1  12
BRANCH  10  26
HETATM   26  N   UNK N   1      37.306  13.599  14.340  0.00  0.00    -0.340 N 
HETATM   27  H   UNK N   1      38.258  13.364  14.420  0.00  0.00     0.167 HD
BRANCH  26  28
HETATM   28  C   UNK N   1      36.586  13.837  15.554  0.00  0.00     0.049 A 
HETATM   29  C   UNK N   1      36.958  14.941  16.348  0.00  0.00     0.030 A 
HETATM   30  C   UNK N   1      36.328  15.252  17.542  0.00  0.00     0.002 A 
HETATM   31  C   UNK N   1      35.291  14.458  17.988  0.00  0.00     0.001 A 
HETATM   32  C   UNK N   1      34.892  13.360  17.235  0.00  0.00     0.019 A 
HETATM   33  C   UNK N   1      35.499  13.001  16.008  0.00  0.00     0.058 A 
BRANCH  33  34
HETATM   34  C   UNK N   1      34.877  11.755  15.378  0.00  0.00     0.253 C 
HETATM   35  O   UNK N   1      33.815  11.920  14.793  0.00  0.00    -0.268 OA
HETATM   36  N   UNK N   1      35.359  10.483  15.381  0.00  0.00    -0.361 N 
HETATM   37  C   UNK N   1      36.564   9.973  15.948  0.00  0.00     0.149 C 
HETATM   38  H   UNK N   1      34.794   9.818  14.925  0.00  0.00     0.162 HD
ENDBRANCH  33  34
ENDBRANCH  26  28
ENDBRANCH  10  26
TORSDOF 6
ENDMDL
MODEL 7
REMARK VINA RESULT:      -7.7      2.433     10.666
REMARK  6 active torsions:
REMARK  status: ('A' for Active; 'I' for Inactive)
REMARK    1  A    between atoms: N_6  and  C_7 
REMARK    2  A    between atoms: C_9  and  O_10 
REMARK    3  A    between atoms: C_14  and  N_15 
REMARK       I    between atoms: N_15  and  C_16 
REMARK    4  A    between atoms: C_24  and  N_25 
REMARK    5  A    between atoms: N_25  and  C_26 
REMARK    6  A    between atoms: C_31  and  C_32 
REMARK       I    between atoms: C_32  and  N_34 
ROOT
HETATM    1  N   UNK N   1      26.791  16.615   5.409  0.00  0.00    -0.189 N 
HETATM    2  C   UNK N   1      27.643  17.196   6.391  0.00  0.00     0.684 A 
HETATM    3  N   UNK N   1      28.820  16.590   6.670  0.00  0.00    -0.175 N 
ATOM      4  HN  UNK N   1      29.059  15.730   6.177  1.00  0.00     0.186 HD
HETATM    5  N   UNK N   1      27.308  18.343   7.038  0.00  0.00    -0.200 N 
ATOM      6  HN  UNK N   1      26.423  18.802   6.825  1.00  0.00     0.183 HD
HETATM    7  C   UNK N   1      28.138  18.886   7.966  0.00  0.00     0.133 A 
HETATM    8  C   UNK N   1      29.354  18.271   8.265  0.00  0.00     0.094 A 
HETATM    9 Cl   UNK N   1      30.391  19.011   9.467  0.00  0.00    -0.079 Cl
HETATM   10  C   UNK N   1      29.693  17.088   7.586  0.00  0.00     0.144 A 
HETATM   11  H   UNK N   1      27.082  15.761   5.016  0.00  0.00     0.184 HD
ENDROOT
BRANCH   1  12
HETATM   12  C   UNK N   1      25.558  17.149   4.940  0.00  0.00     0.082 A 
HETATM   13  C   UNK N   1      25.532  18.270   4.060  0.00  0.00     0.097 A 
HETATM   14  C   UNK N   1      24.292  18.784   3.652  0.00  0.00     0.068 A 
HETATM   15  C   UNK N   1      23.086  18.218   4.098  0.00  0.00     0.033 A 
HETATM   16  C   UNK N   1      23.130  17.113   4.949  0.00  0.00     0.032 A 
HETATM   17  C   UNK N   1      24.346  16.586   5.359  0.00  0.00     0.035 A 
BRANCH  13  18
HETATM   18  O   UNK N   1      26.649  18.897   3.599  0.00  0.00    -0.354 OA
HETATM   19  C   UNK N   1      27.075  20.158   3.949  0.00  0.00     0.210 C 
ENDBRANCH  13  18
BRANCH  15  20
HETATM   20  N   UNK N   1      21.829  18.793   3.745  0.00  0.00    -0.377 N 
HETATM   21  C   UNK N   1      20.588  18.141   4.120  0.00  0.00     0.149 C 
HETATM   22  C   UNK N   1      19.656  18.155   2.911  0.00  0.00     0.187 C 
HETATM   23  O   UNK N   1      19.476  19.485   2.487  0.00  0.00    -0.388 OA
HETATM   24  C   UNK N   1      20.700  19.898   1.922  0.00  0.00     0.187 C 
HETATM   25  C   UNK N   1      21.746  20.049   3.029  0.00  0.00     0.149 C 
ENDBRANCH  15  20
ENDBRANCH   1  12
BRANCH  10  26
HETATM   26  N   UNK N   1      30.933  16.414   7.845  0.00  0.00    -0.340 N 
HETATM   27  H   UNK N   1      31.040  15.988   8.726  0.00  0.00     0.167 HD
BRANCH  26  28
HETATM   28  C   UNK N   1      32.028  16.308   6.929  0.00  0.00     0.049 A 
HETATM   29  C   UNK N   1      31.786  15.746   5.659  0.00  0.00     0.030 A 
HETATM   30  C   UNK N   1      32.780  15.594   4.705  0.00  0.00     0.002 A 
HETATM   31  C   UNK N   1      34.065  16.004   4.994  0.00  0.00     0.001 A 
HETATM   32  C   UNK N   1      34.346  16.564   6.235  0.00  0.00     0.019 A 
HETATM   33  C   UNK N   1      33.369  16.745   7.241  0.00  0.00     0.058 A 
BRANCH  33  34
HETATM   34  C   UNK N   1      33.933  17.381   8.512  0.00  0.00     0.253 C 
HETATM   35  O   UNK N   1      34.208  18.571   8.442  0.00  0.00    -0.268 OA
HETATM   36  N   UNK N   1      34.164  16.790   9.716  0.00  0.00    -0.361 N 
HETATM   37  C   UNK N   1      33.932  15.443  10.122  0.00  0.00     0.149 C 
HETATM   38  H   UNK N   1      34.546  17.378  10.406  0.00  0.00     0.162 HD
ENDBRANCH  33  34
ENDBRANCH  26  28
ENDBRANCH  10  26
TORSDOF 6
ENDMDL
MODEL 8
REMARK VINA RESULT:      -7.6      1.621      2.721
REMARK  6 active torsions:
REMARK  status: ('A' for Active; 'I' for Inactive)
REMARK    1  A    between atoms: N_6  and  C_7 
REMARK    2  A    between atoms: C_9  and  O_10 
REMARK    3  A    between atoms: C_14  and  N_15 
REMARK       I    between atoms: N_15  and  C_16 
REMARK    4  A    between atoms: C_24  and  N_25 
REMARK    5  A    between atoms: N_25  and  C_26 
REMARK    6  A    between atoms: C_31  and  C_32 
REMARK       I    between atoms: C_32  and  N_34 
ROOT
HETATM    1  N   UNK N   1      26.588  16.969   6.219  0.00  0.00    -0.189 N 
HETATM    2  C   UNK N   1      25.889  17.873   5.368  0.00  0.00     0.684 A 
HETATM    3  N   UNK N   1      24.542  17.781   5.288  0.00  0.00    -0.175 N 
ATOM      4  HN  UNK N   1      24.065  17.061   5.831  1.00  0.00     0.186 HD
HETATM    5  N   UNK N   1      26.540  18.826   4.651  0.00  0.00    -0.200 N 
ATOM      6  HN  UNK N   1      27.555  18.899   4.714  1.00  0.00     0.183 HD
HETATM    7  C   UNK N   1      25.856  19.684   3.852  0.00  0.00     0.133 A 
HETATM    8  C   UNK N   1      24.467  19.600   3.760  0.00  0.00     0.094 A 
HETATM    9 Cl   UNK N   1      23.629  20.731   2.717  0.00  0.00    -0.079 Cl
HETATM   10  C   UNK N   1      23.802  18.613   4.509  0.00  0.00     0.144 A 
HETATM   11  H   UNK N   1      26.051  16.279   6.670  0.00  0.00     0.184 HD
ENDROOT
BRANCH   1  12
HETATM   12  C   UNK N   1      27.987  16.966   6.478  0.00  0.00     0.082 A 
HETATM   13  C   UNK N   1      28.891  16.287   5.610  0.00  0.00     0.097 A 
HETATM   14  C   UNK N   1      30.258  16.281   5.925  0.00  0.00     0.068 A 
HETATM   15  C   UNK N   1      30.744  16.925   7.075  0.00  0.00     0.033 A 
HETATM   16  C   UNK N   1      29.846  17.596   7.907  0.00  0.00     0.032 A 
HETATM   17  C   UNK N   1      28.491  17.617   7.610  0.00  0.00     0.035 A 
BRANCH  13  18
HETATM   18  O   UNK N   1      28.506  15.616   4.490  0.00  0.00    -0.354 OA
HETATM   19  C   UNK N   1      28.547  16.099   3.201  0.00  0.00     0.210 C 
ENDBRANCH  13  18
BRANCH  15  20
HETATM   20  N   UNK N   1      32.122  16.848   7.434  0.00  0.00    -0.377 N 
HETATM   21  C   UNK N   1      32.672  17.729   8.447  0.00  0.00     0.149 C 
HETATM   22  C   UNK N   1      34.000  18.279   7.935  0.00  0.00     0.187 C 
HETATM   23  O   UNK N   1      34.850  17.202   7.620  0.00  0.00    -0.388 OA
HETATM   24  C   UNK N   1      34.317  16.591   6.465  0.00  0.00     0.187 C 
HETATM   25  C   UNK N   1      33.010  15.879   6.824  0.00  0.00     0.149 C 
ENDBRANCH  15  20
ENDBRANCH   1  12
BRANCH  10  26
HETATM   26  N   UNK N   1      22.374  18.483   4.461  0.00  0.00    -0.340 N 
HETATM   27  H   UNK N   1      21.854  18.953   5.151  0.00  0.00     0.167 HD
BRANCH  26  28
HETATM   28  C   UNK N   1      21.642  17.727   3.491  0.00  0.00     0.049 A 
HETATM   29  C   UNK N   1      20.828  18.423   2.574  0.00  0.00     0.030 A 
HETATM   30  C   UNK N   1      20.075  17.782   1.603  0.00  0.00     0.002 A 
HETATM   31  C   UNK N   1      20.113  16.405   1.516  0.00  0.00     0.001 A 
HETATM   32  C   UNK N   1      20.904  15.681   2.399  0.00  0.00     0.019 A 
HETATM   33  C   UNK N   1      21.692  16.285   3.406  0.00  0.00     0.058 A 
BRANCH  33  34
HETATM   34  C   UNK N   1      22.468  15.270   4.245  0.00  0.00     0.253 C 
HETATM   35  O   UNK N   1      23.618  15.047   3.893  0.00  0.00    -0.268 OA
HETATM   36  N   UNK N   1      22.040  14.584   5.340  0.00  0.00    -0.361 N 
HETATM   37  C   UNK N   1      20.780  14.635   6.004  0.00  0.00     0.149 C 
HETATM   38  H   UNK N   1      22.697  13.963   5.729  0.00  0.00     0.162 HD
ENDBRANCH  33  34
ENDBRANCH  26  28
ENDBRANCH  10  26
TORSDOF 6
ENDMDL
MODEL 9
REMARK VINA RESULT:      -7.6      4.041      5.258
REMARK  6 active torsions:
REMARK  status: ('A' for Active; 'I' for Inactive)
REMARK    1  A    between atoms: N_6  and  C_7 
REMARK    2  A    between atoms: C_9  and  O_10 
REMARK    3  A    between atoms: C_14  and  N_15 
REMARK       I    between atoms: N_15  and  C_16 
REMARK    4  A    between atoms: C_24  and  N_25 
REMARK    5  A    between atoms: N_25  and  C_26 
REMARK    6  A    between atoms: C_31  and  C_32 
REMARK       I    between atoms: C_32  and  N_34 
ROOT
HETATM    1  N   UNK N   1      26.680  17.091   6.386  0.00  0.00    -0.189 N 
HETATM    2  C   UNK N   1      25.931  15.902   6.155  0.00  0.00     0.684 A 
HETATM    3  N   UNK N   1      24.583  15.987   6.083  0.00  0.00    -0.175 N 
ATOM      4  HN  UNK N   1      24.140  16.898   6.205  1.00  0.00     0.186 HD
HETATM    5  N   UNK N   1      26.537  14.697   5.994  0.00  0.00    -0.200 N 
ATOM      6  HN  UNK N   1      27.554  14.633   6.044  1.00  0.00     0.183 HD
HETATM    7  C   UNK N   1      25.807  13.575   5.766  0.00  0.00     0.133 A 
HETATM    8  C   UNK N   1      24.416  13.648   5.689  0.00  0.00     0.094 A 
HETATM    9 Cl   UNK N   1      23.518  12.174   5.390  0.00  0.00    -0.079 Cl
HETATM   10  C   UNK N   1      23.799  14.901   5.853  0.00  0.00     0.144 A 
HETATM   11  H   UNK N   1      26.167  17.918   6.537  0.00  0.00     0.184 HD
ENDROOT
BRANCH   1  12
HETATM   12  C   UNK N   1      28.098  17.201   6.423  0.00  0.00     0.082 A 
HETATM   13  C   UNK N   1      28.857  17.288   5.219  0.00  0.00     0.097 A 
HETATM   14  C   UNK N   1      30.256  17.360   5.303  0.00  0.00     0.068 A 
HETATM   15  C   UNK N   1      30.914  17.342   6.545  0.00  0.00     0.033 A 
HETATM   16  C   UNK N   1      30.154  17.270   7.713  0.00  0.00     0.032 A 
HETATM   17  C   UNK N   1      28.770  17.204   7.651  0.00  0.00     0.035 A 
BRANCH  13  18
HETATM   18  O   UNK N   1      28.306  17.285   3.974  0.00  0.00    -0.354 OA
HETATM   19  C   UNK N   1      28.334  16.242   3.077  0.00  0.00     0.210 C 
ENDBRANCH  13  18
BRANCH  15  20
HETATM   20  N   UNK N   1      32.338  17.334   6.622  0.00  0.00    -0.377 N 
HETATM   21  C   UNK N   1      33.142  17.212   5.421  0.00  0.00     0.149 C 
HETATM   22  C   UNK N   1      34.249  16.195   5.686  0.00  0.00     0.187 C 
HETATM   23  O   UNK N   1      34.991  16.608   6.809  0.00  0.00    -0.388 OA
HETATM   24  C   UNK N   1      34.155  16.436   7.931  0.00  0.00     0.187 C 
HETATM   25  C   UNK N   1      33.027  17.471   7.889  0.00  0.00     0.149 C 
ENDBRANCH  15  20
ENDBRANCH   1  12
BRANCH  10  26
HETATM   26  N   UNK N   1      22.372  15.039   5.777  0.00  0.00    -0.340 N 
HETATM   27  H   UNK N   1      21.947  14.861   4.908  0.00  0.00     0.167 HD
BRANCH  26  28
HETATM   28  C   UNK N   1      21.517  15.414   6.861  0.00  0.00     0.049 A 
HETATM   29  C   UNK N   1      21.041  16.741   6.911  0.00  0.00     0.030 A 
HETATM   30  C   UNK N   1      20.213  17.203   7.922  0.00  0.00     0.002 A 
HETATM   31  C   UNK N   1      19.830  16.342   8.930  0.00  0.00     0.001 A 
HETATM   32  C   UNK N   1      20.276  15.026   8.918  0.00  0.00     0.019 A 
HETATM   33  C   UNK N   1      21.118  14.503   7.909  0.00  0.00     0.058 A 
BRANCH  33  34
HETATM   34  C   UNK N   1      21.465  13.030   8.126  0.00  0.00     0.253 C 
HETATM   35  O   UNK N   1      20.789  12.221   7.507  0.00  0.00    -0.268 OA
HETATM   36  N   UNK N   1      22.437  12.505   8.921  0.00  0.00    -0.361 N 
HETATM   37  C   UNK N   1      23.393  13.171   9.741  0.00  0.00     0.149 C 
HETATM   38  H   UNK N   1      22.487  11.522   8.929  0.00  0.00     0.162 HD
ENDBRANCH  33  34
ENDBRANCH  26  28
ENDBRANCH  10  26
TORSDOF 6
ENDMDL
