MODEL 1
REMARK VINA RESULT:      -6.3      0.000      0.000
REMARK  4 active torsions:
REMARK  status: ('A' for Active; 'I' for Inactive)
REMARK    1  A    between atoms: C_1  and  C_11 
REMARK    2  A    between atoms: C_6  and  N_13 
REMARK    3  A    between atoms: C_6  and  C_14 
REMARK    4  A    between atoms: C_14  and  C_15 
ROOT
HETATM    1  C   UNK N   1      31.045  21.917  -4.489  0.00  0.00     0.168 C 
HETATM    2  C   UNK N   1      31.536  20.718  -5.269  0.00  0.00     0.050 C 
HETATM    3  C   UNK N   1      30.648  20.691  -6.509  0.00  0.00     0.116 C 
HETATM    4  C   UNK N   1      28.892  22.105  -7.271  0.00  0.00     0.117 C 
HETATM    5  C   UNK N   1      27.592  22.736  -6.800  0.00  0.00     0.057 C 
HETATM    6  C   UNK N   1      27.866  23.750  -5.682  0.00  0.00     0.112 C 
HETATM    7  C   UNK N   1      29.035  23.330  -4.804  0.00  0.00     0.263 C 
HETATM    8  N   UNK N   1      29.404  21.349  -6.138  0.00  0.00    -0.226 NA
HETATM    9  N   UNK N   1      29.774  22.212  -5.109  0.00  0.00    -0.267 N 
HETATM   10  O   UNK N   1      29.386  24.072  -3.898  0.00  0.00    -0.269 OA
ENDROOT
BRANCH   6  11
HETATM   11  N   UNK N   1      28.238  25.017  -6.297  0.00  0.00    -0.414 N 
HETATM   12  H   UNK N   1      28.911  25.685  -6.674  0.00  0.00     0.151 HD
HETATM   13  H   UNK N   1      27.344  25.495  -6.413  0.00  0.00     0.151 HD
ENDBRANCH   6  11
BRANCH   6  14
HETATM   14  C   UNK N   1      26.594  23.931  -4.835  0.00  0.00     0.079 C 
BRANCH  14  15
HETATM   15  C   UNK N   1      26.148  25.362  -4.725  0.00  0.00    -0.055 A 
HETATM   16  C   UNK N   1      26.546  26.166  -3.648  0.00  0.00     0.007 A 
HETATM   17  C   UNK N   1      26.067  27.476  -3.535  0.00  0.00     0.001 A 
HETATM   18  C   UNK N   1      25.195  27.985  -4.500  0.00  0.00     0.000 A 
HETATM   19  C   UNK N   1      24.804  27.189  -5.581  0.00  0.00     0.001 A 
HETATM   20  C   UNK N   1      25.277  25.879  -5.690  0.00  0.00     0.007 A 
ENDBRANCH  14  15
ENDBRANCH   6  14
BRANCH   1  21
HETATM   21  C   UNK N   1      30.931  21.541  -3.040  0.00  0.00     0.258 C 
HETATM   22  O   UNK N   1      31.625  22.075  -2.190  0.00  0.00    -0.305 OA
ENDBRANCH   1  21
TORSDOF 4
ENDMDL
MODEL 2
REMARK VINA RESULT:      -6.2      3.133      4.307
REMARK  4 active torsions:
REMARK  status: ('A' for Active; 'I' for Inactive)
REMARK    1  A    between atoms: C_1  and  C_11 
REMARK    2  A    between atoms: C_6  and  N_13 
REMARK    3  A    between atoms: C_6  and  C_14 
REMARK    4  A    between atoms: C_14  and  C_15 
ROOT
HETATM    1  C   UNK N   1      26.846  21.490  -8.277  0.00  0.00     0.168 C 
HETATM    2  C   UNK N   1      28.193  20.820  -8.120  0.00  0.00     0.050 C 
HETATM    3  C   UNK N   1      28.871  21.605  -7.001  0.00  0.00     0.116 C 
HETATM    4  C   UNK N   1      28.165  23.436  -5.654  0.00  0.00     0.117 C 
HETATM    5  C   UNK N   1      27.561  24.826  -5.769  0.00  0.00     0.057 C 
HETATM    6  C   UNK N   1      26.134  24.743  -6.329  0.00  0.00     0.112 C 
HETATM    7  C   UNK N   1      25.978  23.606  -7.326  0.00  0.00     0.263 C 
HETATM    8  N   UNK N   1      28.279  22.935  -7.015  0.00  0.00    -0.226 NA
HETATM    9  N   UNK N   1      27.014  22.734  -7.564  0.00  0.00    -0.267 N 
HETATM   10  O   UNK N   1      24.877  23.402  -7.819  0.00  0.00    -0.269 OA
ENDROOT
BRANCH   6  11
HETATM   11  N   UNK N   1      25.227  24.460  -5.224  0.00  0.00    -0.414 N 
HETATM   12  H   UNK N   1      24.762  24.687  -4.345  0.00  0.00     0.151 HD
HETATM   13  H   UNK N   1      24.859  23.536  -5.452  0.00  0.00     0.151 HD
ENDBRANCH   6  11
BRANCH   6  14
HETATM   14  C   UNK N   1      25.764  26.087  -6.981  0.00  0.00     0.079 C 
BRANCH  14  15
HETATM   15  C   UNK N   1      26.258  27.279  -6.211  0.00  0.00    -0.055 A 
HETATM   16  C   UNK N   1      25.617  27.704  -5.039  0.00  0.00     0.007 A 
HETATM   17  C   UNK N   1      26.058  28.854  -4.374  0.00  0.00     0.001 A 
HETATM   18  C   UNK N   1      27.141  29.579  -4.878  0.00  0.00     0.000 A 
HETATM   19  C   UNK N   1      27.788  29.153  -6.042  0.00  0.00     0.001 A 
HETATM   20  C   UNK N   1      27.344  28.008  -6.709  0.00  0.00     0.007 A 
ENDBRANCH  14  15
ENDBRANCH   6  14
BRANCH   1  21
HETATM   21  C   UNK N   1      26.562  21.672  -9.740  0.00  0.00     0.258 C 
HETATM   22  O   UNK N   1      25.510  21.300 -10.233  0.00  0.00    -0.305 OA
ENDBRANCH   1  21
TORSDOF 4
ENDMDL
MODEL 3
REMARK VINA RESULT:      -6.1     19.268     22.728
REMARK  4 active torsions:
REMARK  status: ('A' for Active; 'I' for Inactive)
REMARK    1  A    between atoms: C_1  and  C_11 
REMARK    2  A    between atoms: C_6  and  N_13 
REMARK    3  A    between atoms: C_6  and  C_14 
REMARK    4  A    between atoms: C_14  and  C_15 
ROOT
HETATM    1  C   UNK N   1      35.030  15.131  10.465  0.00  0.00     0.168 C 
HETATM    2  C   UNK N   1      35.303  14.955   8.989  0.00  0.00     0.050 C 
HETATM    3  C   UNK N   1      35.762  13.505   8.865  0.00  0.00     0.116 C 
HETATM    4  C   UNK N   1      36.019  11.750  10.453  0.00  0.00     0.117 C 
HETATM    5  C   UNK N   1      36.660  11.457  11.799  0.00  0.00     0.057 C 
HETATM    6  C   UNK N   1      35.998  12.298  12.899  0.00  0.00     0.112 C 
HETATM    7  C   UNK N   1      35.554  13.660  12.388  0.00  0.00     0.263 C 
HETATM    8  N   UNK N   1      36.326  13.142  10.157  0.00  0.00    -0.226 NA
HETATM    9  N   UNK N   1      35.674  13.982  11.058  0.00  0.00    -0.267 N 
HETATM   10  O   UNK N   1      34.974  14.415  13.154  0.00  0.00    -0.269 OA
ENDROOT
BRANCH   6  11
HETATM   11  N   UNK N   1      34.795  11.604  13.340  0.00  0.00    -0.414 N 
HETATM   12  H   UNK N   1      34.290  10.794  13.702  0.00  0.00     0.151 HD
HETATM   13  H   UNK N   1      34.062  12.304  13.225  0.00  0.00     0.151 HD
ENDBRANCH   6  11
BRANCH   6  14
HETATM   14  C   UNK N   1      36.974  12.456  14.078  0.00  0.00     0.079 C 
BRANCH  14  15
HETATM   15  C   UNK N   1      36.353  12.154  15.412  0.00  0.00    -0.055 A 
HETATM   16  C   UNK N   1      35.689  13.147  16.146  0.00  0.00     0.007 A 
HETATM   17  C   UNK N   1      35.173  12.856  17.414  0.00  0.00     0.001 A 
HETATM   18  C   UNK N   1      35.317  11.573  17.949  0.00  0.00     0.000 A 
HETATM   19  C   UNK N   1      35.971  10.578  17.216  0.00  0.00     0.001 A 
HETATM   20  C   UNK N   1      36.491  10.870  15.952  0.00  0.00     0.007 A 
ENDBRANCH  14  15
ENDBRANCH   6  14
BRANCH   1  21
HETATM   21  C   UNK N   1      35.611  16.440  10.914  0.00  0.00     0.258 C 
HETATM   22  O   UNK N   1      35.544  17.437  10.214  0.00  0.00    -0.305 OA
ENDBRANCH   1  21
TORSDOF 4
ENDMDL
MODEL 4
REMARK VINA RESULT:      -6.1     15.406     19.136
REMARK  4 active torsions:
REMARK  status: ('A' for Active; 'I' for Inactive)
REMARK    1  A    between atoms: C_1  and  C_11 
REMARK    2  A    between atoms: C_6  and  N_13 
REMARK    3  A    between atoms: C_6  and  C_14 
REMARK    4  A    between atoms: C_14  and  C_15 
ROOT
HETATM    1  C   UNK N   1      33.681  17.267   7.597  0.00  0.00     0.168 C 
HETATM    2  C   UNK N   1      33.621  17.381   6.090  0.00  0.00     0.050 C 
HETATM    3  C   UNK N   1      34.322  16.120   5.594  0.00  0.00     0.116 C 
HETATM    4  C   UNK N   1      35.305  14.267   6.719  0.00  0.00     0.117 C 
HETATM    5  C   UNK N   1      36.296  13.944   7.825  0.00  0.00     0.057 C 
HETATM    6  C   UNK N   1      35.761  14.428   9.179  0.00  0.00     0.112 C 
HETATM    7  C   UNK N   1      34.940  15.702   9.046  0.00  0.00     0.263 C 
HETATM    8  N   UNK N   1      35.242  15.719   6.649  0.00  0.00    -0.226 NA
HETATM    9  N   UNK N   1      34.668  16.235   7.809  0.00  0.00    -0.267 N 
HETATM   10  O   UNK N   1      34.419  16.173  10.047  0.00  0.00    -0.269 OA
ENDROOT
BRANCH   6  11
HETATM   11  N   UNK N   1      34.866  13.406   9.707  0.00  0.00    -0.414 N 
HETATM   12  H   UNK N   1      34.622  12.446   9.950  0.00  0.00     0.151 HD
HETATM   13  H   UNK N   1      34.038  13.936   9.980  0.00  0.00     0.151 HD
ENDBRANCH   6  11
BRANCH   6  14
HETATM   14  C   UNK N   1      36.939  14.644  10.145  0.00  0.00     0.079 C 
BRANCH  14  15
HETATM   15  C   UNK N   1      36.795  13.894  11.439  0.00  0.00    -0.055 A 
HETATM   16  C   UNK N   1      36.101  14.445  12.526  0.00  0.00     0.007 A 
HETATM   17  C   UNK N   1      36.033  13.753  13.740  0.00  0.00     0.001 A 
HETATM   18  C   UNK N   1      36.656  12.509  13.870  0.00  0.00     0.000 A 
HETATM   19  C   UNK N   1      37.341  11.952  12.785  0.00  0.00     0.001 A 
HETATM   20  C   UNK N   1      37.413  12.646  11.574  0.00  0.00     0.007 A 
ENDBRANCH  14  15
ENDBRANCH   6  14
BRANCH   1  21
HETATM   21  C   UNK N   1      34.074  18.598   8.170  0.00  0.00     0.258 C 
HETATM   22  O   UNK N   1      35.239  18.961   8.189  0.00  0.00    -0.305 OA
ENDBRANCH   1  21
TORSDOF 4
ENDMDL
MODEL 5
REMARK VINA RESULT:      -6.1     10.691     12.517
REMARK  4 active torsions:
REMARK  status: ('A' for Active; 'I' for Inactive)
REMARK    1  A    between atoms: C_1  and  C_11 
REMARK    2  A    between atoms: C_6  and  N_13 
REMARK    3  A    between atoms: C_6  and  C_14 
REMARK    4  A    between atoms: C_14  and  C_15 
ROOT
HETATM    1  C   UNK N   1      20.443  19.851   2.628  0.00  0.00     0.168 C 
HETATM    2  C   UNK N   1      19.271  18.940   2.337  0.00  0.00     0.050 C 
HETATM    3  C   UNK N   1      19.681  17.601   2.942  0.00  0.00     0.116 C 
HETATM    4  C   UNK N   1      21.612  16.890   4.138  0.00  0.00     0.117 C 
HETATM    5  C   UNK N   1      23.129  16.901   4.050  0.00  0.00     0.057 C 
HETATM    6  C   UNK N   1      23.658  18.339   4.135  0.00  0.00     0.112 C 
HETATM    7  C   UNK N   1      22.709  19.335   3.487  0.00  0.00     0.263 C 
HETATM    8  N   UNK N   1      21.137  17.581   2.949  0.00  0.00    -0.226 NA
HETATM    9  N   UNK N   1      21.491  18.928   2.999  0.00  0.00    -0.267 N 
HETATM   10  O   UNK N   1      22.992  20.524   3.522  0.00  0.00    -0.269 OA
ENDROOT
BRANCH   6  11
HETATM   11  N   UNK N   1      23.755  18.706   5.542  0.00  0.00    -0.414 N 
HETATM   12  H   UNK N   1      24.035  18.543   6.510  0.00  0.00     0.151 HD
HETATM   13  H   UNK N   1      23.292  19.614   5.581  0.00  0.00     0.151 HD
ENDBRANCH   6  11
BRANCH   6  14
HETATM   14  C   UNK N   1      25.047  18.410   3.477  0.00  0.00     0.079 C 
BRANCH  14  15
HETATM   15  C   UNK N   1      26.104  18.985   4.377  0.00  0.00    -0.055 A 
HETATM   16  C   UNK N   1      26.889  18.160   5.195  0.00  0.00     0.007 A 
HETATM   17  C   UNK N   1      27.824  18.724   6.070  0.00  0.00     0.001 A 
HETATM   18  C   UNK N   1      27.979  20.111   6.127  0.00  0.00     0.000 A 
HETATM   19  C   UNK N   1      27.205  20.937   5.306  0.00  0.00     0.001 A 
HETATM   20  C   UNK N   1      26.267  20.373   4.436  0.00  0.00     0.007 A 
ENDBRANCH  14  15
ENDBRANCH   6  14
BRANCH   1  21
HETATM   21  C   UNK N   1      20.757  20.649   1.396  0.00  0.00     0.258 C 
HETATM   22  O   UNK N   1      21.010  20.104   0.335  0.00  0.00    -0.305 OA
ENDBRANCH   1  21
TORSDOF 4
ENDMDL
MODEL 6
REMARK VINA RESULT:      -5.8     12.620     14.444
REMARK  4 active torsions:
REMARK  status: ('A' for Active; 'I' for Inactive)
REMARK    1  A    between atoms: C_1  and  C_11 
REMARK    2  A    between atoms: C_6  and  N_13 
REMARK    3  A    between atoms: C_6  and  C_14 
REMARK    4  A    between atoms: C_14  and  C_15 
ROOT
HETATM    1  C   UNK N   1      34.607  16.976   7.788  0.00  0.00     0.168 C 
HETATM    2  C   UNK N   1      34.758  16.043   8.968  0.00  0.00     0.050 C 
HETATM    3  C   UNK N   1      33.923  14.824   8.589  0.00  0.00     0.116 C 
HETATM    4  C   UNK N   1      32.648  14.276   6.655  0.00  0.00     0.117 C 
HETATM    5  C   UNK N   1      31.567  14.845   5.750  0.00  0.00     0.057 C 
HETATM    6  C   UNK N   1      32.092  16.078   5.003  0.00  0.00     0.112 C 
HETATM    7  C   UNK N   1      33.079  16.876   5.841  0.00  0.00     0.263 C 
HETATM    8  N   UNK N   1      32.905  15.296   7.661  0.00  0.00    -0.226 NA
HETATM    9  N   UNK N   1      33.482  16.420   7.073  0.00  0.00    -0.267 N 
HETATM   10  O   UNK N   1      33.606  17.863   5.348  0.00  0.00    -0.269 OA
ENDROOT
BRANCH   6  11
HETATM   11  N   UNK N   1      32.815  15.623   3.823  0.00  0.00    -0.414 N 
HETATM   12  H   UNK N   1      32.909  15.078   2.965  0.00  0.00     0.151 HD
HETATM   13  H   UNK N   1      33.709  16.109   3.892  0.00  0.00     0.151 HD
ENDBRANCH   6  11
BRANCH   6  14
HETATM   14  C   UNK N   1      30.905  16.962   4.582  0.00  0.00     0.079 C 
BRANCH  14  15
HETATM   15  C   UNK N   1      29.801  17.004   5.601  0.00  0.00    -0.055 A 
HETATM   16  C   UNK N   1      29.999  17.581   6.863  0.00  0.00     0.007 A 
HETATM   17  C   UNK N   1      28.976  17.552   7.817  0.00  0.00     0.001 A 
HETATM   18  C   UNK N   1      27.753  16.949   7.511  0.00  0.00     0.000 A 
HETATM   19  C   UNK N   1      27.548  16.381   6.250  0.00  0.00     0.001 A 
HETATM   20  C   UNK N   1      28.573  16.405   5.299  0.00  0.00     0.007 A 
ENDBRANCH  14  15
ENDBRANCH   6  14
BRANCH   1  21
HETATM   21  C   UNK N   1      34.364  18.367   8.296  0.00  0.00     0.258 C 
HETATM   22  O   UNK N   1      35.280  19.161   8.433  0.00  0.00    -0.305 OA
ENDBRANCH   1  21
TORSDOF 4
ENDMDL
MODEL 7
REMARK VINA RESULT:      -5.8     10.961     12.755
REMARK  4 active torsions:
REMARK  status: ('A' for Active; 'I' for Inactive)
REMARK    1  A    between atoms: C_1  and  C_11 
REMARK    2  A    between atoms: C_6  and  N_13 
REMARK    3  A    between atoms: C_6  and  C_14 
REMARK    4  A    between atoms: C_14  and  C_15 
ROOT
HETATM    1  C   UNK N   1      32.445  16.514   6.981  0.00  0.00     0.168 C 
HETATM    2  C   UNK N   1      32.692  17.173   8.320  0.00  0.00     0.050 C 
HETATM    3  C   UNK N   1      31.311  17.651   8.759  0.00  0.00     0.116 C 
HETATM    4  C   UNK N   1      29.151  17.478   7.775  0.00  0.00     0.117 C 
HETATM    5  C   UNK N   1      28.423  17.735   6.466  0.00  0.00     0.057 C 
HETATM    6  C   UNK N   1      28.951  16.801   5.369  0.00  0.00     0.112 C 
HETATM    7  C   UNK N   1      30.434  16.508   5.534  0.00  0.00     0.263 C 
HETATM    8  N   UNK N   1      30.538  17.850   7.541  0.00  0.00    -0.226 NA
HETATM    9  N   UNK N   1      31.125  16.979   6.625  0.00  0.00    -0.267 N 
HETATM   10  O   UNK N   1      30.973  15.742   4.749  0.00  0.00    -0.269 OA
ENDROOT
BRANCH   6  11
HETATM   11  N   UNK N   1      28.256  15.526   5.484  0.00  0.00    -0.414 N 
HETATM   12  H   UNK N   1      28.131  14.586   5.863  0.00  0.00     0.151 HD
HETATM   13  H   UNK N   1      27.473  15.624   4.838  0.00  0.00     0.151 HD
ENDBRANCH   6  11
BRANCH   6  14
HETATM   14  C   UNK N   1      28.675  17.427   3.990  0.00  0.00     0.079 C 
BRANCH  14  15
HETATM   15  C   UNK N   1      27.422  18.254   3.951  0.00  0.00    -0.055 A 
HETATM   16  C   UNK N   1      26.163  17.659   3.788  0.00  0.00     0.007 A 
HETATM   17  C   UNK N   1      25.016  18.455   3.692  0.00  0.00     0.001 A 
HETATM   18  C   UNK N   1      25.125  19.846   3.761  0.00  0.00     0.000 A 
HETATM   19  C   UNK N   1      26.378  20.443   3.932  0.00  0.00     0.001 A 
HETATM   20  C   UNK N   1      27.524  19.648   4.023  0.00  0.00     0.007 A 
ENDBRANCH  14  15
ENDBRANCH   6  14
BRANCH   1  21
HETATM   21  C   UNK N   1      33.512  16.951   6.020  0.00  0.00     0.258 C 
HETATM   22  O   UNK N   1      34.186  17.947   6.230  0.00  0.00    -0.305 OA
ENDBRANCH   1  21
TORSDOF 4
ENDMDL
MODEL 8
REMARK VINA RESULT:      -5.8      2.490      3.563
REMARK  4 active torsions:
REMARK  status: ('A' for Active; 'I' for Inactive)
REMARK    1  A    between atoms: C_1  and  C_11 
REMARK    2  A    between atoms: C_6  and  N_13 
REMARK    3  A    between atoms: C_6  and  C_14 
REMARK    4  A    between atoms: C_14  and  C_15 
ROOT
HETATM    1  C   UNK N   1      29.780  23.856  -5.743  0.00  0.00     0.168 C 
HETATM    2  C   UNK N   1      30.569  23.676  -4.465  0.00  0.00     0.050 C 
HETATM    3  C   UNK N   1      29.534  23.860  -3.360  0.00  0.00     0.116 C 
HETATM    4  C   UNK N   1      27.192  24.284  -3.392  0.00  0.00     0.117 C 
HETATM    5  C   UNK N   1      26.168  25.224  -4.008  0.00  0.00     0.057 C 
HETATM    6  C   UNK N   1      26.111  25.029  -5.528  0.00  0.00     0.112 C 
HETATM    7  C   UNK N   1      27.470  24.670  -6.109  0.00  0.00     0.263 C 
HETATM    8  N   UNK N   1      28.484  24.702  -3.916  0.00  0.00    -0.226 NA
HETATM    9  N   UNK N   1      28.550  24.460  -5.287  0.00  0.00    -0.267 N 
HETATM   10  O   UNK N   1      27.556  24.447  -7.308  0.00  0.00    -0.269 OA
ENDROOT
BRANCH   6  11
HETATM   11  N   UNK N   1      25.224  23.908  -5.811  0.00  0.00    -0.414 N 
HETATM   12  H   UNK N   1      24.501  23.232  -5.562  0.00  0.00     0.151 HD
HETATM   13  H   UNK N   1      25.447  23.668  -6.777  0.00  0.00     0.151 HD
ENDBRANCH   6  11
BRANCH   6  14
HETATM   14  C   UNK N   1      25.564  26.308  -6.186  0.00  0.00     0.079 C 
BRANCH  14  15
HETATM   15  C   UNK N   1      26.211  27.565  -5.676  0.00  0.00    -0.055 A 
HETATM   16  C   UNK N   1      25.729  28.218  -4.532  0.00  0.00     0.007 A 
HETATM   17  C   UNK N   1      26.310  29.419  -4.112  0.00  0.00     0.001 A 
HETATM   18  C   UNK N   1      27.374  29.969  -4.832  0.00  0.00     0.000 A 
HETATM   19  C   UNK N   1      27.863  29.316  -5.968  0.00  0.00     0.001 A 
HETATM   20  C   UNK N   1      27.279  28.119  -6.390  0.00  0.00     0.007 A 
ENDBRANCH  14  15
ENDBRANCH   6  14
BRANCH   1  21
HETATM   21  C   UNK N   1      30.564  24.729  -6.679  0.00  0.00     0.258 C 
HETATM   22  O   UNK N   1      30.915  24.328  -7.777  0.00  0.00    -0.305 OA
ENDBRANCH   1  21
TORSDOF 4
ENDMDL
MODEL 9
REMARK VINA RESULT:      -5.8     12.762     16.426
REMARK  4 active torsions:
REMARK  status: ('A' for Active; 'I' for Inactive)
REMARK    1  A    between atoms: C_1  and  C_11 
REMARK    2  A    between atoms: C_6  and  N_13 
REMARK    3  A    between atoms: C_6  and  C_14 
REMARK    4  A    between atoms: C_14  and  C_15 
ROOT
HETATM    1  C   UNK N   1      31.409  17.534   4.799  0.00  0.00     0.168 C 
HETATM    2  C   UNK N   1      29.916  17.372   4.976  0.00  0.00     0.050 C 
HETATM    3  C   UNK N   1      29.725  17.306   6.488  0.00  0.00     0.116 C 
HETATM    4  C   UNK N   1      31.243  17.448   8.316  0.00  0.00     0.117 C 
HETATM    5  C   UNK N   1      32.548  16.853   8.820  0.00  0.00     0.057 C 
HETATM    6  C   UNK N   1      33.704  17.234   7.886  0.00  0.00     0.112 C 
HETATM    7  C   UNK N   1      33.257  17.331   6.435  0.00  0.00     0.263 C 
HETATM    8  N   UNK N   1      30.977  16.805   7.039  0.00  0.00    -0.226 NA
HETATM    9  N   UNK N   1      31.933  17.184   6.098  0.00  0.00    -0.267 N 
HETATM   10  O   UNK N   1      34.074  17.669   5.590  0.00  0.00    -0.269 OA
ENDROOT
BRANCH   6  11
HETATM   11  N   UNK N   1      34.181  18.557   8.267  0.00  0.00    -0.414 N 
HETATM   12  H   UNK N   1      34.307  19.559   8.119  0.00  0.00     0.151 HD
HETATM   13  H   UNK N   1      34.632  18.395   9.168  0.00  0.00     0.151 HD
ENDBRANCH   6  11
BRANCH   6  14
HETATM   14  C   UNK N   1      34.838  16.205   8.032  0.00  0.00     0.079 C 
BRANCH  14  15
HETATM   15  C   UNK N   1      34.948  15.631   9.417  0.00  0.00    -0.055 A 
HETATM   16  C   UNK N   1      35.488  16.380  10.473  0.00  0.00     0.007 A 
HETATM   17  C   UNK N   1      35.637  15.802  11.738  0.00  0.00     0.001 A 
HETATM   18  C   UNK N   1      35.245  14.478  11.952  0.00  0.00     0.000 A 
HETATM   19  C   UNK N   1      34.698  13.732  10.904  0.00  0.00     0.001 A 
HETATM   20  C   UNK N   1      34.554  14.307   9.638  0.00  0.00     0.007 A 
ENDBRANCH  14  15
ENDBRANCH   6  14
BRANCH   1  21
HETATM   21  C   UNK N   1      31.870  16.619   3.702  0.00  0.00     0.258 C 
HETATM   22  O   UNK N   1      32.428  17.052   2.707  0.00  0.00    -0.305 OA
ENDBRANCH   1  21
TORSDOF 4
ENDMDL
