MODEL 1
REMARK VINA RESULT:      -6.9      0.000      0.000
REMARK  5 active torsions:
REMARK  status: ('A' for Active; 'I' for Inactive)
REMARK    1  A    between atoms: C_2  and  C_3 
REMARK    2  A    between atoms: C_2  and  C_14 
REMARK    3  A    between atoms: C_6  and  N_7 
REMARK    4  A    between atoms: C_10  and  O_11 
REMARK    5  A    between atoms: C_12  and  O_13 
ROOT
HETATM    1  C   UNK N   1      32.975  16.184   8.603  0.00  0.00     0.051 A 
HETATM    2  C   UNK N   1      32.785  15.091   9.463  0.00  0.00     0.021 A 
HETATM    3  C   UNK N   1      33.623  14.825  10.532  0.00  0.00     0.040 A 
HETATM    4  C   UNK N   1      34.105  17.058   8.861  0.00  0.00     0.152 A 
HETATM    5  C   UNK N   1      34.945  16.762   9.979  0.00  0.00     0.133 A 
HETATM    6  C   UNK N   1      34.696  15.654  10.793  0.00  0.00     0.101 A 
ENDROOT
BRANCH   1   7
HETATM    7  C   UNK N   1      31.948  16.366   7.494  0.00  0.00     0.195 C 
HETATM    8  O   UNK N   1      32.147  15.875   6.397  0.00  0.00    -0.287 OA
BRANCH   7   9
HETATM    9  C   UNK N   1      30.675  17.151   7.655  0.00  0.00     0.015 A 
HETATM   10  C   UNK N   1      29.727  17.289   6.627  0.00  0.00     0.015 A 
HETATM   11  C   UNK N   1      28.568  18.045   6.814  0.00  0.00     0.001 A 
HETATM   12  C   UNK N   1      28.347  18.692   8.030  0.00  0.00     0.000 A 
HETATM   13  C   UNK N   1      29.279  18.572   9.061  0.00  0.00     0.001 A 
HETATM   14  C   UNK N   1      30.431  17.801   8.877  0.00  0.00     0.015 A 
ENDBRANCH   7   9
ENDBRANCH   1   7
BRANCH   4  15
HETATM   15  N   UNK N   1      34.450  18.185   8.027  0.00  0.00    -0.112 N 
HETATM   16  O   UNK N   1      34.528  18.069   6.845  0.00  0.00    -0.532 OA
HETATM   17  O   UNK N   1      34.886  19.303   8.569  0.00  0.00    -0.532 OA
ENDBRANCH   4  15
BRANCH   5  18
HETATM   18  O   UNK N   1      36.018  17.524  10.258  0.00  0.00    -0.356 OA
HETATM   19  H   UNK N   1      36.582  17.820   9.570  0.00  0.00     0.218 HD
ENDBRANCH   5  18
BRANCH   6  20
HETATM   20  O   UNK N   1      35.509  15.378  11.827  0.00  0.00    -0.358 OA
HETATM   21  H   UNK N   1      35.311  15.706  12.682  0.00  0.00     0.217 HD
ENDBRANCH   6  20
TORSDOF 5
ENDMDL
MODEL 2
REMARK VINA RESULT:      -6.8      9.824     10.980
REMARK  5 active torsions:
REMARK  status: ('A' for Active; 'I' for Inactive)
REMARK    1  A    between atoms: C_2  and  C_3 
REMARK    2  A    between atoms: C_2  and  C_14 
REMARK    3  A    between atoms: C_6  and  N_7 
REMARK    4  A    between atoms: C_10  and  O_11 
REMARK    5  A    between atoms: C_12  and  O_13 
ROOT
HETATM    1  C   UNK N   1      22.038  12.731   9.787  0.00  0.00     0.051 A 
HETATM    2  C   UNK N   1      21.204  12.397  10.865  0.00  0.00     0.021 A 
HETATM    3  C   UNK N   1      21.694  12.043  12.110  0.00  0.00     0.040 A 
HETATM    4  C   UNK N   1      23.473  12.692  10.006  0.00  0.00     0.152 A 
HETATM    5  C   UNK N   1      23.947  12.333  11.306  0.00  0.00     0.133 A 
HETATM    6  C   UNK N   1      23.057  12.012  12.333  0.00  0.00     0.101 A 
ENDROOT
BRANCH   1   7
HETATM    7  C   UNK N   1      21.350  13.136   8.490  0.00  0.00     0.195 C 
HETATM    8  O   UNK N   1      20.987  12.279   7.705  0.00  0.00    -0.287 OA
BRANCH   7   9
HETATM    9  C   UNK N   1      21.098  14.563   8.089  0.00  0.00     0.015 A 
HETATM   10  C   UNK N   1      21.711  15.163   6.976  0.00  0.00     0.015 A 
HETATM   11  C   UNK N   1      21.464  16.499   6.653  0.00  0.00     0.001 A 
HETATM   12  C   UNK N   1      20.611  17.263   7.449  0.00  0.00     0.000 A 
HETATM   13  C   UNK N   1      19.997  16.687   8.562  0.00  0.00     0.001 A 
HETATM   14  C   UNK N   1      20.234  15.345   8.876  0.00  0.00     0.015 A 
ENDBRANCH   7   9
ENDBRANCH   1   7
BRANCH   4  15
HETATM   15  N   UNK N   1      24.447  12.958   8.974  0.00  0.00    -0.112 N 
HETATM   16  O   UNK N   1      24.495  12.285   7.992  0.00  0.00    -0.532 OA
HETATM   17  O   UNK N   1      25.427  13.809   9.189  0.00  0.00    -0.532 OA
ENDBRANCH   4  15
BRANCH   5  18
HETATM   18  O   UNK N   1      25.265  12.261  11.565  0.00  0.00    -0.356 OA
HETATM   19  H   UNK N   1      25.728  13.011  11.886  0.00  0.00     0.218 HD
ENDBRANCH   5  18
BRANCH   6  20
HETATM   20  O   UNK N   1      23.520  11.655  13.543  0.00  0.00    -0.358 OA
HETATM   21  H   UNK N   1      24.421  11.791  13.762  0.00  0.00     0.217 HD
ENDBRANCH   6  20
TORSDOF 5
ENDMDL
MODEL 3
REMARK VINA RESULT:      -6.8      3.731      6.811
REMARK  5 active torsions:
REMARK  status: ('A' for Active; 'I' for Inactive)
REMARK    1  A    between atoms: C_2  and  C_3 
REMARK    2  A    between atoms: C_2  and  C_14 
REMARK    3  A    between atoms: C_6  and  N_7 
REMARK    4  A    between atoms: C_10  and  O_11 
REMARK    5  A    between atoms: C_12  and  O_13 
ROOT
HETATM    1  C   UNK N   1      28.984  18.031   6.345  0.00  0.00     0.051 A 
HETATM    2  C   UNK N   1      28.732  18.528   5.057  0.00  0.00     0.021 A 
HETATM    3  C   UNK N   1      27.840  19.557   4.812  0.00  0.00     0.040 A 
HETATM    4  C   UNK N   1      28.266  18.634   7.454  0.00  0.00     0.152 A 
HETATM    5  C   UNK N   1      27.359  19.701   7.169  0.00  0.00     0.133 A 
HETATM    6  C   UNK N   1      27.157  20.144   5.860  0.00  0.00     0.101 A 
ENDROOT
BRANCH   1   7
HETATM    7  C   UNK N   1      30.022  16.922   6.458  0.00  0.00     0.195 C 
HETATM    8  O   UNK N   1      29.687  15.762   6.297  0.00  0.00    -0.287 OA
BRANCH   7   9
HETATM    9  C   UNK N   1      31.469  17.163   6.787  0.00  0.00     0.015 A 
HETATM   10  C   UNK N   1      31.920  17.448   8.087  0.00  0.00     0.015 A 
HETATM   11  C   UNK N   1      33.272  17.685   8.343  0.00  0.00     0.001 A 
HETATM   12  C   UNK N   1      34.195  17.659   7.297  0.00  0.00     0.000 A 
HETATM   13  C   UNK N   1      33.766  17.385   5.999  0.00  0.00     0.001 A 
HETATM   14  C   UNK N   1      32.414  17.132   5.746  0.00  0.00     0.015 A 
ENDBRANCH   7   9
ENDBRANCH   1   7
BRANCH   4  15
HETATM   15  N   UNK N   1      28.387  18.187   8.821  0.00  0.00    -0.112 N 
HETATM   16  O   UNK N   1      27.623  17.394   9.275  0.00  0.00    -0.532 OA
HETATM   17  O   UNK N   1      29.208  18.798   9.649  0.00  0.00    -0.532 OA
ENDBRANCH   4  15
BRANCH   5  18
HETATM   18  O   UNK N   1      26.650  20.287   8.152  0.00  0.00    -0.356 OA
HETATM   19  H   UNK N   1      27.044  20.454   8.986  0.00  0.00     0.218 HD
ENDBRANCH   5  18
BRANCH   6  20
HETATM   20  O   UNK N   1      26.284  21.134   5.607  0.00  0.00    -0.358 OA
HETATM   21  H   UNK N   1      25.477  20.951   5.168  0.00  0.00     0.217 HD
ENDBRANCH   6  20
TORSDOF 5
ENDMDL
MODEL 4
REMARK VINA RESULT:      -6.5     14.425     15.977
REMARK  5 active torsions:
REMARK  status: ('A' for Active; 'I' for Inactive)
REMARK    1  A    between atoms: C_2  and  C_3 
REMARK    2  A    between atoms: C_2  and  C_14 
REMARK    3  A    between atoms: C_6  and  N_7 
REMARK    4  A    between atoms: C_10  and  O_11 
REMARK    5  A    between atoms: C_12  and  O_13 
ROOT
HETATM    1  C   UNK N   1      28.310  23.699  -4.549  0.00  0.00     0.051 A 
HETATM    2  C   UNK N   1      27.907  23.133  -5.769  0.00  0.00     0.021 A 
HETATM    3  C   UNK N   1      28.785  22.491  -6.624  0.00  0.00     0.040 A 
HETATM    4  C   UNK N   1      29.713  23.599  -4.190  0.00  0.00     0.152 A 
HETATM    5  C   UNK N   1      30.593  22.921  -5.089  0.00  0.00     0.133 A 
HETATM    6  C   UNK N   1      30.120  22.382  -6.288  0.00  0.00     0.101 A 
ENDROOT
BRANCH   1   7
HETATM    7  C   UNK N   1      27.220  24.339  -3.700  0.00  0.00     0.195 C 
HETATM    8  O   UNK N   1      26.933  23.856  -2.619  0.00  0.00    -0.287 OA
BRANCH   7   9
HETATM    9  C   UNK N   1      26.433  25.548  -4.123  0.00  0.00     0.015 A 
HETATM   10  C   UNK N   1      25.669  25.588  -5.302  0.00  0.00     0.015 A 
HETATM   11  C   UNK N   1      24.970  26.741  -5.667  0.00  0.00     0.001 A 
HETATM   12  C   UNK N   1      25.039  27.881  -4.866  0.00  0.00     0.000 A 
HETATM   13  C   UNK N   1      25.797  27.863  -3.695  0.00  0.00     0.001 A 
HETATM   14  C   UNK N   1      26.483  26.704  -3.323  0.00  0.00     0.015 A 
ENDBRANCH   7   9
ENDBRANCH   1   7
BRANCH   4  15
HETATM   15  N   UNK N   1      30.275  24.181  -2.994  0.00  0.00    -0.112 N 
HETATM   16  O   UNK N   1      30.714  25.289  -3.002  0.00  0.00    -0.532 OA
HETATM   17  O   UNK N   1      30.502  23.433  -1.935  0.00  0.00    -0.532 OA
ENDBRANCH   4  15
BRANCH   5  18
HETATM   18  O   UNK N   1      31.907  22.812  -4.820  0.00  0.00    -0.356 OA
HETATM   19  H   UNK N   1      32.287  21.974  -4.640  0.00  0.00     0.218 HD
ENDBRANCH   5  18
BRANCH   6  20
HETATM   20  O   UNK N   1      30.966  21.766  -7.133  0.00  0.00    -0.358 OA
HETATM   21  H   UNK N   1      31.081  22.092  -8.004  0.00  0.00     0.217 HD
ENDBRANCH   6  20
TORSDOF 5
ENDMDL
MODEL 5
REMARK VINA RESULT:      -6.5      2.702      4.152
REMARK  5 active torsions:
REMARK  status: ('A' for Active; 'I' for Inactive)
REMARK    1  A    between atoms: C_2  and  C_3 
REMARK    2  A    between atoms: C_2  and  C_14 
REMARK    3  A    between atoms: C_6  and  N_7 
REMARK    4  A    between atoms: C_10  and  O_11 
REMARK    5  A    between atoms: C_12  and  O_13 
ROOT
HETATM    1  C   UNK N   1      30.504  17.373   6.459  0.00  0.00     0.051 A 
HETATM    2  C   UNK N   1      31.362  17.165   5.368  0.00  0.00     0.021 A 
HETATM    3  C   UNK N   1      32.739  17.104   5.499  0.00  0.00     0.040 A 
HETATM    4  C   UNK N   1      31.106  17.530   7.771  0.00  0.00     0.152 A 
HETATM    5  C   UNK N   1      32.529  17.451   7.874  0.00  0.00     0.133 A 
HETATM    6  C   UNK N   1      33.322  17.243   6.743  0.00  0.00     0.101 A 
ENDROOT
BRANCH   1   7
HETATM    7  C   UNK N   1      29.010  17.378   6.161  0.00  0.00     0.195 C 
HETATM    8  O   UNK N   1      28.387  16.332   6.175  0.00  0.00    -0.287 OA
BRANCH   7   9
HETATM    9  C   UNK N   1      28.232  18.619   5.820  0.00  0.00     0.015 A 
HETATM   10  C   UNK N   1      27.893  18.969   4.502  0.00  0.00     0.015 A 
HETATM   11  C   UNK N   1      27.186  20.142   4.229  0.00  0.00     0.001 A 
HETATM   12  C   UNK N   1      26.821  20.995   5.272  0.00  0.00     0.000 A 
HETATM   13  C   UNK N   1      27.153  20.667   6.586  0.00  0.00     0.001 A 
HETATM   14  C   UNK N   1      27.848  19.485   6.859  0.00  0.00     0.015 A 
ENDBRANCH   7   9
ENDBRANCH   1   7
BRANCH   4  15
HETATM   15  N   UNK N   1      30.348  17.802   8.970  0.00  0.00    -0.112 N 
HETATM   16  O   UNK N   1      30.323  18.896   9.441  0.00  0.00    -0.532 OA
HETATM   17  O   UNK N   1      29.846  16.812   9.677  0.00  0.00    -0.532 OA
ENDBRANCH   4  15
BRANCH   5  18
HETATM   18  O   UNK N   1      33.146  17.608   9.060  0.00  0.00    -0.356 OA
HETATM   19  H   UNK N   1      33.060  18.410   9.537  0.00  0.00     0.218 HD
ENDBRANCH   5  18
BRANCH   6  20
HETATM   20  O   UNK N   1      34.661  17.193   6.855  0.00  0.00    -0.358 OA
HETATM   21  H   UNK N   1      35.194  17.816   6.402  0.00  0.00     0.217 HD
ENDBRANCH   6  20
TORSDOF 5
ENDMDL
MODEL 6
REMARK VINA RESULT:      -6.4     13.453     15.600
REMARK  5 active torsions:
REMARK  status: ('A' for Active; 'I' for Inactive)
REMARK    1  A    between atoms: C_2  and  C_3 
REMARK    2  A    between atoms: C_2  and  C_14 
REMARK    3  A    between atoms: C_6  and  N_7 
REMARK    4  A    between atoms: C_10  and  O_11 
REMARK    5  A    between atoms: C_12  and  O_13 
ROOT
HETATM    1  C   UNK N   1      29.412  23.036  -5.069  0.00  0.00     0.051 A 
HETATM    2  C   UNK N   1      30.503  22.218  -5.402  0.00  0.00     0.021 A 
HETATM    3  C   UNK N   1      31.367  21.698  -4.454  0.00  0.00     0.040 A 
HETATM    4  C   UNK N   1      29.201  23.340  -3.665  0.00  0.00     0.152 A 
HETATM    5  C   UNK N   1      30.104  22.780  -2.710  0.00  0.00     0.133 A 
HETATM    6  C   UNK N   1      31.170  21.974  -3.115  0.00  0.00     0.101 A 
ENDROOT
BRANCH   1   7
HETATM    7  C   UNK N   1      28.530  23.500  -6.221  0.00  0.00     0.195 C 
HETATM    8  O   UNK N   1      28.676  24.617  -6.682  0.00  0.00    -0.287 OA
BRANCH   7   9
HETATM    9  C   UNK N   1      27.445  22.658  -6.833  0.00  0.00     0.015 A 
HETATM   10  C   UNK N   1      26.086  22.811  -6.510  0.00  0.00     0.015 A 
HETATM   11  C   UNK N   1      25.113  21.992  -7.088  0.00  0.00     0.001 A 
HETATM   12  C   UNK N   1      25.487  20.993  -7.987  0.00  0.00     0.000 A 
HETATM   13  C   UNK N   1      26.832  20.821  -8.316  0.00  0.00     0.001 A 
HETATM   14  C   UNK N   1      27.803  21.652  -7.748  0.00  0.00     0.015 A 
ENDBRANCH   7   9
ENDBRANCH   1   7
BRANCH   4  15
HETATM   15  N   UNK N   1      28.153  24.210  -3.186  0.00  0.00    -0.112 N 
HETATM   16  O   UNK N   1      27.230  23.774  -2.572  0.00  0.00    -0.532 OA
HETATM   17  O   UNK N   1      28.089  25.460  -3.594  0.00  0.00    -0.532 OA
ENDBRANCH   4  15
BRANCH   5  18
HETATM   18  O   UNK N   1      29.970  23.041  -1.397  0.00  0.00    -0.356 OA
HETATM   19  H   UNK N   1      30.698  23.360  -0.900  0.00  0.00     0.218 HD
ENDBRANCH   5  18
BRANCH   6  20
HETATM   20  O   UNK N   1      32.023  21.472  -2.205  0.00  0.00    -0.358 OA
HETATM   21  H   UNK N   1      31.922  21.684  -1.298  0.00  0.00     0.217 HD
ENDBRANCH   6  20
TORSDOF 5
ENDMDL
MODEL 7
REMARK VINA RESULT:      -6.4      2.200      2.694
REMARK  5 active torsions:
REMARK  status: ('A' for Active; 'I' for Inactive)
REMARK    1  A    between atoms: C_2  and  C_3 
REMARK    2  A    between atoms: C_2  and  C_14 
REMARK    3  A    between atoms: C_6  and  N_7 
REMARK    4  A    between atoms: C_10  and  O_11 
REMARK    5  A    between atoms: C_12  and  O_13 
ROOT
HETATM    1  C   UNK N   1      34.729  15.693   7.812  0.00  0.00     0.051 A 
HETATM    2  C   UNK N   1      34.956  14.376   8.241  0.00  0.00     0.021 A 
HETATM    3  C   UNK N   1      35.155  14.044   9.569  0.00  0.00     0.040 A 
HETATM    4  C   UNK N   1      34.710  16.737   8.821  0.00  0.00     0.152 A 
HETATM    5  C   UNK N   1      34.908  16.360  10.185  0.00  0.00     0.133 A 
HETATM    6  C   UNK N   1      35.130  15.027  10.539  0.00  0.00     0.101 A 
ENDROOT
BRANCH   1   7
HETATM    7  C   UNK N   1      34.489  15.895   6.322  0.00  0.00     0.195 C 
HETATM    8  O   UNK N   1      35.386  15.670   5.529  0.00  0.00    -0.287 OA
BRANCH   7   9
HETATM    9  C   UNK N   1      33.191  16.388   5.744  0.00  0.00     0.015 A 
HETATM   10  C   UNK N   1      33.128  17.285   4.665  0.00  0.00     0.015 A 
HETATM   11  C   UNK N   1      31.900  17.732   4.173  0.00  0.00     0.001 A 
HETATM   12  C   UNK N   1      30.713  17.303   4.767  0.00  0.00     0.000 A 
HETATM   13  C   UNK N   1      30.755  16.417   5.844  0.00  0.00     0.001 A 
HETATM   14  C   UNK N   1      31.985  15.957   6.324  0.00  0.00     0.015 A 
ENDBRANCH   7   9
ENDBRANCH   1   7
BRANCH   4  15
HETATM   15  N   UNK N   1      34.541  18.139   8.518  0.00  0.00    -0.112 N 
HETATM   16  O   UNK N   1      35.412  18.921   8.740  0.00  0.00    -0.532 OA
HETATM   17  O   UNK N   1      33.357  18.609   8.187  0.00  0.00    -0.532 OA
ENDBRANCH   4  15
BRANCH   5  18
HETATM   18  O   UNK N   1      34.920  17.285  11.163  0.00  0.00    -0.356 OA
HETATM   19  H   UNK N   1      35.658  17.361  11.736  0.00  0.00     0.218 HD
ENDBRANCH   5  18
BRANCH   6  20
HETATM   20  O   UNK N   1      35.337  14.693  11.824  0.00  0.00    -0.358 OA
HETATM   21  H   UNK N   1      34.680  14.871  12.469  0.00  0.00     0.217 HD
ENDBRANCH   6  20
TORSDOF 5
ENDMDL
MODEL 8
REMARK VINA RESULT:      -6.4     10.396     12.219
REMARK  5 active torsions:
REMARK  status: ('A' for Active; 'I' for Inactive)
REMARK    1  A    between atoms: C_2  and  C_3 
REMARK    2  A    between atoms: C_2  and  C_14 
REMARK    3  A    between atoms: C_6  and  N_7 
REMARK    4  A    between atoms: C_10  and  O_11 
REMARK    5  A    between atoms: C_12  and  O_13 
ROOT
HETATM    1  C   UNK N   1      21.643  15.147   6.993  0.00  0.00     0.051 A 
HETATM    2  C   UNK N   1      22.698  15.070   6.070  0.00  0.00     0.021 A 
HETATM    3  C   UNK N   1      23.194  16.178   5.407  0.00  0.00     0.040 A 
HETATM    4  C   UNK N   1      21.060  16.452   7.245  0.00  0.00     0.152 A 
HETATM    5  C   UNK N   1      21.602  17.578   6.552  0.00  0.00     0.133 A 
HETATM    6  C   UNK N   1      22.654  17.426   5.645  0.00  0.00     0.101 A 
ENDROOT
BRANCH   1   7
HETATM    7  C   UNK N   1      21.232  13.846   7.671  0.00  0.00     0.195 C 
HETATM    8  O   UNK N   1      20.296  13.204   7.231  0.00  0.00    -0.287 OA
BRANCH   7   9
HETATM    9  C   UNK N   1      21.909  13.293   8.894  0.00  0.00     0.015 A 
HETATM   10  C   UNK N   1      23.302  13.140   8.994  0.00  0.00     0.015 A 
HETATM   11  C   UNK N   1      23.887  12.603  10.142  0.00  0.00     0.001 A 
HETATM   12  C   UNK N   1      23.083  12.190  11.206  0.00  0.00     0.000 A 
HETATM   13  C   UNK N   1      21.697  12.328  11.124  0.00  0.00     0.001 A 
HETATM   14  C   UNK N   1      21.115  12.881   9.979  0.00  0.00     0.015 A 
ENDBRANCH   7   9
ENDBRANCH   1   7
BRANCH   4  15
HETATM   15  N   UNK N   1      19.937  16.669   8.126  0.00  0.00    -0.112 N 
HETATM   16  O   UNK N   1      18.867  16.210   7.877  0.00  0.00    -0.532 OA
HETATM   17  O   UNK N   1      20.021  17.545   9.106  0.00  0.00    -0.532 OA
ENDBRANCH   4  15
BRANCH   5  18
HETATM   18  O   UNK N   1      21.091  18.810   6.729  0.00  0.00    -0.356 OA
HETATM   19  H   UNK N   1      20.241  19.024   6.398  0.00  0.00     0.218 HD
ENDBRANCH   5  18
BRANCH   6  20
HETATM   20  O   UNK N   1      23.137  18.493   4.985  0.00  0.00    -0.358 OA
HETATM   21  H   UNK N   1      24.019  18.491   4.668  0.00  0.00     0.217 HD
ENDBRANCH   6  20
TORSDOF 5
ENDMDL
MODEL 9
REMARK VINA RESULT:      -6.1      2.476      4.030
REMARK  5 active torsions:
REMARK  status: ('A' for Active; 'I' for Inactive)
REMARK    1  A    between atoms: C_2  and  C_3 
REMARK    2  A    between atoms: C_2  and  C_14 
REMARK    3  A    between atoms: C_6  and  N_7 
REMARK    4  A    between atoms: C_10  and  O_11 
REMARK    5  A    between atoms: C_12  and  O_13 
ROOT
HETATM    1  C   UNK N   1      30.795  17.378   6.815  0.00  0.00     0.051 A 
HETATM    2  C   UNK N   1      31.074  17.704   8.152  0.00  0.00     0.021 A 
HETATM    3  C   UNK N   1      32.363  17.817   8.642  0.00  0.00     0.040 A 
HETATM    4  C   UNK N   1      31.921  17.149   5.927  0.00  0.00     0.152 A 
HETATM    5  C   UNK N   1      33.239  17.284   6.462  0.00  0.00     0.133 A 
HETATM    6  C   UNK N   1      33.442  17.611   7.805  0.00  0.00     0.101 A 
ENDROOT
BRANCH   1   7
HETATM    7  C   UNK N   1      29.326  17.328   6.416  0.00  0.00     0.195 C 
HETATM    8  O   UNK N   1      28.752  16.256   6.354  0.00  0.00    -0.287 OA
BRANCH   7   9
HETATM    9  C   UNK N   1      28.516  18.544   6.063  0.00  0.00     0.015 A 
HETATM   10  C   UNK N   1      27.929  19.379   7.029  0.00  0.00     0.015 A 
HETATM   11  C   UNK N   1      27.167  20.487   6.655  0.00  0.00     0.001 A 
HETATM   12  C   UNK N   1      26.963  20.770   5.304  0.00  0.00     0.000 A 
HETATM   13  C   UNK N   1      27.533  19.949   4.329  0.00  0.00     0.001 A 
HETATM   14  C   UNK N   1      28.309  18.849   4.706  0.00  0.00     0.015 A 
ENDBRANCH   7   9
ENDBRANCH   1   7
BRANCH   4  15
HETATM   15  N   UNK N   1      31.781  16.755   4.545  0.00  0.00    -0.112 N 
HETATM   16  O   UNK N   1      31.672  15.607   4.246  0.00  0.00    -0.532 OA
HETATM   17  O   UNK N   1      31.980  17.629   3.582  0.00  0.00    -0.532 OA
ENDBRANCH   4  15
BRANCH   5  18
HETATM   18  O   UNK N   1      34.322  17.066   5.693  0.00  0.00    -0.356 OA
HETATM   19  H   UNK N   1      34.659  17.746   5.142  0.00  0.00     0.218 HD
ENDBRANCH   5  18
BRANCH   6  20
HETATM   20  O   UNK N   1      34.689  17.712   8.296  0.00  0.00    -0.358 OA
HETATM   21  H   UNK N   1      35.067  16.998   8.770  0.00  0.00     0.217 HD
ENDBRANCH   6  20
TORSDOF 5
ENDMDL
