MODEL 1
REMARK VINA RESULT:      -6.3      0.000      0.000
REMARK  9 active torsions:
REMARK  status: ('A' for Active; 'I' for Inactive)
REMARK    1  A    between atoms: C_6  and  O_5 
REMARK    2  A    between atoms: C_7  and  C_8 
REMARK    3  A    between atoms: C_8  and  S_9 
REMARK    4  A    between atoms: S_9  and  C_10 
REMARK    5  A    between atoms: C_10  and  C_11 
REMARK    6  A    between atoms: C_11  and  C_12 
REMARK    7  A    between atoms: N_15  and  C_17 
REMARK    8  A    between atoms: C_17  and  C_23 
REMARK    9  A    between atoms: C_19  and  N_20 
ROOT
HETATM    1  C   UNK N   1      24.923  12.753   9.975  0.00  0.00     0.182 A 
HETATM    2  C   UNK N   1      22.435  12.529  11.058  0.00  0.00     0.103 A 
HETATM    3  C   UNK N   1      22.606  12.961   9.777  0.00  0.00     0.073 A 
HETATM    4  C   UNK N   1      20.470  12.958  10.324  0.00  0.00     0.099 A 
HETATM    5  N   UNK N   1      21.146  12.509  11.406  0.00  0.00    -0.360 N 
HETATM    6  C   UNK N   1      23.534  12.201  11.829  0.00  0.00     0.129 A 
HETATM    7  N   UNK N   1      23.827  13.078   9.215  0.00  0.00    -0.350 N 
ATOM      8  HN  UNK N   1      23.933  13.401   8.253  1.00  0.00     0.166 HD
HETATM    9  C   UNK N   1      21.357  13.246   9.281  0.00  0.00     0.015 A 
HETATM   10  N   UNK N   1      24.770  12.322  11.273  0.00  0.00    -0.337 N 
ATOM     11  HN  UNK N   1      25.595  12.089  11.826  1.00  0.00     0.168 HD
HETATM   12  H   UNK N   1      20.768  12.226  12.270  0.00  0.00     0.165 HD
ENDROOT
BRANCH   9  13
HETATM   13  C   UNK N   1      20.968  13.801   7.917  0.00  0.00     0.315 C 
BRANCH  13  14
HETATM   14  N   UNK N   1      21.401  15.194   7.803  0.00  0.00     0.095 N 
HETATM   15  C   UNK N   1      21.722  15.509   6.421  0.00  0.00     0.280 C 
HETATM   16  C   UNK N   1      21.906  16.958   6.483  0.00  0.00     0.054 C 
HETATM   17  C   UNK N   1      20.586  17.363   7.123  0.00  0.00     0.152 C 
HETATM   18  C   UNK N   1      20.407  16.223   8.161  0.00  0.00     0.304 C 
BRANCH  16  19
HETATM   19  C   UNK N   1      22.524  17.539   5.230  0.00  0.00     0.082 C 
BRANCH  19  20
HETATM   20  S   UNK N   1      21.860  17.131   3.606  0.00  0.00    -0.169 SA
BRANCH  20  21
HETATM   21  C   UNK N   1      21.028  18.754   3.691  0.00  0.00     0.073 C 
BRANCH  21  22
HETATM   22  C   UNK N   1      22.004  19.861   3.322  0.00  0.00     0.010 C 
BRANCH  22  23
HETATM   23  C   UNK N   1      21.293  20.874   2.457  0.00  0.00    -0.004 C 
HETATM   24  C   UNK N   1      20.924  20.246   1.132  0.00  0.00     0.005 C 
ENDBRANCH  22  23
ENDBRANCH  21  22
ENDBRANCH  20  21
ENDBRANCH  19  20
ENDBRANCH  16  19
BRANCH  17  25
HETATM   25  O   UNK N   1      20.682  18.618   7.724  0.00  0.00    -0.393 OA
HETATM   26  H   UNK N   1      20.528  19.531   7.433  0.00  0.00     0.210 HD
ENDBRANCH  17  25
ENDBRANCH  13  14
ENDBRANCH   9  13
BRANCH   6  27
HETATM   27  N   UNK N   1      23.377  11.774  13.166  0.00  0.00    -0.384 N 
HETATM   28  H   UNK N   1      23.468  10.820  13.393  0.00  0.00     0.157 HD
HETATM   29  H   UNK N   1      23.179  12.431  13.873  0.00  0.00     0.157 HD
ENDBRANCH   6  27
TORSDOF 9
ENDMDL
MODEL 2
REMARK VINA RESULT:      -6.1      1.878      2.291
REMARK  9 active torsions:
REMARK  status: ('A' for Active; 'I' for Inactive)
REMARK    1  A    between atoms: C_6  and  O_5 
REMARK    2  A    between atoms: C_7  and  C_8 
REMARK    3  A    between atoms: C_8  and  S_9 
REMARK    4  A    between atoms: S_9  and  C_10 
REMARK    5  A    between atoms: C_10  and  C_11 
REMARK    6  A    between atoms: C_11  and  C_12 
REMARK    7  A    between atoms: N_15  and  C_17 
REMARK    8  A    between atoms: C_17  and  C_23 
REMARK    9  A    between atoms: C_19  and  N_20 
ROOT
HETATM    1  C   UNK N   1      25.095  12.864   9.805  0.00  0.00     0.182 A 
HETATM    2  C   UNK N   1      22.539  12.713  10.731  0.00  0.00     0.103 A 
HETATM    3  C   UNK N   1      22.800  13.114   9.455  0.00  0.00     0.073 A 
HETATM    4  C   UNK N   1      20.634  13.166   9.865  0.00  0.00     0.099 A 
HETATM    5  N   UNK N   1      21.231  12.727  10.997  0.00  0.00    -0.360 N 
HETATM    6  C   UNK N   1      23.581  12.381  11.577  0.00  0.00     0.129 A 
HETATM    7  N   UNK N   1      24.057  13.195   8.970  0.00  0.00    -0.350 N 
ATOM      8  HN  UNK N   1      24.229  13.495   8.010  1.00  0.00     0.166 HD
HETATM    9  C   UNK N   1      21.591  13.414   8.875  0.00  0.00     0.015 A 
HETATM   10  N   UNK N   1      24.851  12.464  11.099  0.00  0.00    -0.337 N 
ATOM     11  HN  UNK N   1      25.635  12.227  11.708  1.00  0.00     0.168 HD
HETATM   12  H   UNK N   1      20.794  12.471  11.841  0.00  0.00     0.165 HD
ENDROOT
BRANCH   9  13
HETATM   13  C   UNK N   1      21.301  13.946   7.478  0.00  0.00     0.315 C 
BRANCH  13  14
HETATM   14  N   UNK N   1      21.739  15.339   7.374  0.00  0.00     0.095 N 
HETATM   15  C   UNK N   1      22.069  15.660   5.997  0.00  0.00     0.280 C 
HETATM   16  C   UNK N   1      22.256  17.109   6.067  0.00  0.00     0.054 C 
HETATM   17  C   UNK N   1      20.934  17.513   6.700  0.00  0.00     0.152 C 
HETATM   18  C   UNK N   1      20.745  16.368   7.731  0.00  0.00     0.304 C 
BRANCH  16  19
HETATM   19  C   UNK N   1      22.885  17.694   4.821  0.00  0.00     0.082 C 
BRANCH  19  20
HETATM   20  S   UNK N   1      24.611  17.365   4.424  0.00  0.00    -0.169 SA
BRANCH  20  21
HETATM   21  C   UNK N   1      24.895  19.123   4.828  0.00  0.00     0.073 C 
BRANCH  21  22
HETATM   22  C   UNK N   1      25.129  19.920   3.553  0.00  0.00     0.010 C 
BRANCH  22  23
HETATM   23  C   UNK N   1      26.601  20.234   3.434  0.00  0.00    -0.004 C 
HETATM   24  C   UNK N   1      27.172  20.538   4.800  0.00  0.00     0.005 C 
ENDBRANCH  22  23
ENDBRANCH  21  22
ENDBRANCH  20  21
ENDBRANCH  19  20
ENDBRANCH  16  19
BRANCH  17  25
HETATM   25  O   UNK N   1      21.028  18.765   7.308  0.00  0.00    -0.393 OA
HETATM   26  H   UNK N   1      21.534  19.130   8.052  0.00  0.00     0.210 HD
ENDBRANCH  17  25
ENDBRANCH  13  14
ENDBRANCH   9  13
BRANCH   6  27
HETATM   27  N   UNK N   1      23.331  11.986  12.910  0.00  0.00    -0.384 N 
HETATM   28  H   UNK N   1      23.044  11.064  13.106  0.00  0.00     0.157 HD
HETATM   29  H   UNK N   1      23.444  12.633  13.644  0.00  0.00     0.157 HD
ENDBRANCH   6  27
TORSDOF 9
ENDMDL
MODEL 3
REMARK VINA RESULT:      -6.1      3.601      8.871
REMARK  9 active torsions:
REMARK  status: ('A' for Active; 'I' for Inactive)
REMARK    1  A    between atoms: C_6  and  O_5 
REMARK    2  A    between atoms: C_7  and  C_8 
REMARK    3  A    between atoms: C_8  and  S_9 
REMARK    4  A    between atoms: S_9  and  C_10 
REMARK    5  A    between atoms: C_10  and  C_11 
REMARK    6  A    between atoms: C_11  and  C_12 
REMARK    7  A    between atoms: N_15  and  C_17 
REMARK    8  A    between atoms: C_17  and  C_23 
REMARK    9  A    between atoms: C_19  and  N_20 
ROOT
HETATM    1  C   UNK N   1      20.854  20.123   2.553  0.00  0.00     0.182 A 
HETATM    2  C   UNK N   1      20.182  17.484   2.540  0.00  0.00     0.103 A 
HETATM    3  C   UNK N   1      20.500  18.121   3.701  0.00  0.00     0.073 A 
HETATM    4  C   UNK N   1      20.065  15.991   4.069  0.00  0.00     0.099 A 
HETATM    5  N   UNK N   1      19.904  16.194   2.742  0.00  0.00    -0.360 N 
HETATM    6  C   UNK N   1      20.202  18.178   1.344  0.00  0.00     0.129 A 
HETATM    7  N   UNK N   1      20.834  19.428   3.737  0.00  0.00    -0.350 N 
ATOM      8  HN  UNK N   1      21.066  19.886   4.618  1.00  0.00     0.166 HD
HETATM    9  C   UNK N   1      20.435  17.182   4.703  0.00  0.00     0.015 A 
HETATM   10  N   UNK N   1      20.542  19.494   1.369  0.00  0.00    -0.337 N 
ATOM     11  HN  UNK N   1      20.567  20.024   0.497  1.00  0.00     0.168 HD
HETATM   12  H   UNK N   1      19.637  15.531   2.065  0.00  0.00     0.165 HD
ENDROOT
BRANCH   9  13
HETATM   13  C   UNK N   1      20.734  17.338   6.188  0.00  0.00     0.315 C 
BRANCH  13  14
HETATM   14  N   UNK N   1      20.516  16.066   6.877  0.00  0.00     0.095 N 
HETATM   15  C   UNK N   1      21.787  15.492   7.284  0.00  0.00     0.280 C 
HETATM   16  C   UNK N   1      21.352  14.379   8.128  0.00  0.00     0.054 C 
HETATM   17  C   UNK N   1      20.449  15.123   9.099  0.00  0.00     0.152 C 
HETATM   18  C   UNK N   1      19.753  16.124   8.138  0.00  0.00     0.304 C 
BRANCH  16  19
HETATM   19  C   UNK N   1      22.468  13.418   8.477  0.00  0.00     0.082 C 
BRANCH  19  20
HETATM   20  S   UNK N   1      22.636  11.851   7.605  0.00  0.00    -0.169 SA
BRANCH  20  21
HETATM   21  C   UNK N   1      23.543  11.283   9.084  0.00  0.00     0.073 C 
BRANCH  21  22
HETATM   22  C   UNK N   1      22.723  11.556  10.336  0.00  0.00     0.010 C 
BRANCH  22  23
HETATM   23  C   UNK N   1      23.638  12.077  11.418  0.00  0.00    -0.004 C 
HETATM   24  C   UNK N   1      23.048  11.774  12.776  0.00  0.00     0.005 C 
ENDBRANCH  22  23
ENDBRANCH  21  22
ENDBRANCH  20  21
ENDBRANCH  19  20
ENDBRANCH  16  19
BRANCH  17  25
HETATM   25  O   UNK N   1      19.543  14.256   9.710  0.00  0.00    -0.393 OA
HETATM   26  H   UNK N   1      18.649  14.346  10.077  0.00  0.00     0.210 HD
ENDBRANCH  17  25
ENDBRANCH  13  14
ENDBRANCH   9  13
BRANCH   6  27
HETATM   27  N   UNK N   1      19.897  17.529   0.127  0.00  0.00    -0.384 N 
HETATM   28  H   UNK N   1      19.291  17.956  -0.522  0.00  0.00     0.157 HD
HETATM   29  H   UNK N   1      20.292  16.649  -0.074  0.00  0.00     0.157 HD
ENDBRANCH   6  27
TORSDOF 9
ENDMDL
MODEL 4
REMARK VINA RESULT:      -6.1     10.019     13.474
REMARK  9 active torsions:
REMARK  status: ('A' for Active; 'I' for Inactive)
REMARK    1  A    between atoms: C_6  and  O_5 
REMARK    2  A    between atoms: C_7  and  C_8 
REMARK    3  A    between atoms: C_8  and  S_9 
REMARK    4  A    between atoms: S_9  and  C_10 
REMARK    5  A    between atoms: C_10  and  C_11 
REMARK    6  A    between atoms: C_11  and  C_12 
REMARK    7  A    between atoms: N_15  and  C_17 
REMARK    8  A    between atoms: C_17  and  C_23 
REMARK    9  A    between atoms: C_19  and  N_20 
ROOT
HETATM    1  C   UNK N   1      28.212  18.798   7.581  0.00  0.00     0.182 A 
HETATM    2  C   UNK N   1      29.388  17.976   5.267  0.00  0.00     0.103 A 
HETATM    3  C   UNK N   1      29.798  17.492   6.473  0.00  0.00     0.073 A 
HETATM    4  C   UNK N   1      31.009  16.646   4.836  0.00  0.00     0.099 A 
HETATM    5  N   UNK N   1      30.102  17.468   4.260  0.00  0.00    -0.360 N 
HETATM    6  C   UNK N   1      28.364  18.902   5.208  0.00  0.00     0.129 A 
HETATM    7  N   UNK N   1      29.232  17.880   7.634  0.00  0.00    -0.350 N 
ATOM      8  HN  UNK N   1      29.552  17.503   8.526  1.00  0.00     0.166 HD
HETATM    9  C   UNK N   1      30.843  16.634   6.225  0.00  0.00     0.015 A 
HETATM   10  N   UNK N   1      27.790  19.304   6.373  0.00  0.00    -0.337 N 
ATOM     11  HN  UNK N   1      27.034  19.990   6.352  1.00  0.00     0.168 HD
HETATM   12  H   UNK N   1      29.990  17.653   3.300  0.00  0.00     0.165 HD
ENDROOT
BRANCH   9  13
HETATM   13  C   UNK N   1      31.698  15.850   7.211  0.00  0.00     0.315 C 
BRANCH  13  14
HETATM   14  N   UNK N   1      32.486  16.772   8.031  0.00  0.00     0.095 N 
HETATM   15  C   UNK N   1      33.488  16.041   8.787  0.00  0.00     0.280 C 
HETATM   16  C   UNK N   1      34.290  17.130   9.344  0.00  0.00     0.054 C 
HETATM   17  C   UNK N   1      34.627  17.887   8.069  0.00  0.00     0.152 C 
HETATM   18  C   UNK N   1      33.280  17.781   7.305  0.00  0.00     0.304 C 
BRANCH  16  19
HETATM   19  C   UNK N   1      35.258  16.674  10.415  0.00  0.00     0.082 C 
BRANCH  19  20
HETATM   20  S   UNK N   1      35.942  15.008  10.384  0.00  0.00    -0.169 SA
BRANCH  20  21
HETATM   21  C   UNK N   1      35.634  14.996  12.183  0.00  0.00     0.073 C 
BRANCH  21  22
HETATM   22  C   UNK N   1      36.384  13.844  12.834  0.00  0.00     0.010 C 
BRANCH  22  23
HETATM   23  C   UNK N   1      35.784  13.572  14.192  0.00  0.00    -0.004 C 
HETATM   24  C   UNK N   1      36.863  13.631  15.249  0.00  0.00     0.005 C 
ENDBRANCH  22  23
ENDBRANCH  21  22
ENDBRANCH  20  21
ENDBRANCH  19  20
ENDBRANCH  16  19
BRANCH  17  25
HETATM   25  O   UNK N   1      34.979  19.208   8.345  0.00  0.00    -0.393 OA
HETATM   26  H   UNK N   1      35.588  19.640   8.965  0.00  0.00     0.210 HD
ENDBRANCH  17  25
ENDBRANCH  13  14
ENDBRANCH   9  13
BRANCH   6  27
HETATM   27  N   UNK N   1      27.941  19.433   3.968  0.00  0.00    -0.384 N 
HETATM   28  H   UNK N   1      27.748  18.830   3.214  0.00  0.00     0.157 HD
HETATM   29  H   UNK N   1      27.838  20.406   3.859  0.00  0.00     0.157 HD
ENDBRANCH   6  27
TORSDOF 9
ENDMDL
MODEL 5
REMARK VINA RESULT:      -6.0      9.667     13.094
REMARK  9 active torsions:
REMARK  status: ('A' for Active; 'I' for Inactive)
REMARK    1  A    between atoms: C_6  and  O_5 
REMARK    2  A    between atoms: C_7  and  C_8 
REMARK    3  A    between atoms: C_8  and  S_9 
REMARK    4  A    between atoms: S_9  and  C_10 
REMARK    5  A    between atoms: C_10  and  C_11 
REMARK    6  A    between atoms: C_11  and  C_12 
REMARK    7  A    between atoms: N_15  and  C_17 
REMARK    8  A    between atoms: C_17  and  C_23 
REMARK    9  A    between atoms: C_19  and  N_20 
ROOT
HETATM    1  C   UNK N   1      28.414  17.865   4.734  0.00  0.00     0.182 A 
HETATM    2  C   UNK N   1      28.356  18.764   7.303  0.00  0.00     0.103 A 
HETATM    3  C   UNK N   1      29.278  17.844   6.903  0.00  0.00     0.073 A 
HETATM    4  C   UNK N   1      29.499  18.291   9.051  0.00  0.00     0.099 A 
HETATM    5  N   UNK N   1      28.480  19.057   8.600  0.00  0.00    -0.360 N 
HETATM    6  C   UNK N   1      27.430  19.251   6.401  0.00  0.00     0.129 A 
HETATM    7  N   UNK N   1      29.331  17.383   5.636  0.00  0.00    -0.350 N 
ATOM      8  HN  UNK N   1      30.031  16.697   5.356  1.00  0.00     0.166 HD
HETATM    9  C   UNK N   1      30.026  17.520   8.009  0.00  0.00     0.015 A 
HETATM   10  N   UNK N   1      27.471  18.789   5.123  0.00  0.00    -0.337 N 
ATOM     11  HN  UNK N   1      26.794  19.132   4.441  1.00  0.00     0.168 HD
HETATM   12  H   UNK N   1      27.942  19.698   9.118  0.00  0.00     0.165 HD
ENDROOT
BRANCH   9  13
HETATM   13  C   UNK N   1      31.163  16.515   8.140  0.00  0.00     0.315 C 
BRANCH  13  14
HETATM   14  N   UNK N   1      32.327  17.155   8.754  0.00  0.00     0.095 N 
HETATM   15  C   UNK N   1      33.332  16.159   9.084  0.00  0.00     0.280 C 
HETATM   16  C   UNK N   1      34.468  16.999   9.463  0.00  0.00     0.054 C 
HETATM   17  C   UNK N   1      34.569  17.877   8.224  0.00  0.00     0.152 C 
HETATM   18  C   UNK N   1      33.067  18.116   7.916  0.00  0.00     0.304 C 
BRANCH  16  19
HETATM   19  C   UNK N   1      35.589  16.230  10.127  0.00  0.00     0.082 C 
BRANCH  19  20
HETATM   20  S   UNK N   1      35.515  14.435  10.260  0.00  0.00    -0.169 SA
BRANCH  20  21
HETATM   21  C   UNK N   1      35.383  14.712  12.060  0.00  0.00     0.073 C 
BRANCH  21  22
HETATM   22  C   UNK N   1      35.472  13.386  12.800  0.00  0.00     0.010 C 
BRANCH  22  23
HETATM   23  C   UNK N   1      36.438  13.530  13.952  0.00  0.00    -0.004 C 
HETATM   24  C   UNK N   1      35.689  13.437  15.261  0.00  0.00     0.005 C 
ENDBRANCH  22  23
ENDBRANCH  21  22
ENDBRANCH  20  21
ENDBRANCH  19  20
ENDBRANCH  16  19
BRANCH  17  25
HETATM   25  O   UNK N   1      35.251  19.062   8.501  0.00  0.00    -0.393 OA
HETATM   26  H   UNK N   1      36.181  19.303   8.636  0.00  0.00     0.210 HD
ENDBRANCH  17  25
ENDBRANCH  13  14
ENDBRANCH   9  13
BRANCH   6  27
HETATM   27  N   UNK N   1      26.452  20.187   6.804  0.00  0.00    -0.384 N 
HETATM   28  H   UNK N   1      26.290  20.995   6.263  0.00  0.00     0.157 HD
HETATM   29  H   UNK N   1      25.931  20.032   7.625  0.00  0.00     0.157 HD
ENDBRANCH   6  27
TORSDOF 9
ENDMDL
MODEL 6
REMARK VINA RESULT:      -5.6     10.003     13.539
REMARK  9 active torsions:
REMARK  status: ('A' for Active; 'I' for Inactive)
REMARK    1  A    between atoms: C_6  and  O_5 
REMARK    2  A    between atoms: C_7  and  C_8 
REMARK    3  A    between atoms: C_8  and  S_9 
REMARK    4  A    between atoms: S_9  and  C_10 
REMARK    5  A    between atoms: C_10  and  C_11 
REMARK    6  A    between atoms: C_11  and  C_12 
REMARK    7  A    between atoms: N_15  and  C_17 
REMARK    8  A    between atoms: C_17  and  C_23 
REMARK    9  A    between atoms: C_19  and  N_20 
ROOT
HETATM    1  C   UNK N   1      28.748  17.962   9.861  0.00  0.00     0.182 A 
HETATM    2  C   UNK N   1      29.514  17.304   7.333  0.00  0.00     0.103 A 
HETATM    3  C   UNK N   1      30.438  17.569   8.298  0.00  0.00     0.073 A 
HETATM    4  C   UNK N   1      31.421  17.129   6.374  0.00  0.00     0.099 A 
HETATM    5  N   UNK N   1      30.089  17.024   6.160  0.00  0.00    -0.360 N 
HETATM    6  C   UNK N   1      28.166  17.372   7.629  0.00  0.00     0.129 A 
HETATM    7  N   UNK N   1      30.086  17.895   9.560  0.00  0.00    -0.350 N 
ATOM      8  HN  UNK N   1      30.794  18.087  10.268  1.00  0.00     0.166 HD
HETATM    9  C   UNK N   1      31.675  17.466   7.708  0.00  0.00     0.015 A 
HETATM   10  N   UNK N   1      27.801  17.704   8.897  0.00  0.00    -0.337 N 
ATOM     11  HN  UNK N   1      26.811  17.764   9.136  1.00  0.00     0.168 HD
HETATM   12  H   UNK N   1      29.637  16.790   5.318  0.00  0.00     0.165 HD
ENDROOT
BRANCH   9  13
HETATM   13  C   UNK N   1      33.052  17.700   8.315  0.00  0.00     0.315 C 
BRANCH  13  14
HETATM   14  N   UNK N   1      33.708  16.418   8.571  0.00  0.00     0.095 N 
HETATM   15  C   UNK N   1      34.762  16.582   9.557  0.00  0.00     0.280 C 
HETATM   16  C   UNK N   1      35.128  15.193   9.834  0.00  0.00     0.054 C 
HETATM   17  C   UNK N   1      33.761  14.628  10.191  0.00  0.00     0.152 C 
HETATM   18  C   UNK N   1      32.868  15.354   9.150  0.00  0.00     0.304 C 
BRANCH  16  19
HETATM   19  C   UNK N   1      36.406  15.056  10.633  0.00  0.00     0.082 C 
BRANCH  19  20
HETATM   20  S   UNK N   1      36.679  13.621  11.687  0.00  0.00    -0.169 SA
BRANCH  20  21
HETATM   21  C   UNK N   1      36.173  14.709  13.064  0.00  0.00     0.073 C 
BRANCH  21  22
HETATM   22  C   UNK N   1      36.482  14.043  14.396  0.00  0.00     0.010 C 
BRANCH  22  23
HETATM   23  C   UNK N   1      36.135  12.577  14.304  0.00  0.00    -0.004 C 
HETATM   24  C   UNK N   1      34.784  12.330  14.935  0.00  0.00     0.005 C 
ENDBRANCH  22  23
ENDBRANCH  21  22
ENDBRANCH  20  21
ENDBRANCH  19  20
ENDBRANCH  16  19
BRANCH  17  25
HETATM   25  O   UNK N   1      33.734  13.241  10.041  0.00  0.00    -0.393 OA
HETATM   26  H   UNK N   1      34.283  12.507  10.358  0.00  0.00     0.210 HD
ENDBRANCH  17  25
ENDBRANCH  13  14
ENDBRANCH   9  13
BRANCH   6  27
HETATM   27  N   UNK N   1      27.194  17.123   6.635  0.00  0.00    -0.384 N 
HETATM   28  H   UNK N   1      26.344  17.622   6.640  0.00  0.00     0.157 HD
HETATM   29  H   UNK N   1      27.366  16.452   5.936  0.00  0.00     0.157 HD
ENDBRANCH   6  27
TORSDOF 9
ENDMDL
MODEL 7
REMARK VINA RESULT:      -5.6     13.515     16.632
REMARK  9 active torsions:
REMARK  status: ('A' for Active; 'I' for Inactive)
REMARK    1  A    between atoms: C_6  and  O_5 
REMARK    2  A    between atoms: C_7  and  C_8 
REMARK    3  A    between atoms: C_8  and  S_9 
REMARK    4  A    between atoms: S_9  and  C_10 
REMARK    5  A    between atoms: C_10  and  C_11 
REMARK    6  A    between atoms: C_11  and  C_12 
REMARK    7  A    between atoms: N_15  and  C_17 
REMARK    8  A    between atoms: C_17  and  C_23 
REMARK    9  A    between atoms: C_19  and  N_20 
ROOT
HETATM    1  C   UNK N   1      34.478  14.774   7.232  0.00  0.00     0.182 A 
HETATM    2  C   UNK N   1      34.746  16.586   9.246  0.00  0.00     0.103 A 
HETATM    3  C   UNK N   1      35.165  15.299   9.401  0.00  0.00     0.073 A 
HETATM    4  C   UNK N   1      35.491  16.456  11.250  0.00  0.00     0.099 A 
HETATM    5  N   UNK N   1      34.945  17.308  10.352  0.00  0.00    -0.360 N 
HETATM    6  C   UNK N   1      34.171  16.987   8.055  0.00  0.00     0.129 A 
HETATM    7  N   UNK N   1      35.046  14.382   8.419  0.00  0.00    -0.350 N 
ATOM      8  HN  UNK N   1      35.369  13.424   8.555  1.00  0.00     0.166 HD
HETATM    9  C   UNK N   1      35.647  15.187  10.683  0.00  0.00     0.015 A 
HETATM   10  N   UNK N   1      34.043  16.068   7.061  0.00  0.00    -0.337 N 
ATOM     11  HN  UNK N   1      33.618  16.342   6.174  1.00  0.00     0.168 HD
HETATM   12  H   UNK N   1      34.737  18.261  10.484  0.00  0.00     0.165 HD
ENDROOT
BRANCH   9  13
HETATM   13  C   UNK N   1      36.201  13.961  11.398  0.00  0.00     0.315 C 
BRANCH  13  14
HETATM   14  N   UNK N   1      35.625  13.864  12.740  0.00  0.00     0.095 N 
HETATM   15  C   UNK N   1      35.264  12.487  13.032  0.00  0.00     0.280 C 
HETATM   16  C   UNK N   1      34.932  12.564  14.454  0.00  0.00     0.054 C 
HETATM   17  C   UNK N   1      36.207  13.201  14.987  0.00  0.00     0.152 C 
HETATM   18  C   UNK N   1      36.510  14.226  13.862  0.00  0.00     0.304 C 
BRANCH  16  19
HETATM   19  C   UNK N   1      34.248  11.321  14.979  0.00  0.00     0.082 C 
BRANCH  19  20
HETATM   20  S   UNK N   1      35.144   9.762  15.096  0.00  0.00    -0.169 SA
BRANCH  20  21
HETATM   21  C   UNK N   1      34.703   9.800  16.868  0.00  0.00     0.073 C 
BRANCH  21  22
HETATM   22  C   UNK N   1      35.850  10.383  17.679  0.00  0.00     0.010 C 
BRANCH  22  23
HETATM   23  C   UNK N   1      35.294  11.362  18.684  0.00  0.00    -0.004 C 
HETATM   24  C   UNK N   1      35.997  11.190  20.010  0.00  0.00     0.005 C 
ENDBRANCH  22  23
ENDBRANCH  21  22
ENDBRANCH  20  21
ENDBRANCH  19  20
ENDBRANCH  16  19
BRANCH  17  25
HETATM   25  O   UNK N   1      35.986  13.815  16.220  0.00  0.00    -0.393 OA
HETATM   26  H   UNK N   1      35.837  14.727  16.515  0.00  0.00     0.210 HD
ENDBRANCH  17  25
ENDBRANCH  13  14
ENDBRANCH   9  13
BRANCH   6  27
HETATM   27  N   UNK N   1      33.710  18.312   7.885  0.00  0.00    -0.384 N 
HETATM   28  H   UNK N   1      32.887  18.609   8.337  0.00  0.00     0.157 HD
HETATM   29  H   UNK N   1      34.212  18.938   7.315  0.00  0.00     0.157 HD
ENDBRANCH   6  27
TORSDOF 9
ENDMDL
MODEL 8
REMARK VINA RESULT:      -5.5     10.798     12.879
REMARK  9 active torsions:
REMARK  status: ('A' for Active; 'I' for Inactive)
REMARK    1  A    between atoms: C_6  and  O_5 
REMARK    2  A    between atoms: C_7  and  C_8 
REMARK    3  A    between atoms: C_8  and  S_9 
REMARK    4  A    between atoms: S_9  and  C_10 
REMARK    5  A    between atoms: C_10  and  C_11 
REMARK    6  A    between atoms: C_11  and  C_12 
REMARK    7  A    between atoms: N_15  and  C_17 
REMARK    8  A    between atoms: C_17  and  C_23 
REMARK    9  A    between atoms: C_19  and  N_20 
ROOT
HETATM    1  C   UNK N   1      34.645  11.573  13.761  0.00  0.00     0.182 A 
HETATM    2  C   UNK N   1      36.686  12.862  12.499  0.00  0.00     0.103 A 
HETATM    3  C   UNK N   1      35.392  13.060  12.122  0.00  0.00     0.073 A 
HETATM    4  C   UNK N   1      36.766  14.221  10.848  0.00  0.00     0.099 A 
HETATM    5  N   UNK N   1      37.535  13.565  11.747  0.00  0.00    -0.360 N 
HETATM    6  C   UNK N   1      36.978  11.992  13.534  0.00  0.00     0.129 A 
HETATM    7  N   UNK N   1      34.361  12.436  12.731  0.00  0.00    -0.350 N 
ATOM      8  HN  UNK N   1      33.400  12.601  12.434  1.00  0.00     0.166 HD
HETATM    9  C   UNK N   1      35.414  13.930  11.058  0.00  0.00     0.015 A 
HETATM   10  N   UNK N   1      35.947  11.355  14.150  0.00  0.00    -0.337 N 
ATOM     11  HN  UNK N   1      36.141  10.706  14.914  1.00  0.00     0.168 HD
HETATM   12  H   UNK N   1      38.515  13.599  11.830  0.00  0.00     0.165 HD
ENDROOT
BRANCH   9  13
HETATM   13  C   UNK N   1      34.254  14.459  10.225  0.00  0.00     0.315 C 
BRANCH  13  14
HETATM   14  N   UNK N   1      34.749  15.411   9.229  0.00  0.00     0.095 N 
HETATM   15  C   UNK N   1      34.011  15.267   7.987  0.00  0.00     0.280 C 
HETATM   16  C   UNK N   1      34.485  16.421   7.225  0.00  0.00     0.054 C 
HETATM   17  C   UNK N   1      34.190  17.532   8.222  0.00  0.00     0.152 C 
HETATM   18  C   UNK N   1      34.590  16.841   9.552  0.00  0.00     0.304 C 
BRANCH  16  19
HETATM   19  C   UNK N   1      34.090  16.381   5.765  0.00  0.00     0.082 C 
BRANCH  19  20
HETATM   20  S   UNK N   1      32.586  15.536   5.245  0.00  0.00    -0.169 SA
BRANCH  20  21
HETATM   21  C   UNK N   1      31.747  17.126   5.564  0.00  0.00     0.073 C 
BRANCH  21  22
HETATM   22  C   UNK N   1      30.778  16.980   6.728  0.00  0.00     0.010 C 
BRANCH  22  23
HETATM   23  C   UNK N   1      29.397  17.382   6.270  0.00  0.00    -0.004 C 
HETATM   24  C   UNK N   1      29.439  17.795   4.817  0.00  0.00     0.005 C 
ENDBRANCH  22  23
ENDBRANCH  21  22
ENDBRANCH  20  21
ENDBRANCH  19  20
ENDBRANCH  16  19
BRANCH  17  25
HETATM   25  O   UNK N   1      34.961  18.664   7.957  0.00  0.00    -0.393 OA
HETATM   26  H   UNK N   1      35.391  19.032   7.169  0.00  0.00     0.210 HD
ENDBRANCH  17  25
ENDBRANCH  13  14
ENDBRANCH   9  13
BRANCH   6  27
HETATM   27  N   UNK N   1      38.315  11.757  13.923  0.00  0.00    -0.384 N 
HETATM   28  H   UNK N   1      38.575  11.841  14.870  0.00  0.00     0.157 HD
HETATM   29  H   UNK N   1      38.988  11.507  13.249  0.00  0.00     0.157 HD
ENDBRANCH   6  27
TORSDOF 9
ENDMDL
MODEL 9
REMARK VINA RESULT:      -5.4     10.474     14.387
REMARK  9 active torsions:
REMARK  status: ('A' for Active; 'I' for Inactive)
REMARK    1  A    between atoms: C_6  and  O_5 
REMARK    2  A    between atoms: C_7  and  C_8 
REMARK    3  A    between atoms: C_8  and  S_9 
REMARK    4  A    between atoms: S_9  and  C_10 
REMARK    5  A    between atoms: C_10  and  C_11 
REMARK    6  A    between atoms: C_11  and  C_12 
REMARK    7  A    between atoms: N_15  and  C_17 
REMARK    8  A    between atoms: C_17  and  C_23 
REMARK    9  A    between atoms: C_19  and  N_20 
ROOT
HETATM    1  C   UNK N   1      29.976  14.765   5.293  0.00  0.00     0.182 A 
HETATM    2  C   UNK N   1      30.583  16.731   7.076  0.00  0.00     0.103 A 
HETATM    3  C   UNK N   1      31.266  15.552   7.073  0.00  0.00     0.073 A 
HETATM    4  C   UNK N   1      31.992  16.874   8.681  0.00  0.00     0.099 A 
HETATM    5  N   UNK N   1      31.015  17.551   8.036  0.00  0.00    -0.360 N 
HETATM    6  C   UNK N   1      29.562  16.940   6.167  0.00  0.00     0.129 A 
HETATM    7  N   UNK N   1      30.987  14.562   6.199  0.00  0.00    -0.350 N 
ATOM      8  HN  UNK N   1      31.513  13.688   6.212  1.00  0.00     0.166 HD
HETATM    9  C   UNK N   1      32.178  15.616   8.098  0.00  0.00     0.015 A 
HETATM   10  N   UNK N   1      29.271  15.946   5.286  0.00  0.00    -0.337 N 
ATOM     11  HN  UNK N   1      28.518  16.078   4.609  1.00  0.00     0.168 HD
HETATM   12  H   UNK N   1      30.690  18.459   8.233  0.00  0.00     0.165 HD
ENDROOT
BRANCH   9  13
HETATM   13  C   UNK N   1      33.169  14.560   8.570  0.00  0.00     0.315 C 
BRANCH  13  14
HETATM   14  N   UNK N   1      34.012  15.107   9.634  0.00  0.00     0.095 N 
HETATM   15  C   UNK N   1      34.225  14.109  10.669  0.00  0.00     0.280 C 
HETATM   16  C   UNK N   1      35.243  14.754  11.497  0.00  0.00     0.054 C 
HETATM   17  C   UNK N   1      36.289  15.060  10.435  0.00  0.00     0.152 C 
HETATM   18  C   UNK N   1      35.382  15.495   9.253  0.00  0.00     0.304 C 
BRANCH  16  19
HETATM   19  C   UNK N   1      35.468  14.059  12.822  0.00  0.00     0.082 C 
BRANCH  19  20
HETATM   20  S   UNK N   1      35.554  12.262  12.911  0.00  0.00    -0.169 SA
BRANCH  20  21
HETATM   21  C   UNK N   1      34.916  12.454  14.612  0.00  0.00     0.073 C 
BRANCH  21  22
HETATM   22  C   UNK N   1      36.030  12.208  15.618  0.00  0.00     0.010 C 
BRANCH  22  23
HETATM   23  C   UNK N   1      35.427  12.070  16.995  0.00  0.00    -0.004 C 
HETATM   24  C   UNK N   1      35.051  13.433  17.528  0.00  0.00     0.005 C 
ENDBRANCH  22  23
ENDBRANCH  21  22
ENDBRANCH  20  21
ENDBRANCH  19  20
ENDBRANCH  16  19
BRANCH  17  25
HETATM   25  O   UNK N   1      37.146  16.080  10.851  0.00  0.00    -0.393 OA
HETATM   26  H   UNK N   1      37.201  17.035  10.694  0.00  0.00     0.210 HD
ENDBRANCH  17  25
ENDBRANCH  13  14
ENDBRANCH   9  13
BRANCH   6  27
HETATM   27  N   UNK N   1      28.828  18.147   6.171  0.00  0.00    -0.384 N 
HETATM   28  H   UNK N   1      28.985  18.822   5.470  0.00  0.00     0.157 HD
HETATM   29  H   UNK N   1      28.158  18.313   6.873  0.00  0.00     0.157 HD
ENDBRANCH   6  27
TORSDOF 9
ENDMDL
