REMARK  4 active torsions:
REMARK  status: ('A' for Active; 'I' for Inactive)
REMARK    1  A    between atoms: C_1  and  C_2 
REMARK    2  A    between atoms: C_2  and  C_17 
REMARK    3  A    between atoms: C_2  and  N_18 
REMARK    4  A    between atoms: C_4  and  O_21 
REMARK       I    between atoms: C_17  and  N_19 
ROOT
HETATM    1  C   UNK N   1      -0.302  -4.472   0.201  0.00  0.00     0.013 A 
HETATM    2  C   UNK N   1       0.714  -3.821  -0.722  0.00  0.00     0.032 A 
HETATM    3  C   UNK N   1      -1.779  -4.481  -0.275  0.00  0.00     0.047 C 
HETATM    4  C   UNK N   1      -3.551  -2.647  -0.385  0.00  0.00     0.085 C 
HETATM    5  N   UNK N   1      -4.578  -2.312  -0.799  0.00  0.00    -0.195 NA
HETATM    6  C   UNK N   1      -1.009  -1.227  -1.002  0.00  0.00     0.244 C 
HETATM    7  N   UNK N   1      -1.095  -2.314  -0.140  0.00  0.00    -0.328 N 
HETATM    8  O   UNK N   1      -2.006  -0.773  -1.542  0.00  0.00    -0.271 OA
HETATM    9  C   UNK N   1       0.073  -2.992   0.358  0.00  0.00     0.093 A 
HETATM   10  C   UNK N   1      -2.263  -3.101   0.156  0.00  0.00     0.195 C 
ENDROOT
BRANCH   6  11
HETATM   11  C   UNK N   1       0.345  -0.550  -1.250  0.00  0.00     0.176 C 
BRANCH  11  12
HETATM   12  C   UNK N   1       0.563   0.830  -0.550  0.00  0.00    -0.008 C 
HETATM   13  C   UNK N   1      -0.366   0.868   0.679  0.00  0.00     0.050 C 
HETATM   14  C   UNK N   1      -0.080   2.054   1.573  0.00  0.00     0.059 C 
HETATM   15  C   UNK N   1       1.365   1.922   2.065  0.00  0.00     0.042 C 
HETATM   16  C   UNK N   1      -0.254   3.362   0.785  0.00  0.00     0.042 C 
HETATM   17  C   UNK N   1       2.331   1.969   0.867  0.00  0.00    -0.010 C 
HETATM   18  C   UNK N   1       2.037   0.829  -0.087  0.00  0.00     0.016 C 
HETATM   19  C   UNK N   1       2.140   3.276   0.094  0.00  0.00     0.009 C 
HETATM   20  C   UNK N   1       0.691   3.371  -0.425  0.00  0.00    -0.010 C 
HETATM   21  C   UNK N   1       0.342   2.150  -1.345  0.00  0.00     0.016 C 
BRANCH  14  22
HETATM   22  O   UNK N   1      -0.966   2.024   2.646  0.00  0.00    -0.390 OA
HETATM   23  H   UNK N   1      -1.293   2.548   3.394  0.00  0.00     0.210 HD
ENDBRANCH  14  22
ENDBRANCH  11  12
BRANCH  11  24
HETATM   24  N   UNK N   1       0.724  -0.557  -2.654  0.00  0.00    -0.418 N 
HETATM   25  H   UNK N   1       0.853  -0.790  -3.638  0.00  0.00     0.150 HD
HETATM   26  H   UNK N   1       1.250   0.317  -2.654  0.00  0.00     0.150 HD
ENDBRANCH  11  24
ENDBRANCH   6  11
TORSDOF 4
