MODEL 1
REMARK VINA RESULT:      -6.7      0.000      0.000
REMARK  4 active torsions:
REMARK  status: ('A' for Active; 'I' for Inactive)
REMARK    1  A    between atoms: C_1  and  C_2 
REMARK    2  A    between atoms: C_2  and  C_17 
REMARK    3  A    between atoms: C_2  and  N_18 
REMARK    4  A    between atoms: C_4  and  O_21 
REMARK       I    between atoms: C_17  and  N_19 
ROOT
HETATM    1  C   UNK N   1      37.496  12.423   9.438  0.00  0.00     0.013 A 
HETATM    2  C   UNK N   1      36.213  11.981   8.755  0.00  0.00     0.032 A 
HETATM    3  C   UNK N   1      37.446  12.597  10.980  0.00  0.00     0.047 C 
HETATM    4  C   UNK N   1      36.426  14.405  12.464  0.00  0.00     0.085 C 
HETATM    5  N   UNK N   1      36.097  14.717  13.528  0.00  0.00    -0.195 NA
HETATM    6  C   UNK N   1      34.538  14.208  10.172  0.00  0.00     0.244 C 
HETATM    7  N   UNK N   1      35.908  14.001  10.062  0.00  0.00    -0.328 N 
HETATM    8  O   UNK N   1      34.033  14.516  11.241  0.00  0.00    -0.271 OA
HETATM    9  C   UNK N   1      36.507  13.452   8.874  0.00  0.00     0.093 A 
HETATM   10  C   UNK N   1      36.878  14.004  11.125  0.00  0.00     0.195 C 
ENDROOT
BRANCH   6  11
HETATM   11  C   UNK N   1      33.643  14.097   8.931  0.00  0.00     0.176 C 
BRANCH  11  12
HETATM   12  C   UNK N   1      33.089  15.442   8.359  0.00  0.00    -0.008 C 
HETATM   13  C   UNK N   1      34.213  16.488   8.490  0.00  0.00     0.050 C 
HETATM   14  C   UNK N   1      33.885  17.771   7.759  0.00  0.00     0.059 C 
HETATM   15  C   UNK N   1      33.718  17.426   6.275  0.00  0.00     0.042 C 
HETATM   16  C   UNK N   1      32.584  18.375   8.312  0.00  0.00     0.042 C 
HETATM   17  C   UNK N   1      32.543  16.447   6.096  0.00  0.00    -0.010 C 
HETATM   18  C   UNK N   1      32.806  15.168   6.865  0.00  0.00     0.016 C 
HETATM   19  C   UNK N   1      31.260  17.065   6.655  0.00  0.00     0.009 C 
HETATM   20  C   UNK N   1      31.435  17.368   8.157  0.00  0.00    -0.010 C 
HETATM   21  C   UNK N   1      31.795  16.068   8.955  0.00  0.00     0.016 C 
BRANCH  14  22
HETATM   22  O   UNK N   1      34.937  18.664   7.937  0.00  0.00    -0.390 OA
HETATM   23  H   UNK N   1      35.783  18.949   7.557  0.00  0.00     0.210 HD
ENDBRANCH  14  22
ENDBRANCH  11  12
BRANCH  11  24
HETATM   24  N   UNK N   1      32.632  13.060   9.063  0.00  0.00    -0.418 N 
HETATM   25  H   UNK N   1      31.777  12.506   9.015  0.00  0.00     0.150 HD
HETATM   26  H   UNK N   1      33.190  12.397   9.600  0.00  0.00     0.150 HD
ENDBRANCH  11  24
ENDBRANCH   6  11
TORSDOF 4
ENDMDL
MODEL 2
REMARK VINA RESULT:      -6.5     15.578     19.177
REMARK  4 active torsions:
REMARK  status: ('A' for Active; 'I' for Inactive)
REMARK    1  A    between atoms: C_1  and  C_2 
REMARK    2  A    between atoms: C_2  and  C_17 
REMARK    3  A    between atoms: C_2  and  N_18 
REMARK    4  A    between atoms: C_4  and  O_21 
REMARK       I    between atoms: C_17  and  N_19 
ROOT
HETATM    1  C   UNK N   1      26.768  26.571  -8.530  0.00  0.00     0.013 A 
HETATM    2  C   UNK N   1      26.898  27.034  -7.089  0.00  0.00     0.032 A 
HETATM    3  C   UNK N   1      25.572  25.641  -8.864  0.00  0.00     0.047 C 
HETATM    4  C   UNK N   1      25.141  23.171  -8.383  0.00  0.00     0.085 C 
HETATM    5  N   UNK N   1      24.371  22.309  -8.345  0.00  0.00    -0.195 NA
HETATM    6  C   UNK N   1      26.642  24.117  -5.993  0.00  0.00     0.244 C 
HETATM    7  N   UNK N   1      26.840  24.616  -7.275  0.00  0.00    -0.328 N 
HETATM    8  O   UNK N   1      25.838  23.221  -5.785  0.00  0.00    -0.271 OA
HETATM    9  C   UNK N   1      27.629  25.794  -7.526  0.00  0.00     0.093 A 
HETATM   10  C   UNK N   1      26.111  24.271  -8.467  0.00  0.00     0.195 C 
ENDROOT
BRANCH   6  11
HETATM   11  C   UNK N   1      27.473  24.657  -4.823  0.00  0.00     0.176 C 
BRANCH  11  12
HETATM   12  C   UNK N   1      28.908  24.060  -4.663  0.00  0.00    -0.008 C 
HETATM   13  C   UNK N   1      29.139  23.825  -3.158  0.00  0.00     0.050 C 
HETATM   14  C   UNK N   1      30.399  23.034  -2.891  0.00  0.00     0.059 C 
HETATM   15  C   UNK N   1      30.241  21.671  -3.573  0.00  0.00     0.042 C 
HETATM   16  C   UNK N   1      31.618  23.774  -3.465  0.00  0.00     0.042 C 
HETATM   17  C   UNK N   1      30.096  21.861  -5.094  0.00  0.00    -0.010 C 
HETATM   18  C   UNK N   1      28.874  22.703  -5.402  0.00  0.00     0.016 C 
HETATM   19  C   UNK N   1      31.316  22.603  -5.645  0.00  0.00     0.009 C 
HETATM   20  C   UNK N   1      31.435  23.986  -4.974  0.00  0.00    -0.010 C 
HETATM   21  C   UNK N   1      30.141  24.839  -5.210  0.00  0.00     0.016 C 
BRANCH  14  22
HETATM   22  O   UNK N   1      30.542  22.878  -1.515  0.00  0.00    -0.390 OA
HETATM   23  H   UNK N   1      30.343  23.299  -0.664  0.00  0.00     0.210 HD
ENDBRANCH  14  22
ENDBRANCH  11  12
BRANCH  11  24
HETATM   24  N   UNK N   1      26.721  24.704  -3.579  0.00  0.00    -0.418 N 
HETATM   25  H   UNK N   1      26.426  24.821  -2.610  0.00  0.00     0.150 HD
HETATM   26  H   UNK N   1      25.828  24.381  -3.951  0.00  0.00     0.150 HD
ENDBRANCH  11  24
ENDBRANCH   6  11
TORSDOF 4
ENDMDL
MODEL 3
REMARK VINA RESULT:      -6.4      3.187      7.227
REMARK  4 active torsions:
REMARK  status: ('A' for Active; 'I' for Inactive)
REMARK    1  A    between atoms: C_1  and  C_2 
REMARK    2  A    between atoms: C_2  and  C_17 
REMARK    3  A    between atoms: C_2  and  N_18 
REMARK    4  A    between atoms: C_4  and  O_21 
REMARK       I    between atoms: C_17  and  N_19 
ROOT
HETATM    1  C   UNK N   1      37.059  13.675   8.517  0.00  0.00     0.013 A 
HETATM    2  C   UNK N   1      37.809  14.049   9.784  0.00  0.00     0.032 A 
HETATM    3  C   UNK N   1      35.836  14.553   8.139  0.00  0.00     0.047 C 
HETATM    4  C   UNK N   1      33.474  14.699   9.096  0.00  0.00     0.085 C 
HETATM    5  N   UNK N   1      32.485  15.296   9.156  0.00  0.00    -0.195 NA
HETATM    6  C   UNK N   1      35.178  14.136  11.471  0.00  0.00     0.244 C 
HETATM    7  N   UNK N   1      35.451  13.656  10.196  0.00  0.00    -0.328 N 
HETATM    8  O   UNK N   1      34.182  14.809  11.690  0.00  0.00    -0.271 OA
HETATM    9  C   UNK N   1      36.704  13.030   9.864  0.00  0.00     0.093 A 
HETATM   10  C   UNK N   1      34.726  13.939   8.985  0.00  0.00     0.195 C 
ENDROOT
BRANCH   6  11
HETATM   11  C   UNK N   1      36.108  13.783  12.639  0.00  0.00     0.176 C 
BRANCH  11  12
HETATM   12  C   UNK N   1      35.718  12.520  13.472  0.00  0.00    -0.008 C 
HETATM   13  C   UNK N   1      37.026  11.784  13.820  0.00  0.00     0.050 C 
HETATM   14  C   UNK N   1      36.805  10.672  14.821  0.00  0.00     0.059 C 
HETATM   15  C   UNK N   1      36.255  11.308  16.102  0.00  0.00     0.042 C 
HETATM   16  C   UNK N   1      35.801   9.651  14.263  0.00  0.00     0.042 C 
HETATM   17  C   UNK N   1      34.900  11.979  15.811  0.00  0.00    -0.010 C 
HETATM   18  C   UNK N   1      35.067  13.062  14.764  0.00  0.00     0.016 C 
HETATM   19  C   UNK N   1      33.916  10.949  15.253  0.00  0.00     0.009 C 
HETATM   20  C   UNK N   1      34.471  10.349  13.945  0.00  0.00    -0.010 C 
HETATM   21  C   UNK N   1      34.733  11.470  12.879  0.00  0.00     0.016 C 
BRANCH  14  22
HETATM   22  O   UNK N   1      38.026  10.050  15.070  0.00  0.00    -0.390 OA
HETATM   23  H   UNK N   1      38.528   9.578  15.752  0.00  0.00     0.210 HD
ENDBRANCH  14  22
ENDBRANCH  11  12
BRANCH  11  24
HETATM   24  N   UNK N   1      36.441  14.939  13.457  0.00  0.00    -0.418 N 
HETATM   25  H   UNK N   1      36.813  15.818  13.813  0.00  0.00     0.150 HD
HETATM   26  H   UNK N   1      35.910  14.673  14.286  0.00  0.00     0.150 HD
ENDBRANCH  11  24
ENDBRANCH   6  11
TORSDOF 4
ENDMDL
MODEL 4
REMARK VINA RESULT:      -6.4      5.254      9.055
REMARK  4 active torsions:
REMARK  status: ('A' for Active; 'I' for Inactive)
REMARK    1  A    between atoms: C_1  and  C_2 
REMARK    2  A    between atoms: C_2  and  C_17 
REMARK    3  A    between atoms: C_2  and  N_18 
REMARK    4  A    between atoms: C_4  and  O_21 
REMARK       I    between atoms: C_17  and  N_19 
ROOT
HETATM    1  C   UNK N   1      26.755  20.818   5.188  0.00  0.00     0.013 A 
HETATM    2  C   UNK N   1      27.538  20.435   6.432  0.00  0.00     0.032 A 
HETATM    3  C   UNK N   1      25.557  19.909   4.805  0.00  0.00     0.047 C 
HETATM    4  C   UNK N   1      25.441  17.584   3.757  0.00  0.00     0.085 C 
HETATM    5  N   UNK N   1      24.793  16.655   3.523  0.00  0.00    -0.195 NA
HETATM    6  C   UNK N   1      27.872  17.479   5.470  0.00  0.00     0.244 C 
HETATM    7  N   UNK N   1      27.438  18.627   4.819  0.00  0.00    -0.328 N 
HETATM    8  O   UNK N   1      27.275  16.421   5.345  0.00  0.00    -0.271 OA
HETATM    9  C   UNK N   1      27.999  19.924   5.094  0.00  0.00     0.093 A 
HETATM   10  C   UNK N   1      26.241  18.784   4.035  0.00  0.00     0.195 C 
ENDROOT
BRANCH   6  11
HETATM   11  C   UNK N   1      29.146  17.517   6.324  0.00  0.00     0.176 C 
BRANCH  11  12
HETATM   12  C   UNK N   1      30.397  16.796   5.726  0.00  0.00    -0.008 C 
HETATM   13  C   UNK N   1      30.524  17.247   4.258  0.00  0.00     0.050 C 
HETATM   14  C   UNK N   1      31.829  16.802   3.636  0.00  0.00     0.059 C 
HETATM   15  C   UNK N   1      32.965  17.446   4.438  0.00  0.00     0.042 C 
HETATM   16  C   UNK N   1      31.943  15.270   3.691  0.00  0.00     0.042 C 
HETATM   17  C   UNK N   1      32.923  16.948   5.894  0.00  0.00    -0.010 C 
HETATM   18  C   UNK N   1      31.603  17.321   6.537  0.00  0.00     0.016 C 
HETATM   19  C   UNK N   1      33.035  15.422   5.927  0.00  0.00     0.009 C 
HETATM   20  C   UNK N   1      31.862  14.793   5.148  0.00  0.00    -0.010 C 
HETATM   21  C   UNK N   1      30.484  15.241   5.747  0.00  0.00     0.016 C 
BRANCH  14  22
HETATM   22  O   UNK N   1      31.859  17.234   2.313  0.00  0.00    -0.390 OA
HETATM   23  H   UNK N   1      32.423  17.668   1.654  0.00  0.00     0.210 HD
ENDBRANCH  14  22
ENDBRANCH  11  12
BRANCH  11  24
HETATM   24  N   UNK N   1      28.895  17.187   7.718  0.00  0.00    -0.418 N 
HETATM   25  H   UNK N   1      28.758  16.708   8.607  0.00  0.00     0.150 HD
HETATM   26  H   UNK N   1      28.742  18.138   8.054  0.00  0.00     0.150 HD
ENDBRANCH  11  24
ENDBRANCH   6  11
TORSDOF 4
ENDMDL
MODEL 5
REMARK VINA RESULT:      -6.2     15.429     18.383
REMARK  4 active torsions:
REMARK  status: ('A' for Active; 'I' for Inactive)
REMARK    1  A    between atoms: C_1  and  C_2 
REMARK    2  A    between atoms: C_2  and  C_17 
REMARK    3  A    between atoms: C_2  and  N_18 
REMARK    4  A    between atoms: C_4  and  O_21 
REMARK       I    between atoms: C_17  and  N_19 
ROOT
HETATM    1  C   UNK N   1      30.609  21.592  -2.951  0.00  0.00     0.013 A 
HETATM    2  C   UNK N   1      30.778  23.072  -2.651  0.00  0.00     0.032 A 
HETATM    3  C   UNK N   1      31.207  21.073  -4.286  0.00  0.00     0.047 C 
HETATM    4  C   UNK N   1      30.442  21.310  -6.709  0.00  0.00     0.085 C 
HETATM    5  N   UNK N   1      30.715  21.207  -7.829  0.00  0.00    -0.195 NA
HETATM    6  C   UNK N   1      29.675  23.900  -5.457  0.00  0.00     0.244 C 
HETATM    7  N   UNK N   1      29.679  22.687  -4.779  0.00  0.00    -0.328 N 
HETATM    8  O   UNK N   1      29.969  23.958  -6.641  0.00  0.00    -0.271 OA
HETATM    9  C   UNK N   1      29.529  22.607  -3.349  0.00  0.00     0.093 A 
HETATM   10  C   UNK N   1      30.104  21.407  -5.283  0.00  0.00     0.195 C 
ENDROOT
BRANCH   6  11
HETATM   11  C   UNK N   1      29.252  25.183  -4.731  0.00  0.00     0.176 C 
BRANCH  11  12
HETATM   12  C   UNK N   1      27.895  25.813  -5.182  0.00  0.00    -0.008 C 
HETATM   13  C   UNK N   1      27.249  26.441  -3.932  0.00  0.00     0.050 C 
HETATM   14  C   UNK N   1      26.042  27.286  -4.277  0.00  0.00     0.059 C 
HETATM   15  C   UNK N   1      26.520  28.418  -5.193  0.00  0.00     0.042 C 
HETATM   16  C   UNK N   1      24.989  26.430  -4.997  0.00  0.00     0.042 C 
HETATM   17  C   UNK N   1      27.093  27.829  -6.495  0.00  0.00    -0.010 C 
HETATM   18  C   UNK N   1      28.270  26.925  -6.187  0.00  0.00     0.016 C 
HETATM   19  C   UNK N   1      26.031  26.978  -7.195  0.00  0.00     0.009 C 
HETATM   20  C   UNK N   1      25.593  25.823  -6.272  0.00  0.00    -0.010 C 
HETATM   21  C   UNK N   1      26.816  24.928  -5.871  0.00  0.00     0.016 C 
BRANCH  14  22
HETATM   22  O   UNK N   1      25.511  27.803  -3.099  0.00  0.00    -0.390 OA
HETATM   23  H   UNK N   1      24.704  27.831  -2.562  0.00  0.00     0.210 HD
ENDBRANCH  14  22
ENDBRANCH  11  12
BRANCH  11  24
HETATM   24  N   UNK N   1      30.335  26.148  -4.626  0.00  0.00    -0.418 N 
HETATM   25  H   UNK N   1      30.901  26.978  -4.454  0.00  0.00     0.150 HD
HETATM   26  H   UNK N   1      31.076  25.558  -5.005  0.00  0.00     0.150 HD
ENDBRANCH  11  24
ENDBRANCH   6  11
TORSDOF 4
ENDMDL
MODEL 6
REMARK VINA RESULT:      -6.2      3.906      5.855
REMARK  4 active torsions:
REMARK  status: ('A' for Active; 'I' for Inactive)
REMARK    1  A    between atoms: C_1  and  C_2 
REMARK    2  A    between atoms: C_2  and  C_17 
REMARK    3  A    between atoms: C_2  and  N_18 
REMARK    4  A    between atoms: C_4  and  O_21 
REMARK       I    between atoms: C_17  and  N_19 
ROOT
HETATM    1  C   UNK N   1      35.127  11.494  15.583  0.00  0.00     0.013 A 
HETATM    2  C   UNK N   1      34.191  11.653  14.397  0.00  0.00     0.032 A 
HETATM    3  C   UNK N   1      35.535  12.789  16.335  0.00  0.00     0.047 C 
HETATM    4  C   UNK N   1      37.149  14.675  15.741  0.00  0.00     0.085 C 
HETATM    5  N   UNK N   1      37.516  15.748  15.970  0.00  0.00    -0.195 NA
HETATM    6  C   UNK N   1      35.976  13.882  13.123  0.00  0.00     0.244 C 
HETATM    7  N   UNK N   1      36.200  12.993  14.168  0.00  0.00    -0.328 N 
HETATM    8  O   UNK N   1      36.284  15.059  13.223  0.00  0.00    -0.271 OA
HETATM    9  C   UNK N   1      35.677  11.652  14.159  0.00  0.00     0.093 A 
HETATM   10  C   UNK N   1      36.691  13.303  15.485  0.00  0.00     0.195 C 
ENDROOT
BRANCH   6  11
HETATM   11  C   UNK N   1      35.378  13.378  11.803  0.00  0.00     0.176 C 
BRANCH  11  12
HETATM   12  C   UNK N   1      36.401  13.009  10.680  0.00  0.00    -0.008 C 
HETATM   13  C   UNK N   1      35.923  11.688  10.047  0.00  0.00     0.050 C 
HETATM   14  C   UNK N   1      36.696  11.344   8.794  0.00  0.00     0.059 C 
HETATM   15  C   UNK N   1      36.463  12.474   7.785  0.00  0.00     0.042 C 
HETATM   16  C   UNK N   1      38.194  11.221   9.115  0.00  0.00     0.042 C 
HETATM   17  C   UNK N   1      37.010  13.798   8.349  0.00  0.00    -0.010 C 
HETATM   18  C   UNK N   1      36.302  14.148   9.642  0.00  0.00     0.016 C 
HETATM   19  C   UNK N   1      38.500  13.654   8.666  0.00  0.00     0.009 C 
HETATM   20  C   UNK N   1      38.709  12.539   9.711  0.00  0.00    -0.010 C 
HETATM   21  C   UNK N   1      37.910  12.844  11.025  0.00  0.00     0.016 C 
BRANCH  14  22
HETATM   22  O   UNK N   1      36.216  10.137   8.294  0.00  0.00    -0.390 OA
HETATM   23  H   UNK N   1      35.943   9.245   8.558  0.00  0.00     0.210 HD
ENDBRANCH  14  22
ENDBRANCH  11  12
BRANCH  11  24
HETATM   24  N   UNK N   1      34.277  14.206  11.338  0.00  0.00    -0.418 N 
HETATM   25  H   UNK N   1      33.702  14.926  10.901  0.00  0.00     0.150 HD
HETATM   26  H   UNK N   1      33.520  13.672  11.764  0.00  0.00     0.150 HD
ENDBRANCH  11  24
ENDBRANCH   6  11
TORSDOF 4
ENDMDL
MODEL 7
REMARK VINA RESULT:      -6.1      4.719      8.213
REMARK  4 active torsions:
REMARK  status: ('A' for Active; 'I' for Inactive)
REMARK    1  A    between atoms: C_1  and  C_2 
REMARK    2  A    between atoms: C_2  and  C_17 
REMARK    3  A    between atoms: C_2  and  N_18 
REMARK    4  A    between atoms: C_4  and  O_21 
REMARK       I    between atoms: C_17  and  N_19 
ROOT
HETATM    1  C   UNK N   1      26.572  15.319   3.696  0.00  0.00     0.013 A 
HETATM    2  C   UNK N   1      27.967  15.225   3.102  0.00  0.00     0.032 A 
HETATM    3  C   UNK N   1      25.895  16.715   3.679  0.00  0.00     0.047 C 
HETATM    4  C   UNK N   1      26.272  18.817   5.079  0.00  0.00     0.085 C 
HETATM    5  N   UNK N   1      26.082  19.952   5.198  0.00  0.00    -0.195 NA
HETATM    6  C   UNK N   1      28.994  17.646   4.793  0.00  0.00     0.244 C 
HETATM    7  N   UNK N   1      27.831  16.887   4.863  0.00  0.00    -0.328 N 
HETATM    8  O   UNK N   1      28.954  18.864   4.874  0.00  0.00    -0.271 OA
HETATM    9  C   UNK N   1      27.819  15.476   4.578  0.00  0.00     0.093 A 
HETATM   10  C   UNK N   1      26.477  17.370   4.927  0.00  0.00     0.195 C 
ENDROOT
BRANCH   6  11
HETATM   11  C   UNK N   1      30.356  16.953   4.658  0.00  0.00     0.176 C 
BRANCH  11  12
HETATM   12  C   UNK N   1      31.194  16.823   5.970  0.00  0.00    -0.008 C 
HETATM   13  C   UNK N   1      31.315  15.319   6.285  0.00  0.00     0.050 C 
HETATM   14  C   UNK N   1      32.300  15.048   7.400  0.00  0.00     0.059 C 
HETATM   15  C   UNK N   1      33.670  15.555   6.938  0.00  0.00     0.042 C 
HETATM   16  C   UNK N   1      31.866  15.784   8.677  0.00  0.00     0.042 C 
HETATM   17  C   UNK N   1      33.611  17.074   6.698  0.00  0.00    -0.010 C 
HETATM   18  C   UNK N   1      32.588  17.395   5.626  0.00  0.00     0.016 C 
HETATM   19  C   UNK N   1      33.173  17.788   7.979  0.00  0.00     0.009 C 
HETATM   20  C   UNK N   1      31.777  17.292   8.405  0.00  0.00    -0.010 C 
HETATM   21  C   UNK N   1      30.723  17.537   7.270  0.00  0.00     0.016 C 
BRANCH  14  22
HETATM   22  O   UNK N   1      32.340  13.676   7.632  0.00  0.00    -0.390 OA
HETATM   23  H   UNK N   1      32.636  13.008   8.270  0.00  0.00     0.210 HD
ENDBRANCH  14  22
ENDBRANCH  11  12
BRANCH  11  24
HETATM   24  N   UNK N   1      31.122  17.443   3.523  0.00  0.00    -0.418 N 
HETATM   25  H   UNK N   1      31.622  18.021   2.848  0.00  0.00     0.150 HD
HETATM   26  H   UNK N   1      31.262  16.545   3.060  0.00  0.00     0.150 HD
ENDBRANCH  11  24
ENDBRANCH   6  11
TORSDOF 4
ENDMDL
MODEL 8
REMARK VINA RESULT:      -6.1      4.164      8.168
REMARK  4 active torsions:
REMARK  status: ('A' for Active; 'I' for Inactive)
REMARK    1  A    between atoms: C_1  and  C_2 
REMARK    2  A    between atoms: C_2  and  C_17 
REMARK    3  A    between atoms: C_2  and  N_18 
REMARK    4  A    between atoms: C_4  and  O_21 
REMARK       I    between atoms: C_17  and  N_19 
ROOT
HETATM    1  C   UNK N   1      27.199  19.616   4.172  0.00  0.00     0.013 A 
HETATM    2  C   UNK N   1      27.589  19.770   5.632  0.00  0.00     0.032 A 
HETATM    3  C   UNK N   1      26.324  18.388   3.805  0.00  0.00     0.047 C 
HETATM    4  C   UNK N   1      26.873  15.906   3.574  0.00  0.00     0.085 C 
HETATM    5  N   UNK N   1      26.468  14.825   3.492  0.00  0.00    -0.195 NA
HETATM    6  C   UNK N   1      28.620  16.823   5.802  0.00  0.00     0.244 C 
HETATM    7  N   UNK N   1      28.261  17.624   4.724  0.00  0.00    -0.328 N 
HETATM    8  O   UNK N   1      28.246  15.663   5.874  0.00  0.00    -0.271 OA
HETATM    9  C   UNK N   1      28.519  19.040   4.701  0.00  0.00     0.093 A 
HETATM   10  C   UNK N   1      27.367  17.287   3.648  0.00  0.00     0.195 C 
ENDROOT
BRANCH   6  11
HETATM   11  C   UNK N   1      29.537  17.379   6.899  0.00  0.00     0.176 C 
BRANCH  11  12
HETATM   12  C   UNK N   1      31.049  16.999   6.790  0.00  0.00    -0.008 C 
HETATM   13  C   UNK N   1      31.752  17.570   8.038  0.00  0.00     0.050 C 
HETATM   14  C   UNK N   1      33.173  17.070   8.169  0.00  0.00     0.059 C 
HETATM   15  C   UNK N   1      33.115  15.545   8.303  0.00  0.00     0.042 C 
HETATM   16  C   UNK N   1      33.986  17.462   6.925  0.00  0.00     0.042 C 
HETATM   17  C   UNK N   1      32.498  14.932   7.033  0.00  0.00    -0.010 C 
HETATM   18  C   UNK N   1      31.090  15.456   6.831  0.00  0.00     0.016 C 
HETATM   19  C   UNK N   1      33.319  15.337   5.806  0.00  0.00     0.009 C 
HETATM   20  C   UNK N   1      33.332  16.873   5.667  0.00  0.00    -0.010 C 
HETATM   21  C   UNK N   1      31.875  17.439   5.546  0.00  0.00     0.016 C 
BRANCH  14  22
HETATM   22  O   UNK N   1      33.740  17.640   9.306  0.00  0.00    -0.390 OA
HETATM   23  H   UNK N   1      33.636  17.714  10.267  0.00  0.00     0.210 HD
ENDBRANCH  14  22
ENDBRANCH  11  12
BRANCH  11  24
HETATM   24  N   UNK N   1      28.986  17.198   8.232  0.00  0.00    -0.418 N 
HETATM   25  H   UNK N   1      28.846  17.136   9.240  0.00  0.00     0.150 HD
HETATM   26  H   UNK N   1      28.037  16.948   7.951  0.00  0.00     0.150 HD
ENDBRANCH  11  24
ENDBRANCH   6  11
TORSDOF 4
ENDMDL
MODEL 9
REMARK VINA RESULT:      -6.1      9.035     12.791
REMARK  4 active torsions:
REMARK  status: ('A' for Active; 'I' for Inactive)
REMARK    1  A    between atoms: C_1  and  C_2 
REMARK    2  A    between atoms: C_2  and  C_17 
REMARK    3  A    between atoms: C_2  and  N_18 
REMARK    4  A    between atoms: C_4  and  O_21 
REMARK       I    between atoms: C_17  and  N_19 
ROOT
HETATM    1  C   UNK N   1      35.771  11.288  15.866  0.00  0.00     0.013 A 
HETATM    2  C   UNK N   1      36.502  10.268  16.721  0.00  0.00     0.032 A 
HETATM    3  C   UNK N   1      36.038  12.785  16.174  0.00  0.00     0.047 C 
HETATM    4  C   UNK N   1      35.255  14.307  18.068  0.00  0.00     0.085 C 
HETATM    5  N   UNK N   1      35.392  15.310  18.629  0.00  0.00    -0.195 NA
HETATM    6  C   UNK N   1      35.602  11.655  19.375  0.00  0.00     0.244 C 
HETATM    7  N   UNK N   1      35.197  11.817  18.055  0.00  0.00    -0.328 N 
HETATM    8  O   UNK N   1      35.815  12.622  20.090  0.00  0.00    -0.271 OA
HETATM    9  C   UNK N   1      35.125  10.713  17.134  0.00  0.00     0.093 A 
HETATM   10  C   UNK N   1      35.076  13.052  17.326  0.00  0.00     0.195 C 
ENDROOT
BRANCH   6  11
HETATM   11  C   UNK N   1      35.741  10.247  19.967  0.00  0.00     0.176 C 
BRANCH  11  12
HETATM   12  C   UNK N   1      34.489   9.689  20.718  0.00  0.00    -0.008 C 
HETATM   13  C   UNK N   1      33.771   8.727  19.751  0.00  0.00     0.050 C 
HETATM   14  C   UNK N   1      32.675   7.942  20.437  0.00  0.00     0.059 C 
HETATM   15  C   UNK N   1      33.329   7.112  21.547  0.00  0.00     0.042 C 
HETATM   16  C   UNK N   1      31.636   8.903  21.037  0.00  0.00     0.042 C 
HETATM   17  C   UNK N   1      33.984   8.046  22.581  0.00  0.00    -0.010 C 
HETATM   18  C   UNK N   1      35.049   8.896  21.919  0.00  0.00     0.016 C 
HETATM   19  C   UNK N   1      32.934   8.995  23.164  0.00  0.00     0.009 C 
HETATM   20  C   UNK N   1      32.317   9.848  22.038  0.00  0.00    -0.010 C 
HETATM   21  C   UNK N   1      33.420  10.669  21.284  0.00  0.00     0.016 C 
BRANCH  14  22
HETATM   22  O   UNK N   1      32.070   7.113  19.498  0.00  0.00    -0.390 OA
HETATM   23  H   UNK N   1      32.144   6.245  19.070  0.00  0.00     0.210 HD
ENDBRANCH  14  22
ENDBRANCH  11  12
BRANCH  11  24
HETATM   24  N   UNK N   1      36.986  10.070  20.698  0.00  0.00    -0.418 N 
HETATM   25  H   UNK N   1      37.752  10.133  21.367  0.00  0.00     0.150 HD
HETATM   26  H   UNK N   1      37.391   9.351  20.098  0.00  0.00     0.150 HD
ENDBRANCH  11  24
ENDBRANCH   6  11
TORSDOF 4
ENDMDL
