REMARK  10 active torsions:
REMARK  status: ('A' for Active; 'I' for Inactive)
REMARK    1  A    between atoms: C_1  and  C_2 
REMARK    2  A    between atoms: C_1  and  C_9 
REMARK    3  A    between atoms: C_2  and  B_6 
REMARK    4  A    between atoms: C_2  and  N_24 
REMARK    5  A    between atoms: C_3  and  O_4 
REMARK    6  A    between atoms: C_3  and  C_13 
REMARK    7  A    between atoms: B_6  and  O_7 
REMARK    8  A    between atoms: B_6  and  O_14 
REMARK    9  A    between atoms: C_15  and  C_21 
REMARK   10  A    between atoms: C_21  and  C_22 
REMARK       I    between atoms: C_22  and  N_24 
ROOT
HETATM    1  C   UNK N   1      -0.185   0.686  -0.052  0.00  0.00     0.114 C 
ENDROOT
BRANCH   1   2
HETATM    2  C   UNK N   1      -0.849   2.017  -0.452  0.00  0.00     0.059 C 
BRANCH   2   3
HETATM    3  C   UNK N   1      -2.333   2.165  -0.199  0.00  0.00    -0.056 A 
HETATM    4  C   UNK N   1      -2.929   3.419  -0.371  0.00  0.00     0.007 A 
HETATM    5  C   UNK N   1      -4.309   3.575  -0.202  0.00  0.00     0.002 A 
HETATM    6  C   UNK N   1      -5.108   2.470   0.111  0.00  0.00     0.018 A 
HETATM    7  C   UNK N   1      -4.525   1.208   0.278  0.00  0.00     0.038 A 
HETATM    8  C   UNK N   1      -3.142   1.069   0.135  0.00  0.00     0.025 A 
BRANCH   7   9
HETATM    9  C   UNK N   1      -5.362   0.024   0.557  0.00  0.00     0.176 C 
HETATM   10  O   UNK N   1      -4.847  -1.079   0.675  0.00  0.00    -0.646 OA
BRANCH   9  11
HETATM   11  O   UNK N   1      -6.699   0.144   0.654  0.00  0.00    -0.773 OA
HETATM   12  H   UNK N   1      -7.092   0.992   0.721  0.00  0.00     0.167 HD
ENDBRANCH   9  11
ENDBRANCH   7   9
ENDBRANCH   2   3
ENDBRANCH   1   2
BRANCH   1  13
HETATM   13  B   UNK N   1      -0.776  -0.616  -0.781  0.00  0.00     0.515 B 
BRANCH  13  14
HETATM   14  O   UNK N   1      -0.236  -1.930  -0.439  0.00  0.00    -0.436 OA
HETATM   15  H   UNK N   1      -0.813  -2.676  -0.212  0.00  0.00     0.184 HD
ENDBRANCH  13  14
BRANCH  13  16
HETATM   16  O   UNK N   1      -1.792  -0.506  -1.825  0.00  0.00    -0.436 OA
HETATM   17  H   UNK N   1      -2.066   0.115  -2.518  0.00  0.00     0.184 HD
ENDBRANCH  13  16
ENDBRANCH   1  13
BRANCH   1  18
HETATM   18  N   UNK N   1       1.208   0.721  -0.437  0.00  0.00    -0.359 N 
HETATM   19  C   UNK N   1       2.251   0.542   0.408  0.00  0.00     0.221 C 
HETATM   20  O   UNK N   1       2.077   0.423   1.612  0.00  0.00    -0.273 OA
HETATM   21  H   UNK N   1       1.414   0.889  -1.386  0.00  0.00     0.162 HD
BRANCH  19  22
HETATM   22  C   UNK N   1       3.614   0.347  -0.176  0.00  0.00     0.141 C 
BRANCH  22  23
HETATM   23  C   UNK N   1       4.001  -1.097  -0.078  0.00  0.00    -0.050 A 
HETATM   24  C   UNK N   1       5.185  -1.462   0.570  0.00  0.00     0.007 A 
HETATM   25  C   UNK N   1       5.541  -2.812   0.671  0.00  0.00     0.001 A 
HETATM   26  C   UNK N   1       4.710  -3.800   0.131  0.00  0.00     0.000 A 
HETATM   27  C   UNK N   1       3.527  -3.439  -0.519  0.00  0.00     0.001 A 
HETATM   28  C   UNK N   1       3.176  -2.091  -0.629  0.00  0.00     0.007 A 
ENDBRANCH  22  23
ENDBRANCH  19  22
ENDBRANCH   1  18
TORSDOF 10
