MODEL 1
REMARK VINA RESULT:      -7.6      0.000      0.000
REMARK  4 active torsions:
REMARK  status: ('A' for Active; 'I' for Inactive)
REMARK    1  A    between atoms: N_3  and  S_2 
REMARK    2  A    between atoms: C_5  and  S_2 
REMARK    3  A    between atoms: C_12  and  C_11 
REMARK       I    between atoms: N_14  and  C_12 
REMARK    4  A    between atoms: N_15  and  N_14 
ROOT
HETATM    1  C   UNK N   1      35.878  13.370  13.102  0.00  0.00     0.270 C 
HETATM    2  O   UNK N   1      36.882  12.685  12.978  0.00  0.00    -0.266 OA
HETATM    3  N   UNK N   1      35.054  13.210  14.176  0.00  0.00    -0.263 N 
HETATM    4  H   UNK N   1      34.310  13.847  14.283  0.00  0.00     0.190 HD
ENDROOT
BRANCH   1   5
HETATM    5  C   UNK N   1      35.541  14.341  12.043  0.00  0.00     0.035 A 
HETATM    6  C   UNK N   1      36.031  15.653  12.065  0.00  0.00     0.019 A 
HETATM    7  C   UNK N   1      35.649  16.558  11.068  0.00  0.00     0.026 A 
HETATM    8  C   UNK N   1      34.763  16.169  10.055  0.00  0.00     0.057 A 
HETATM    9  C   UNK N   1      34.261  14.850  10.039  0.00  0.00     0.102 A 
HETATM   10 Cl   UNK N   1      34.312  17.356   8.842  0.00  0.00    -0.083 Cl
HETATM   11  C   UNK N   1      34.663  13.955  11.028  0.00  0.00     0.044 A 
BRANCH   9  12
HETATM   12  S   UNK N   1      33.104  14.244   8.806  0.00  0.00     0.258 S 
HETATM   13  O   UNK N   1      33.599  14.253   7.353  0.00  0.00    -0.201 OA
HETATM   14  O   UNK N   1      31.866  15.150   8.720  0.00  0.00    -0.201 OA
BRANCH  12  15
HETATM   15  N   UNK N   1      32.433  12.634   9.071  0.00  0.00    -0.324 N 
HETATM   16  H   UNK N   1      31.692  12.022   9.413  0.00  0.00     0.169 HD
HETATM   17  H   UNK N   1      33.137  11.999   8.696  0.00  0.00     0.169 HD
ENDBRANCH  12  15
ENDBRANCH   9  12
ENDBRANCH   1   5
BRANCH   3  18
HETATM   18  N   UNK N   1      35.194  12.212  15.127  0.00  0.00    -0.284 N 
HETATM   19  C   UNK N   1      35.242  12.472  16.491  0.00  0.00     0.057 A 
HETATM   20  C   UNK N   1      35.229  13.722  17.111  0.00  0.00     0.031 A 
HETATM   21  C   UNK N   1      35.284  11.317  17.203  0.00  0.00    -0.028 A 
HETATM   22  C   UNK N   1      35.262  13.763  18.515  0.00  0.00     0.002 A 
HETATM   23  C   UNK N   1      35.303  12.565  19.258  0.00  0.00     0.001 A 
HETATM   24  C   UNK N   1      35.315  11.324  18.597  0.00  0.00     0.009 A 
HETATM   25  C   UNK N   1      35.281  10.128  16.298  0.00  0.00     0.067 A 
HETATM   26  C   UNK N   1      35.173  10.774  14.882  0.00  0.00     0.109 A 
HETATM   27  C   UNK N   1      33.851  10.356  14.258  0.00  0.00     0.034 C 
ENDBRANCH   3  18
TORSDOF 4
ENDMDL
MODEL 2
REMARK VINA RESULT:      -7.5     10.670     13.682
REMARK  4 active torsions:
REMARK  status: ('A' for Active; 'I' for Inactive)
REMARK    1  A    between atoms: N_3  and  S_2 
REMARK    2  A    between atoms: C_5  and  S_2 
REMARK    3  A    between atoms: C_12  and  C_11 
REMARK       I    between atoms: N_14  and  C_12 
REMARK    4  A    between atoms: N_15  and  N_14 
ROOT
HETATM    1  C   UNK N   1      25.796  18.066   4.929  0.00  0.00     0.270 C 
HETATM    2  O   UNK N   1      26.379  18.936   4.300  0.00  0.00    -0.266 OA
HETATM    3  N   UNK N   1      26.477  17.241   5.774  0.00  0.00    -0.263 N 
HETATM    4  H   UNK N   1      25.954  16.619   6.330  0.00  0.00     0.190 HD
ENDROOT
BRANCH   1   5
HETATM    5  C   UNK N   1      24.346  17.886   4.721  0.00  0.00     0.035 A 
HETATM    6  C   UNK N   1      23.690  16.705   5.090  0.00  0.00     0.019 A 
HETATM    7  C   UNK N   1      22.323  16.555   4.830  0.00  0.00     0.026 A 
HETATM    8  C   UNK N   1      21.605  17.571   4.187  0.00  0.00     0.057 A 
HETATM    9  C   UNK N   1      22.268  18.757   3.805  0.00  0.00     0.102 A 
HETATM   10 Cl   UNK N   1      19.896  17.316   3.878  0.00  0.00    -0.083 Cl
HETATM   11  C   UNK N   1      23.625  18.900   4.085  0.00  0.00     0.044 A 
BRANCH   9  12
HETATM   12  S   UNK N   1      21.459  20.117   2.955  0.00  0.00     0.258 S 
HETATM   13  O   UNK N   1      22.323  21.360   2.695  0.00  0.00    -0.201 OA
HETATM   14  O   UNK N   1      20.322  20.701   3.807  0.00  0.00    -0.201 OA
BRANCH  12  15
HETATM   15  N   UNK N   1      20.686  19.743   1.414  0.00  0.00    -0.324 N 
HETATM   16  H   UNK N   1      20.727  19.382   0.461  0.00  0.00     0.169 HD
HETATM   17  H   UNK N   1      19.716  20.029   1.538  0.00  0.00     0.169 HD
ENDBRANCH  12  15
ENDBRANCH   9  12
ENDBRANCH   1   5
BRANCH   3  18
HETATM   18  N   UNK N   1      27.857  17.221   5.902  0.00  0.00    -0.284 N 
HETATM   19  C   UNK N   1      28.511  17.627   7.059  0.00  0.00     0.057 A 
HETATM   20  C   UNK N   1      27.933  18.163   8.210  0.00  0.00     0.031 A 
HETATM   21  C   UNK N   1      29.849  17.415   6.958  0.00  0.00    -0.028 A 
HETATM   22  C   UNK N   1      28.779  18.488   9.284  0.00  0.00     0.002 A 
HETATM   23  C   UNK N   1      30.168  18.267   9.183  0.00  0.00     0.001 A 
HETATM   24  C   UNK N   1      30.714  17.725   8.007  0.00  0.00     0.009 A 
HETATM   25  C   UNK N   1      30.200  16.828   5.630  0.00  0.00     0.067 A 
HETATM   26  C   UNK N   1      28.807  16.665   4.946  0.00  0.00     0.109 A 
HETATM   27  C   UNK N   1      28.545  15.183   4.729  0.00  0.00     0.034 C 
ENDBRANCH   3  18
TORSDOF 4
ENDMDL
MODEL 3
REMARK VINA RESULT:      -7.0      4.722      8.729
REMARK  4 active torsions:
REMARK  status: ('A' for Active; 'I' for Inactive)
REMARK    1  A    between atoms: N_3  and  S_2 
REMARK    2  A    between atoms: C_5  and  S_2 
REMARK    3  A    between atoms: C_12  and  C_11 
REMARK       I    between atoms: N_14  and  C_12 
REMARK    4  A    between atoms: N_15  and  N_14 
ROOT
HETATM    1  C   UNK N   1      33.042  14.730   8.534  0.00  0.00     0.270 C 
HETATM    2  O   UNK N   1      32.171  13.886   8.680  0.00  0.00    -0.266 OA
HETATM    3  N   UNK N   1      32.774  15.906   7.900  0.00  0.00    -0.263 N 
HETATM    4  H   UNK N   1      33.478  16.594   7.889  0.00  0.00     0.190 HD
ENDROOT
BRANCH   1   5
HETATM    5  C   UNK N   1      34.408  14.435   9.010  0.00  0.00     0.035 A 
HETATM    6  C   UNK N   1      35.488  14.330   8.126  0.00  0.00     0.019 A 
HETATM    7  C   UNK N   1      36.759  14.000   8.611  0.00  0.00     0.026 A 
HETATM    8  C   UNK N   1      36.958  13.755   9.977  0.00  0.00     0.057 A 
HETATM    9  C   UNK N   1      35.866  13.850  10.866  0.00  0.00     0.102 A 
HETATM   10 Cl   UNK N   1      38.572  13.332  10.520  0.00  0.00    -0.083 Cl
HETATM   11  C   UNK N   1      34.611  14.196  10.371  0.00  0.00     0.044 A 
BRANCH   9  12
HETATM   12  S   UNK N   1      35.993  13.537  12.630  0.00  0.00     0.258 S 
HETATM   13  O   UNK N   1      36.713  12.242  13.036  0.00  0.00    -0.201 OA
HETATM   14  O   UNK N   1      34.604  13.330  13.255  0.00  0.00    -0.201 OA
BRANCH  12  15
HETATM   15  N   UNK N   1      36.715  14.812  13.613  0.00  0.00    -0.324 N 
HETATM   16  H   UNK N   1      37.455  15.492  13.786  0.00  0.00     0.169 HD
HETATM   17  H   UNK N   1      36.074  14.925  14.396  0.00  0.00     0.169 HD
ENDBRANCH  12  15
ENDBRANCH   9  12
ENDBRANCH   1   5
BRANCH   3  18
HETATM   18  N   UNK N   1      31.574  16.198   7.272  0.00  0.00    -0.284 N 
HETATM   19  C   UNK N   1      30.610  17.027   7.834  0.00  0.00     0.057 A 
HETATM   20  C   UNK N   1      30.645  17.624   9.095  0.00  0.00     0.031 A 
HETATM   21  C   UNK N   1      29.579  17.226   6.973  0.00  0.00    -0.028 A 
HETATM   22  C   UNK N   1      29.570  18.451   9.464  0.00  0.00     0.002 A 
HETATM   23  C   UNK N   1      28.499  18.661   8.571  0.00  0.00     0.001 A 
HETATM   24  C   UNK N   1      28.500  18.042   7.309  0.00  0.00     0.009 A 
HETATM   25  C   UNK N   1      29.795  16.480   5.697  0.00  0.00     0.067 A 
HETATM   26  C   UNK N   1      31.193  15.822   5.915  0.00  0.00     0.109 A 
HETATM   27  C   UNK N   1      32.166  16.406   4.903  0.00  0.00     0.034 C 
ENDBRANCH   3  18
TORSDOF 4
ENDMDL
MODEL 4
REMARK VINA RESULT:      -6.9      9.907     12.955
REMARK  4 active torsions:
REMARK  status: ('A' for Active; 'I' for Inactive)
REMARK    1  A    between atoms: N_3  and  S_2 
REMARK    2  A    between atoms: C_5  and  S_2 
REMARK    3  A    between atoms: C_12  and  C_11 
REMARK       I    between atoms: N_14  and  C_12 
REMARK    4  A    between atoms: N_15  and  N_14 
ROOT
HETATM    1  C   UNK N   1      27.148  17.611   4.945  0.00  0.00     0.270 C 
HETATM    2  O   UNK N   1      27.150  16.390   4.933  0.00  0.00    -0.266 OA
HETATM    3  N   UNK N   1      28.171  18.304   5.519  0.00  0.00    -0.263 N 
HETATM    4  H   UNK N   1      28.174  19.284   5.422  0.00  0.00     0.190 HD
ENDROOT
BRANCH   1   5
HETATM    5  C   UNK N   1      25.993  18.328   4.371  0.00  0.00     0.035 A 
HETATM    6  C   UNK N   1      26.157  19.402   3.488  0.00  0.00     0.019 A 
HETATM    7  C   UNK N   1      25.037  20.088   3.004  0.00  0.00     0.026 A 
HETATM    8  C   UNK N   1      23.748  19.721   3.412  0.00  0.00     0.057 A 
HETATM    9  C   UNK N   1      23.582  18.646   4.311  0.00  0.00     0.102 A 
HETATM   10 Cl   UNK N   1      22.385  20.630   2.780  0.00  0.00    -0.083 Cl
HETATM   11  C   UNK N   1      24.705  17.962   4.771  0.00  0.00     0.044 A 
BRANCH   9  12
HETATM   12  S   UNK N   1      21.983  18.100   4.921  0.00  0.00     0.258 S 
HETATM   13  O   UNK N   1      21.000  17.577   3.864  0.00  0.00    -0.201 OA
HETATM   14  O   UNK N   1      21.196  19.271   5.528  0.00  0.00    -0.201 OA
BRANCH  12  15
HETATM   15  N   UNK N   1      21.995  16.887   6.203  0.00  0.00    -0.324 N 
HETATM   16  H   UNK N   1      21.508  16.312   6.890  0.00  0.00     0.169 HD
HETATM   17  H   UNK N   1      22.978  16.637   6.310  0.00  0.00     0.169 HD
ENDBRANCH  12  15
ENDBRANCH   9  12
ENDBRANCH   1   5
BRANCH   3  18
HETATM   18  N   UNK N   1      29.208  17.720   6.231  0.00  0.00    -0.284 N 
HETATM   19  C   UNK N   1      30.468  17.505   5.686  0.00  0.00     0.057 A 
HETATM   20  C   UNK N   1      30.873  17.759   4.375  0.00  0.00     0.031 A 
HETATM   21  C   UNK N   1      31.322  17.012   6.619  0.00  0.00    -0.028 A 
HETATM   22  C   UNK N   1      32.209  17.488   4.032  0.00  0.00     0.002 A 
HETATM   23  C   UNK N   1      33.099  16.979   5.001  0.00  0.00     0.001 A 
HETATM   24  C   UNK N   1      32.653  16.736   6.312  0.00  0.00     0.009 A 
HETATM   25  C   UNK N   1      30.637  16.842   7.936  0.00  0.00     0.067 A 
HETATM   26  C   UNK N   1      29.200  17.379   7.648  0.00  0.00     0.109 A 
HETATM   27  C   UNK N   1      28.967  18.618   8.498  0.00  0.00     0.034 C 
ENDBRANCH   3  18
TORSDOF 4
ENDMDL
MODEL 5
REMARK VINA RESULT:      -6.9      2.510      2.846
REMARK  4 active torsions:
REMARK  status: ('A' for Active; 'I' for Inactive)
REMARK    1  A    between atoms: N_3  and  S_2 
REMARK    2  A    between atoms: C_5  and  S_2 
REMARK    3  A    between atoms: C_12  and  C_11 
REMARK       I    between atoms: N_14  and  C_12 
REMARK    4  A    between atoms: N_15  and  N_14 
ROOT
HETATM    1  C   UNK N   1      35.925  13.216  12.473  0.00  0.00     0.270 C 
HETATM    2  O   UNK N   1      34.885  13.827  12.667  0.00  0.00    -0.266 OA
HETATM    3  N   UNK N   1      36.520  12.515  13.479  0.00  0.00    -0.263 N 
HETATM    4  H   UNK N   1      37.304  11.963  13.253  0.00  0.00     0.190 HD
ENDROOT
BRANCH   1   5
HETATM    5  C   UNK N   1      36.558  13.292  11.142  0.00  0.00     0.035 A 
HETATM    6  C   UNK N   1      37.933  13.095  10.969  0.00  0.00     0.019 A 
HETATM    7  C   UNK N   1      38.503  13.224   9.697  0.00  0.00     0.026 A 
HETATM    8  C   UNK N   1      37.711  13.567   8.593  0.00  0.00     0.057 A 
HETATM    9  C   UNK N   1      36.326  13.776   8.770  0.00  0.00     0.102 A 
HETATM   10 Cl   UNK N   1      38.488  13.727   7.028  0.00  0.00    -0.083 Cl
HETATM   11  C   UNK N   1      35.770  13.628  10.038  0.00  0.00     0.044 A 
BRANCH   9  12
HETATM   12  S   UNK N   1      35.215  14.242   7.438  0.00  0.00     0.258 S 
HETATM   13  O   UNK N   1      35.564  15.536   6.688  0.00  0.00    -0.201 OA
HETATM   14  O   UNK N   1      33.812  14.562   7.977  0.00  0.00    -0.201 OA
BRANCH  12  15
HETATM   15  N   UNK N   1      34.923  13.031   6.188  0.00  0.00    -0.324 N 
HETATM   16  H   UNK N   1      34.364  12.659   5.421  0.00  0.00     0.169 HD
HETATM   17  H   UNK N   1      35.702  12.379   6.277  0.00  0.00     0.169 HD
ENDBRANCH  12  15
ENDBRANCH   9  12
ENDBRANCH   1   5
BRANCH   3  18
HETATM   18  N   UNK N   1      36.095  12.528  14.798  0.00  0.00    -0.284 N 
HETATM   19  C   UNK N   1      36.335  13.594  15.657  0.00  0.00     0.057 A 
HETATM   20  C   UNK N   1      37.069  14.748  15.382  0.00  0.00     0.031 A 
HETATM   21  C   UNK N   1      35.729  13.396  16.856  0.00  0.00    -0.028 A 
HETATM   22  C   UNK N   1      37.172  15.722  16.391  0.00  0.00     0.002 A 
HETATM   23  C   UNK N   1      36.542  15.520  17.636  0.00  0.00     0.001 A 
HETATM   24  C   UNK N   1      35.811  14.343  17.875  0.00  0.00     0.009 A 
HETATM   25  C   UNK N   1      35.008  12.088  16.883  0.00  0.00     0.067 A 
HETATM   26  C   UNK N   1      35.239  11.538  15.441  0.00  0.00     0.109 A 
HETATM   27  C   UNK N   1      33.895  11.449  14.735  0.00  0.00     0.034 C 
ENDBRANCH   3  18
TORSDOF 4
ENDMDL
MODEL 6
REMARK VINA RESULT:      -6.7      5.470      9.350
REMARK  4 active torsions:
REMARK  status: ('A' for Active; 'I' for Inactive)
REMARK    1  A    between atoms: N_3  and  S_2 
REMARK    2  A    between atoms: C_5  and  S_2 
REMARK    3  A    between atoms: C_12  and  C_11 
REMARK       I    between atoms: N_14  and  C_12 
REMARK    4  A    between atoms: N_15  and  N_14 
ROOT
HETATM    1  C   UNK N   1      32.894  16.870   8.252  0.00  0.00     0.270 C 
HETATM    2  O   UNK N   1      33.160  18.061   8.305  0.00  0.00    -0.266 OA
HETATM    3  N   UNK N   1      31.603  16.446   8.156  0.00  0.00    -0.263 N 
HETATM    4  H   UNK N   1      31.444  15.484   8.021  0.00  0.00     0.190 HD
ENDROOT
BRANCH   1   5
HETATM    5  C   UNK N   1      33.995  15.890   8.346  0.00  0.00     0.035 A 
HETATM    6  C   UNK N   1      34.733  15.503   7.221  0.00  0.00     0.019 A 
HETATM    7  C   UNK N   1      35.736  14.534   7.343  0.00  0.00     0.026 A 
HETATM    8  C   UNK N   1      35.997  13.932   8.581  0.00  0.00     0.057 A 
HETATM    9  C   UNK N   1      35.245  14.314   9.713  0.00  0.00     0.102 A 
HETATM   10 Cl   UNK N   1      37.258  12.713   8.665  0.00  0.00    -0.083 Cl
HETATM   11  C   UNK N   1      34.262  15.292   9.580  0.00  0.00     0.044 A 
BRANCH   9  12
HETATM   12  S   UNK N   1      35.473  13.598  11.344  0.00  0.00     0.258 S 
HETATM   13  O   UNK N   1      35.124  12.109  11.483  0.00  0.00    -0.201 OA
HETATM   14  O   UNK N   1      34.519  14.238  12.365  0.00  0.00    -0.201 OA
BRANCH  12  15
HETATM   15  N   UNK N   1      37.066  13.785  12.077  0.00  0.00    -0.324 N 
HETATM   16  H   UNK N   1      37.999  13.428  12.285  0.00  0.00     0.169 HD
HETATM   17  H   UNK N   1      37.044  14.708  12.507  0.00  0.00     0.169 HD
ENDBRANCH  12  15
ENDBRANCH   9  12
ENDBRANCH   1   5
BRANCH   3  18
HETATM   18  N   UNK N   1      30.500  17.281   8.235  0.00  0.00    -0.284 N 
HETATM   19  C   UNK N   1      29.746  17.640   7.124  0.00  0.00     0.057 A 
HETATM   20  C   UNK N   1      29.993  17.301   5.793  0.00  0.00     0.031 A 
HETATM   21  C   UNK N   1      28.668  18.382   7.488  0.00  0.00    -0.028 A 
HETATM   22  C   UNK N   1      29.087  17.752   4.818  0.00  0.00     0.002 A 
HETATM   23  C   UNK N   1      27.965  18.519   5.194  0.00  0.00     0.001 A 
HETATM   24  C   UNK N   1      27.751  18.841   6.545  0.00  0.00     0.009 A 
HETATM   25  C   UNK N   1      28.638  18.593   8.967  0.00  0.00     0.067 A 
HETATM   26  C   UNK N   1      29.883  17.787   9.455  0.00  0.00     0.109 A 
HETATM   27  C   UNK N   1      29.404  16.640  10.330  0.00  0.00     0.034 C 
ENDBRANCH   3  18
TORSDOF 4
ENDMDL
MODEL 7
REMARK VINA RESULT:      -6.4      7.942     12.332
REMARK  4 active torsions:
REMARK  status: ('A' for Active; 'I' for Inactive)
REMARK    1  A    between atoms: N_3  and  S_2 
REMARK    2  A    between atoms: C_5  and  S_2 
REMARK    3  A    between atoms: C_12  and  C_11 
REMARK       I    between atoms: N_14  and  C_12 
REMARK    4  A    between atoms: N_15  and  N_14 
ROOT
HETATM    1  C   UNK N   1      29.302  17.595   5.490  0.00  0.00     0.270 C 
HETATM    2  O   UNK N   1      29.410  17.430   4.285  0.00  0.00    -0.266 OA
HETATM    3  N   UNK N   1      28.229  18.252   6.011  0.00  0.00    -0.263 N 
HETATM    4  H   UNK N   1      28.136  18.279   6.991  0.00  0.00     0.190 HD
ENDROOT
BRANCH   1   5
HETATM    5  C   UNK N   1      30.382  17.114   6.375  0.00  0.00     0.035 A 
HETATM    6  C   UNK N   1      30.342  17.313   7.760  0.00  0.00     0.019 A 
HETATM    7  C   UNK N   1      31.409  16.887   8.559  0.00  0.00     0.026 A 
HETATM    8  C   UNK N   1      32.530  16.275   7.982  0.00  0.00     0.057 A 
HETATM    9  C   UNK N   1      32.575  16.085   6.584  0.00  0.00     0.102 A 
HETATM   10 Cl   UNK N   1      33.841  15.776   9.037  0.00  0.00    -0.083 Cl
HETATM   11  C   UNK N   1      31.499  16.499   5.804  0.00  0.00     0.044 A 
BRANCH   9  12
HETATM   12  S   UNK N   1      33.967  15.335   5.730  0.00  0.00     0.258 S 
HETATM   13  O   UNK N   1      35.334  15.995   5.959  0.00  0.00    -0.201 OA
HETATM   14  O   UNK N   1      33.810  15.463   4.206  0.00  0.00    -0.201 OA
BRANCH  12  15
HETATM   15  N   UNK N   1      34.220  13.609   5.988  0.00  0.00    -0.324 N 
HETATM   16  H   UNK N   1      34.625  12.837   6.517  0.00  0.00     0.169 HD
HETATM   17  H   UNK N   1      33.704  13.159   5.233  0.00  0.00     0.169 HD
ENDBRANCH  12  15
ENDBRANCH   9  12
ENDBRANCH   1   5
BRANCH   3  18
HETATM   18  N   UNK N   1      27.258  18.886   5.252  0.00  0.00    -0.284 N 
HETATM   19  C   UNK N   1      26.039  18.294   4.940  0.00  0.00     0.057 A 
HETATM   20  C   UNK N   1      25.626  17.000   5.259  0.00  0.00     0.031 A 
HETATM   21  C   UNK N   1      25.236  19.162   4.273  0.00  0.00    -0.028 A 
HETATM   22  C   UNK N   1      24.336  16.603   4.867  0.00  0.00     0.002 A 
HETATM   23  C   UNK N   1      23.498  17.503   4.176  0.00  0.00     0.001 A 
HETATM   24  C   UNK N   1      23.951  18.799   3.873  0.00  0.00     0.009 A 
HETATM   25  C   UNK N   1      25.917  20.475   4.069  0.00  0.00     0.067 A 
HETATM   26  C   UNK N   1      27.285  20.269   4.791  0.00  0.00     0.109 A 
HETATM   27  C   UNK N   1      27.359  21.227   5.970  0.00  0.00     0.034 C 
ENDBRANCH   3  18
TORSDOF 4
ENDMDL
MODEL 8
REMARK VINA RESULT:      -6.4      9.039     12.844
REMARK  4 active torsions:
REMARK  status: ('A' for Active; 'I' for Inactive)
REMARK    1  A    between atoms: N_3  and  S_2 
REMARK    2  A    between atoms: C_5  and  S_2 
REMARK    3  A    between atoms: C_12  and  C_11 
REMARK       I    between atoms: N_14  and  C_12 
REMARK    4  A    between atoms: N_15  and  N_14 
ROOT
HETATM    1  C   UNK N   1      28.637  16.837   4.365  0.00  0.00     0.270 C 
HETATM    2  O   UNK N   1      28.268  16.552   3.236  0.00  0.00    -0.266 OA
HETATM    3  N   UNK N   1      27.746  17.261   5.305  0.00  0.00    -0.263 N 
HETATM    4  H   UNK N   1      28.073  17.387   6.225  0.00  0.00     0.190 HD
ENDROOT
BRANCH   1   5
HETATM    5  C   UNK N   1      30.076  16.763   4.684  0.00  0.00     0.035 A 
HETATM    6  C   UNK N   1      31.012  16.285   3.758  0.00  0.00     0.019 A 
HETATM    7  C   UNK N   1      32.361  16.183   4.116  0.00  0.00     0.026 A 
HETATM    8  C   UNK N   1      32.784  16.539   5.403  0.00  0.00     0.057 A 
HETATM    9  C   UNK N   1      31.840  17.010   6.340  0.00  0.00     0.102 A 
HETATM   10 Cl   UNK N   1      34.488  16.376   5.795  0.00  0.00    -0.083 Cl
HETATM   11  C   UNK N   1      30.503  17.122   5.965  0.00  0.00     0.044 A 
BRANCH   9  12
HETATM   12  S   UNK N   1      32.259  17.473   8.025  0.00  0.00     0.258 S 
HETATM   13  O   UNK N   1      33.372  18.520   8.180  0.00  0.00    -0.201 OA
HETATM   14  O   UNK N   1      32.844  16.279   8.795  0.00  0.00    -0.201 OA
BRANCH  12  15
HETATM   15  N   UNK N   1      30.934  18.030   9.048  0.00  0.00    -0.324 N 
HETATM   16  H   UNK N   1      30.199  17.849   9.731  0.00  0.00     0.169 HD
HETATM   17  H   UNK N   1      30.873  19.031   8.865  0.00  0.00     0.169 HD
ENDBRANCH  12  15
ENDBRANCH   9  12
ENDBRANCH   1   5
BRANCH   3  18
HETATM   18  N   UNK N   1      26.409  17.525   5.050  0.00  0.00    -0.284 N 
HETATM   19  C   UNK N   1      25.985  18.628   4.319  0.00  0.00     0.057 A 
HETATM   20  C   UNK N   1      26.781  19.649   3.798  0.00  0.00     0.031 A 
HETATM   21  C   UNK N   1      24.641  18.598   4.132  0.00  0.00    -0.028 A 
HETATM   22  C   UNK N   1      26.150  20.669   3.063  0.00  0.00     0.002 A 
HETATM   23  C   UNK N   1      24.754  20.639   2.866  0.00  0.00     0.001 A 
HETATM   24  C   UNK N   1      23.987  19.592   3.406  0.00  0.00     0.009 A 
HETATM   25  C   UNK N   1      24.035  17.398   4.784  0.00  0.00     0.067 A 
HETATM   26  C   UNK N   1      25.280  16.658   5.366  0.00  0.00     0.109 A 
HETATM   27  C   UNK N   1      25.419  15.317   4.663  0.00  0.00     0.034 C 
ENDBRANCH   3  18
TORSDOF 4
ENDMDL
MODEL 9
REMARK VINA RESULT:      -6.4      2.162      2.608
REMARK  4 active torsions:
REMARK  status: ('A' for Active; 'I' for Inactive)
REMARK    1  A    between atoms: N_3  and  S_2 
REMARK    2  A    between atoms: C_5  and  S_2 
REMARK    3  A    between atoms: C_12  and  C_11 
REMARK       I    between atoms: N_14  and  C_12 
REMARK    4  A    between atoms: N_15  and  N_14 
ROOT
HETATM    1  C   UNK N   1      35.514  12.269  11.911  0.00  0.00     0.270 C 
HETATM    2  O   UNK N   1      36.735  12.254  11.864  0.00  0.00    -0.266 OA
HETATM    3  N   UNK N   1      34.854  11.828  13.018  0.00  0.00    -0.263 N 
HETATM    4  H   UNK N   1      33.877  11.947  13.048  0.00  0.00     0.190 HD
ENDROOT
BRANCH   1   5
HETATM    5  C   UNK N   1      34.761  12.725  10.726  0.00  0.00     0.035 A 
HETATM    6  C   UNK N   1      34.184  11.820   9.828  0.00  0.00     0.019 A 
HETATM    7  C   UNK N   1      33.520  12.292   8.690  0.00  0.00     0.026 A 
HETATM    8  C   UNK N   1      33.443  13.667   8.430  0.00  0.00     0.057 A 
HETATM    9  C   UNK N   1      34.035  14.578   9.329  0.00  0.00     0.102 A 
HETATM   10 Cl   UNK N   1      32.609  14.194   6.978  0.00  0.00    -0.083 Cl
HETATM   11  C   UNK N   1      34.677  14.095  10.467  0.00  0.00     0.044 A 
BRANCH   9  12
HETATM   12  S   UNK N   1      34.021  16.359   9.091  0.00  0.00     0.258 S 
HETATM   13  O   UNK N   1      34.706  16.875   7.817  0.00  0.00    -0.201 OA
HETATM   14  O   UNK N   1      34.829  17.068  10.188  0.00  0.00    -0.201 OA
BRANCH  12  15
HETATM   15  N   UNK N   1      32.447  17.154   9.142  0.00  0.00    -0.324 N 
HETATM   16  H   UNK N   1      31.798  17.868   8.811  0.00  0.00     0.169 HD
HETATM   17  H   UNK N   1      31.928  16.648   9.858  0.00  0.00     0.169 HD
ENDBRANCH  12  15
ENDBRANCH   9  12
ENDBRANCH   1   5
BRANCH   3  18
HETATM   18  N   UNK N   1      35.467  11.225  14.105  0.00  0.00    -0.284 N 
HETATM   19  C   UNK N   1      35.361  11.718  15.399  0.00  0.00     0.057 A 
HETATM   20  C   UNK N   1      34.712  12.885  15.806  0.00  0.00     0.031 A 
HETATM   21  C   UNK N   1      35.970  10.889  16.286  0.00  0.00    -0.028 A 
HETATM   22  C   UNK N   1      34.703  13.192  17.177  0.00  0.00     0.002 A 
HETATM   23  C   UNK N   1      35.333  12.332  18.100  0.00  0.00     0.001 A 
HETATM   24  C   UNK N   1      35.976  11.165  17.652  0.00  0.00     0.009 A 
HETATM   25  C   UNK N   1      36.577   9.715  15.591  0.00  0.00     0.067 A 
HETATM   26  C   UNK N   1      36.176   9.950  14.101  0.00  0.00     0.109 A 
HETATM   27  C   UNK N   1      35.253   8.824  13.664  0.00  0.00     0.034 C 
ENDBRANCH   3  18
TORSDOF 4
ENDMDL
