MODEL 1
REMARK VINA RESULT:      -7.3      0.000      0.000
REMARK  2 active torsions:
REMARK  status: ('A' for Active; 'I' for Inactive)
REMARK    1  A    between atoms: C_3  and  O_4 
REMARK    2  A    between atoms: C_8  and  N_7 
ROOT
HETATM    1  O   UNK N   1      35.529  17.673  10.208  0.00  0.00    -0.288 OA
HETATM    2  C   UNK N   1      35.132  16.517  10.214  0.00  0.00     0.204 C 
HETATM    3  C   UNK N   1      35.858  15.493  11.042  0.00  0.00     0.182 C 
HETATM    4  C   UNK N   1      36.061  15.750  12.540  0.00  0.00     0.075 C 
HETATM    5  C   UNK N   1      36.279  14.333  13.149  0.00  0.00     0.134 C 
HETATM    6  N   UNK N   1      35.550  13.473  12.253  0.00  0.00    -0.334 N 
HETATM    7  C   UNK N   1      35.160  14.189  11.114  0.00  0.00     0.128 C 
HETATM    8  N   UNK N   1      34.166  13.848  10.368  0.00  0.00    -0.342 N 
ATOM      9  HN  UNK N   1      33.746  12.927  10.497  1.00  0.00     0.167 HD
HETATM   10  C   UNK N   1      33.634  14.711   9.372  0.00  0.00     0.048 A 
HETATM   11  C   UNK N   1      34.057  16.058   9.284  0.00  0.00     0.046 A 
HETATM   12  C   UNK N   1      32.649  14.224   8.512  0.00  0.00     0.030 A 
HETATM   13  C   UNK N   1      32.086  15.054   7.545  0.00  0.00     0.003 A 
HETATM   14  C   UNK N   1      32.496  16.383   7.441  0.00  0.00     0.008 A 
HETATM   15  C   UNK N   1      33.471  16.897   8.300  0.00  0.00    -0.046 A 
HETATM   16  C   UNK N   1      33.871  18.324   8.123  0.00  0.00     0.049 C 
ENDROOT
BRANCH   6  17
HETATM   17  C   UNK N   1      35.229  12.110  12.545  0.00  0.00     0.035 A 
HETATM   18  C   UNK N   1      34.436  11.797  13.661  0.00  0.00     0.029 A 
HETATM   19  C   UNK N   1      34.152  10.465  13.978  0.00  0.00     0.002 A 
HETATM   20  C   UNK N   1      34.648   9.434  13.176  0.00  0.00     0.000 A 
HETATM   21  C   UNK N   1      35.430   9.733  12.059  0.00  0.00     0.002 A 
HETATM   22  C   UNK N   1      35.727  11.063  11.751  0.00  0.00     0.029 A 
ENDBRANCH   6  17
BRANCH   3  23
HETATM   23  O   UNK N   1      37.120  15.291  10.480  0.00  0.00    -0.374 OA
HETATM   24  H   UNK N   1      37.841  14.736  10.142  0.00  0.00     0.211 HD
ENDBRANCH   3  23
TORSDOF 2
ENDMDL
MODEL 2
REMARK VINA RESULT:      -7.1     11.494     14.147
REMARK  2 active torsions:
REMARK  status: ('A' for Active; 'I' for Inactive)
REMARK    1  A    between atoms: C_3  and  O_4 
REMARK    2  A    between atoms: C_8  and  N_7 
ROOT
HETATM    1  O   UNK N   1      19.662  13.894   9.686  0.00  0.00    -0.288 OA
HETATM    2  C   UNK N   1      20.710  13.983   9.063  0.00  0.00     0.204 C 
HETATM    3  C   UNK N   1      20.703  14.604   7.694  0.00  0.00     0.182 C 
HETATM    4  C   UNK N   1      20.126  16.013   7.514  0.00  0.00     0.075 C 
HETATM    5  C   UNK N   1      20.788  16.539   6.205  0.00  0.00     0.134 C 
HETATM    6  N   UNK N   1      22.042  15.833   6.164  0.00  0.00    -0.334 N 
HETATM    7  C   UNK N   1      22.058  14.826   7.139  0.00  0.00     0.128 C 
HETATM    8  N   UNK N   1      23.142  14.335   7.633  0.00  0.00    -0.342 N 
ATOM      9  HN  UNK N   1      24.031  14.551   7.183  1.00  0.00     0.167 HD
HETATM   10  C   UNK N   1      23.140  13.503   8.785  0.00  0.00     0.048 A 
HETATM   11  C   UNK N   1      21.962  13.330   9.550  0.00  0.00     0.046 A 
HETATM   12  C   UNK N   1      24.333  12.897   9.183  0.00  0.00     0.030 A 
HETATM   13  C   UNK N   1      24.371  12.101  10.325  0.00  0.00     0.003 A 
HETATM   14  C   UNK N   1      23.218  11.916  11.087  0.00  0.00     0.008 A 
HETATM   15  C   UNK N   1      22.014  12.523  10.717  0.00  0.00    -0.046 A 
HETATM   16  C   UNK N   1      20.816  12.271  11.569  0.00  0.00     0.049 C 
ENDROOT
BRANCH   6  17
HETATM   17  C   UNK N   1      23.121  16.179   5.291  0.00  0.00     0.035 A 
HETATM   18  C   UNK N   1      23.623  17.490   5.278  0.00  0.00     0.029 A 
HETATM   19  C   UNK N   1      24.649  17.847   4.397  0.00  0.00     0.002 A 
HETATM   20  C   UNK N   1      25.190  16.895   3.529  0.00  0.00     0.000 A 
HETATM   21  C   UNK N   1      24.704  15.586   3.539  0.00  0.00     0.002 A 
HETATM   22  C   UNK N   1      23.669  15.233   4.408  0.00  0.00     0.029 A 
ENDBRANCH   6  17
BRANCH   3  23
HETATM   23  O   UNK N   1      20.004  13.756   6.832  0.00  0.00    -0.374 OA
HETATM   24  H   UNK N   1      19.194  13.379   6.452  0.00  0.00     0.211 HD
ENDBRANCH   3  23
TORSDOF 2
ENDMDL
MODEL 3
REMARK VINA RESULT:      -6.9      3.345      5.455
REMARK  2 active torsions:
REMARK  status: ('A' for Active; 'I' for Inactive)
REMARK    1  A    between atoms: C_3  and  O_4 
REMARK    2  A    between atoms: C_8  and  N_7 
ROOT
HETATM    1  O   UNK N   1      30.586  16.380   4.978  0.00  0.00    -0.288 OA
HETATM    2  C   UNK N   1      30.895  16.410   6.160  0.00  0.00     0.204 C 
HETATM    3  C   UNK N   1      31.992  15.510   6.656  0.00  0.00     0.182 C 
HETATM    4  C   UNK N   1      33.369  15.565   5.983  0.00  0.00     0.075 C 
HETATM    5  C   UNK N   1      34.348  15.002   7.057  0.00  0.00     0.134 C 
HETATM    6  N   UNK N   1      33.699  15.332   8.299  0.00  0.00    -0.334 N 
HETATM    7  C   UNK N   1      32.397  15.787   8.054  0.00  0.00     0.128 C 
HETATM    8  N   UNK N   1      31.744  16.541   8.870  0.00  0.00    -0.342 N 
ATOM      9  HN  UNK N   1      32.107  16.677   9.813  1.00  0.00     0.167 HD
HETATM   10  C   UNK N   1      30.535  17.190   8.499  0.00  0.00     0.048 A 
HETATM   11  C   UNK N   1      30.095  17.184   7.155  0.00  0.00     0.046 A 
HETATM   12  C   UNK N   1      29.812  17.879   9.474  0.00  0.00     0.030 A 
HETATM   13  C   UNK N   1      28.640  18.551   9.137  0.00  0.00     0.003 A 
HETATM   14  C   UNK N   1      28.189  18.550   7.818  0.00  0.00     0.008 A 
HETATM   15  C   UNK N   1      28.903  17.879   6.821  0.00  0.00    -0.046 A 
HETATM   16  C   UNK N   1      28.355  17.908   5.433  0.00  0.00     0.049 C 
ENDROOT
BRANCH   6  17
HETATM   17  C   UNK N   1      34.342  15.261   9.575  0.00  0.00     0.035 A 
HETATM   18  C   UNK N   1      35.070  16.360  10.059  0.00  0.00     0.029 A 
HETATM   19  C   UNK N   1      35.737  16.284  11.286  0.00  0.00     0.002 A 
HETATM   20  C   UNK N   1      35.673  15.113  12.045  0.00  0.00     0.000 A 
HETATM   21  C   UNK N   1      34.946  14.017  11.578  0.00  0.00     0.002 A 
HETATM   22  C   UNK N   1      34.292  14.087  10.346  0.00  0.00     0.029 A 
ENDBRANCH   6  17
BRANCH   3  23
HETATM   23  O   UNK N   1      31.544  14.189   6.578  0.00  0.00    -0.374 OA
HETATM   24  H   UNK N   1      30.857  13.510   6.489  0.00  0.00     0.211 HD
ENDBRANCH   3  23
TORSDOF 2
ENDMDL
MODEL 4
REMARK VINA RESULT:      -6.7      6.964     10.694
REMARK  2 active torsions:
REMARK  status: ('A' for Active; 'I' for Inactive)
REMARK    1  A    between atoms: C_3  and  O_4 
REMARK    2  A    between atoms: C_8  and  N_7 
ROOT
HETATM    1  O   UNK N   1      30.774  17.004   4.893  0.00  0.00    -0.288 OA
HETATM    2  C   UNK N   1      29.706  17.174   5.463  0.00  0.00     0.204 C 
HETATM    3  C   UNK N   1      28.445  17.274   4.650  0.00  0.00     0.182 C 
HETATM    4  C   UNK N   1      28.091  16.143   3.677  0.00  0.00     0.075 C 
HETATM    5  C   UNK N   1      26.550  16.269   3.482  0.00  0.00     0.134 C 
HETATM    6  N   UNK N   1      26.108  16.855   4.721  0.00  0.00    -0.334 N 
HETATM    7  C   UNK N   1      27.212  17.281   5.471  0.00  0.00     0.128 C 
HETATM    8  N   UNK N   1      27.184  17.432   6.750  0.00  0.00    -0.342 N 
ATOM      9  HN  UNK N   1      26.285  17.416   7.229  1.00  0.00     0.167 HD
HETATM   10  C   UNK N   1      28.366  17.621   7.517  0.00  0.00     0.048 A 
HETATM   11  C   UNK N   1      29.643  17.463   6.927  0.00  0.00     0.046 A 
HETATM   12  C   UNK N   1      28.250  17.914   8.876  0.00  0.00     0.030 A 
HETATM   13  C   UNK N   1      29.389  18.074   9.661  0.00  0.00     0.003 A 
HETATM   14  C   UNK N   1      30.655  17.929   9.094  0.00  0.00     0.008 A 
HETATM   15  C   UNK N   1      30.797  17.621   7.738  0.00  0.00    -0.046 A 
HETATM   16  C   UNK N   1      32.181  17.494   7.195  0.00  0.00     0.049 C 
ENDROOT
BRANCH   6  17
HETATM   17  C   UNK N   1      24.737  16.916   5.127  0.00  0.00     0.035 A 
HETATM   18  C   UNK N   1      23.972  18.060   4.852  0.00  0.00     0.029 A 
HETATM   19  C   UNK N   1      22.644  18.145   5.283  0.00  0.00     0.002 A 
HETATM   20  C   UNK N   1      22.066  17.083   5.982  0.00  0.00     0.000 A 
HETATM   21  C   UNK N   1      22.815  15.936   6.254  0.00  0.00     0.002 A 
HETATM   22  C   UNK N   1      24.146  15.857   5.837  0.00  0.00     0.029 A 
ENDBRANCH   6  17
BRANCH   3  23
HETATM   23  O   UNK N   1      28.493  18.458   3.911  0.00  0.00    -0.374 OA
HETATM   24  H   UNK N   1      28.923  19.094   3.317  0.00  0.00     0.211 HD
ENDBRANCH   3  23
TORSDOF 2
ENDMDL
MODEL 5
REMARK VINA RESULT:      -6.7     17.359     21.099
REMARK  2 active torsions:
REMARK  status: ('A' for Active; 'I' for Inactive)
REMARK    1  A    between atoms: C_3  and  O_4 
REMARK    2  A    between atoms: C_8  and  N_7 
ROOT
HETATM    1  O   UNK N   1      28.898  21.411  -7.070  0.00  0.00    -0.288 OA
HETATM    2  C   UNK N   1      28.877  22.401  -6.355  0.00  0.00     0.204 C 
HETATM    3  C   UNK N   1      28.210  23.654  -6.852  0.00  0.00     0.182 C 
HETATM    4  C   UNK N   1      26.751  23.589  -7.321  0.00  0.00     0.075 C 
HETATM    5  C   UNK N   1      26.238  25.055  -7.192  0.00  0.00     0.134 C 
HETATM    6  N   UNK N   1      27.046  25.594  -6.129  0.00  0.00    -0.334 N 
HETATM    7  C   UNK N   1      28.084  24.707  -5.817  0.00  0.00     0.128 C 
HETATM    8  N   UNK N   1      28.682  24.688  -4.676  0.00  0.00    -0.342 N 
ATOM      9  HN  UNK N   1      28.527  25.457  -4.026  1.00  0.00     0.167 HD
HETATM   10  C   UNK N   1      29.551  23.630  -4.294  0.00  0.00     0.048 A 
HETATM   11  C   UNK N   1      29.650  22.457  -5.078  0.00  0.00     0.046 A 
HETATM   12  C   UNK N   1      30.269  23.743  -3.103  0.00  0.00     0.030 A 
HETATM   13  C   UNK N   1      31.106  22.711  -2.684  0.00  0.00     0.003 A 
HETATM   14  C   UNK N   1      31.219  21.550  -3.449  0.00  0.00     0.008 A 
HETATM   15  C   UNK N   1      30.499  21.408  -4.639  0.00  0.00    -0.046 A 
HETATM   16  C   UNK N   1      30.679  20.145  -5.413  0.00  0.00     0.049 C 
ENDROOT
BRANCH   6  17
HETATM   17  C   UNK N   1      26.762  26.829  -5.463  0.00  0.00     0.035 A 
HETATM   18  C   UNK N   1      27.398  28.011  -5.873  0.00  0.00     0.029 A 
HETATM   19  C   UNK N   1      27.159  29.214  -5.201  0.00  0.00     0.002 A 
HETATM   20  C   UNK N   1      26.273  29.247  -4.120  0.00  0.00     0.000 A 
HETATM   21  C   UNK N   1      25.630  28.079  -3.708  0.00  0.00     0.002 A 
HETATM   22  C   UNK N   1      25.880  26.875  -4.370  0.00  0.00     0.029 A 
ENDBRANCH   6  17
BRANCH   3  23
HETATM   23  O   UNK N   1      28.965  24.161  -7.912  0.00  0.00    -0.374 OA
HETATM   24  H   UNK N   1      29.163  24.290  -8.853  0.00  0.00     0.211 HD
ENDBRANCH   3  23
TORSDOF 2
ENDMDL
MODEL 6
REMARK VINA RESULT:      -6.7      3.020      4.419
REMARK  2 active torsions:
REMARK  status: ('A' for Active; 'I' for Inactive)
REMARK    1  A    between atoms: C_3  and  O_4 
REMARK    2  A    between atoms: C_8  and  N_7 
ROOT
HETATM    1  O   UNK N   1      35.914  13.841   9.989  0.00  0.00    -0.288 OA
HETATM    2  C   UNK N   1      35.648  13.130  10.947  0.00  0.00     0.204 C 
HETATM    3  C   UNK N   1      36.332  13.381  12.262  0.00  0.00     0.182 C 
HETATM    4  C   UNK N   1      36.256  14.778  12.891  0.00  0.00     0.075 C 
HETATM    5  C   UNK N   1      36.521  14.533  14.407  0.00  0.00     0.134 C 
HETATM    6  N   UNK N   1      36.047  13.189  14.612  0.00  0.00    -0.334 N 
HETATM    7  C   UNK N   1      35.777  12.583  13.379  0.00  0.00     0.128 C 
HETATM    8  N   UNK N   1      34.962  11.594  13.238  0.00  0.00    -0.342 N 
ATOM      9  HN  UNK N   1      34.628  11.108  14.070  1.00  0.00     0.167 HD
HETATM   10  C   UNK N   1      34.513  11.157  11.963  0.00  0.00     0.048 A 
HETATM   11  C   UNK N   1      34.798  11.912  10.799  0.00  0.00     0.046 A 
HETATM   12  C   UNK N   1      33.742   9.998  11.878  0.00  0.00     0.030 A 
HETATM   13  C   UNK N   1      33.261   9.560  10.647  0.00  0.00     0.003 A 
HETATM   14  C   UNK N   1      33.537  10.288   9.490  0.00  0.00     0.008 A 
HETATM   15  C   UNK N   1      34.296  11.461   9.551  0.00  0.00    -0.046 A 
HETATM   16  C   UNK N   1      34.564  12.182   8.273  0.00  0.00     0.049 C 
ENDROOT
BRANCH   6  17
HETATM   17  C   UNK N   1      35.830  12.611  15.903  0.00  0.00     0.035 A 
HETATM   18  C   UNK N   1      35.270  13.382  16.934  0.00  0.00     0.029 A 
HETATM   19  C   UNK N   1      35.094  12.838  18.210  0.00  0.00     0.002 A 
HETATM   20  C   UNK N   1      35.465  11.515  18.464  0.00  0.00     0.000 A 
HETATM   21  C   UNK N   1      36.014  10.736  17.444  0.00  0.00     0.002 A 
HETATM   22  C   UNK N   1      36.205  11.284  16.174  0.00  0.00     0.029 A 
ENDBRANCH   6  17
BRANCH   3  23
HETATM   23  O   UNK N   1      37.685  13.063  12.119  0.00  0.00    -0.374 OA
HETATM   24  H   UNK N   1      38.476  12.532  12.303  0.00  0.00     0.211 HD
ENDBRANCH   3  23
TORSDOF 2
ENDMDL
MODEL 7
REMARK VINA RESULT:      -6.6     18.707     20.548
REMARK  2 active torsions:
REMARK  status: ('A' for Active; 'I' for Inactive)
REMARK    1  A    between atoms: C_3  and  O_4 
REMARK    2  A    between atoms: C_8  and  N_7 
ROOT
HETATM    1  O   UNK N   1      31.287  21.614  -5.146  0.00  0.00    -0.288 OA
HETATM    2  C   UNK N   1      30.271  22.265  -5.335  0.00  0.00     0.204 C 
HETATM    3  C   UNK N   1      29.936  23.396  -4.403  0.00  0.00     0.182 C 
HETATM    4  C   UNK N   1      30.968  24.507  -4.174  0.00  0.00     0.075 C 
HETATM    5  C   UNK N   1      30.125  25.723  -3.683  0.00  0.00     0.134 C 
HETATM    6  N   UNK N   1      28.840  25.501  -4.294  0.00  0.00    -0.334 N 
HETATM    7  C   UNK N   1      28.793  24.219  -4.858  0.00  0.00     0.128 C 
HETATM    8  N   UNK N   1      27.991  23.895  -5.814  0.00  0.00    -0.342 N 
ATOM      9  HN  UNK N   1      27.234  24.532  -6.060  1.00  0.00     0.167 HD
HETATM   10  C   UNK N   1      28.125  22.679  -6.536  0.00  0.00     0.048 A 
HETATM   11  C   UNK N   1      29.263  21.855  -6.359  0.00  0.00     0.046 A 
HETATM   12  C   UNK N   1      27.142  22.330  -7.462  0.00  0.00     0.030 A 
HETATM   13  C   UNK N   1      27.260  21.160  -8.208  0.00  0.00     0.003 A 
HETATM   14  C   UNK N   1      28.372  20.334  -8.042  0.00  0.00     0.008 A 
HETATM   15  C   UNK N   1      29.377  20.669  -7.129  0.00  0.00    -0.046 A 
HETATM   16  C   UNK N   1      30.531  19.733  -6.992  0.00  0.00     0.049 C 
ENDROOT
BRANCH   6  17
HETATM   17  C   UNK N   1      27.810  26.491  -4.359  0.00  0.00     0.035 A 
HETATM   18  C   UNK N   1      27.885  27.523  -5.307  0.00  0.00     0.029 A 
HETATM   19  C   UNK N   1      26.904  28.519  -5.350  0.00  0.00     0.002 A 
HETATM   20  C   UNK N   1      25.833  28.485  -4.453  0.00  0.00     0.000 A 
HETATM   21  C   UNK N   1      25.743  27.459  -3.511  0.00  0.00     0.002 A 
HETATM   22  C   UNK N   1      26.731  26.473  -3.458  0.00  0.00     0.029 A 
ENDBRANCH   6  17
BRANCH   3  23
HETATM   23  O   UNK N   1      29.624  22.855  -3.153  0.00  0.00    -0.374 OA
HETATM   24  H   UNK N   1      29.012  22.623  -2.436  0.00  0.00     0.211 HD
ENDBRANCH   3  23
TORSDOF 2
ENDMDL
MODEL 8
REMARK VINA RESULT:      -6.6      7.682     10.652
REMARK  2 active torsions:
REMARK  status: ('A' for Active; 'I' for Inactive)
REMARK    1  A    between atoms: C_3  and  O_4 
REMARK    2  A    between atoms: C_8  and  N_7 
ROOT
HETATM    1  O   UNK N   1      24.481  16.357   5.137  0.00  0.00    -0.288 OA
HETATM    2  C   UNK N   1      25.528  16.949   4.922  0.00  0.00     0.204 C 
HETATM    3  C   UNK N   1      26.808  16.414   5.503  0.00  0.00     0.182 C 
HETATM    4  C   UNK N   1      27.215  14.965   5.211  0.00  0.00     0.075 C 
HETATM    5  C   UNK N   1      28.757  14.944   5.433  0.00  0.00     0.134 C 
HETATM    6  N   UNK N   1      29.152  16.296   5.133  0.00  0.00    -0.334 N 
HETATM    7  C   UNK N   1      28.018  17.109   5.005  0.00  0.00     0.128 C 
HETATM    8  N   UNK N   1      28.008  18.211   4.337  0.00  0.00    -0.342 N 
ATOM      9  HN  UNK N   1      28.894  18.610   4.031  1.00  0.00     0.167 HD
HETATM   10  C   UNK N   1      26.802  18.888   4.012  0.00  0.00     0.048 A 
HETATM   11  C   UNK N   1      25.545  18.282   4.249  0.00  0.00     0.046 A 
HETATM   12  C   UNK N   1      26.874  20.144   3.407  0.00  0.00     0.030 A 
HETATM   13  C   UNK N   1      25.710  20.821   3.049  0.00  0.00     0.003 A 
HETATM   14  C   UNK N   1      24.464  20.240   3.281  0.00  0.00     0.008 A 
HETATM   15  C   UNK N   1      24.366  18.977   3.873  0.00  0.00    -0.046 A 
HETATM   16  C   UNK N   1      23.001  18.421   4.105  0.00  0.00     0.049 C 
ENDROOT
BRANCH   6  17
HETATM   17  C   UNK N   1      30.509  16.702   4.932  0.00  0.00     0.035 A 
HETATM   18  C   UNK N   1      31.057  16.712   3.640  0.00  0.00     0.029 A 
HETATM   19  C   UNK N   1      32.394  17.067   3.440  0.00  0.00     0.002 A 
HETATM   20  C   UNK N   1      33.193  17.426   4.529  0.00  0.00     0.000 A 
HETATM   21  C   UNK N   1      32.657  17.428   5.817  0.00  0.00     0.002 A 
HETATM   22  C   UNK N   1      31.325  17.059   6.019  0.00  0.00     0.029 A 
ENDBRANCH   6  17
BRANCH   3  23
HETATM   23  O   UNK N   1      26.753  16.559   6.891  0.00  0.00    -0.374 OA
HETATM   24  H   UNK N   1      26.422  16.963   7.709  0.00  0.00     0.211 HD
ENDBRANCH   3  23
TORSDOF 2
ENDMDL
MODEL 9
REMARK VINA RESULT:      -6.5      3.564      7.690
REMARK  2 active torsions:
REMARK  status: ('A' for Active; 'I' for Inactive)
REMARK    1  A    between atoms: C_3  and  O_4 
REMARK    2  A    between atoms: C_8  and  N_7 
ROOT
HETATM    1  O   UNK N   1      35.323   9.042  16.162  0.00  0.00    -0.288 OA
HETATM    2  C   UNK N   1      35.454  10.195  15.779  0.00  0.00     0.204 C 
HETATM    3  C   UNK N   1      35.877  10.456  14.360  0.00  0.00     0.182 C 
HETATM    4  C   UNK N   1      35.062   9.847  13.212  0.00  0.00     0.075 C 
HETATM    5  C   UNK N   1      35.387  10.752  11.985  0.00  0.00     0.134 C 
HETATM    6  N   UNK N   1      35.692  12.024  12.586  0.00  0.00    -0.334 N 
HETATM    7  C   UNK N   1      35.807  11.884  13.975  0.00  0.00     0.128 C 
HETATM    8  N   UNK N   1      35.640  12.858  14.802  0.00  0.00    -0.342 N 
ATOM      9  HN  UNK N   1      35.598  13.810  14.440  1.00  0.00     0.167 HD
HETATM   10  C   UNK N   1      35.515  12.651  16.202  0.00  0.00     0.048 A 
HETATM   11  C   UNK N   1      35.380  11.344  16.730  0.00  0.00     0.046 A 
HETATM   12  C   UNK N   1      35.475  13.759  17.049  0.00  0.00     0.030 A 
HETATM   13  C   UNK N   1      35.322  13.591  18.423  0.00  0.00     0.003 A 
HETATM   14  C   UNK N   1      35.193  12.310  18.960  0.00  0.00     0.008 A 
HETATM   15  C   UNK N   1      35.216  11.185  18.130  0.00  0.00    -0.046 A 
HETATM   16  C   UNK N   1      35.087   9.844  18.773  0.00  0.00     0.049 C 
ENDROOT
BRANCH   6  17
HETATM   17  C   UNK N   1      35.789  13.247  11.850  0.00  0.00     0.035 A 
HETATM   18  C   UNK N   1      34.690  14.118  11.786  0.00  0.00     0.029 A 
HETATM   19  C   UNK N   1      34.761  15.296  11.034  0.00  0.00     0.002 A 
HETATM   20  C   UNK N   1      35.936  15.618  10.349  0.00  0.00     0.000 A 
HETATM   21  C   UNK N   1      37.038  14.764  10.413  0.00  0.00     0.002 A 
HETATM   22  C   UNK N   1      36.962  13.581  11.151  0.00  0.00     0.029 A 
ENDBRANCH   6  17
BRANCH   3  23
HETATM   23  O   UNK N   1      37.196  10.020  14.210  0.00  0.00    -0.374 OA
HETATM   24  H   UNK N   1      37.926   9.619  13.712  0.00  0.00     0.211 HD
ENDBRANCH   3  23
TORSDOF 2
ENDMDL
