REMARK  2 active torsions:
REMARK  status: ('A' for Active; 'I' for Inactive)
REMARK    1  A    between atoms: C_3  and  O_4 
REMARK    2  A    between atoms: C_8  and  N_7 
ROOT
HETATM    1  O   UNK N   1      -1.088  -3.414  -0.394  0.00  0.00    -0.288 OA
HETATM    2  C   UNK N   1      -0.986  -2.211  -0.206  0.00  0.00     0.204 C 
HETATM    3  C   UNK N   1       0.372  -1.618   0.050  0.00  0.00     0.182 C 
HETATM    4  C   UNK N   1       1.498  -1.862  -0.962  0.00  0.00     0.075 C 
HETATM    5  C   UNK N   1       2.498  -0.692  -0.717  0.00  0.00     0.134 C 
HETATM    6  N   UNK N   1       1.655   0.363  -0.218  0.00  0.00    -0.334 N 
HETATM    7  C   UNK N   1       0.377  -0.137   0.064  0.00  0.00     0.128 C 
HETATM    8  N   UNK N   1      -0.680   0.599   0.100  0.00  0.00    -0.342 N 
ATOM      9  HN  UNK N   1      -0.575   1.613   0.100  1.00  0.00     0.167 HD
HETATM   10  C   UNK N   1      -1.988   0.045   0.140  0.00  0.00     0.048 A 
HETATM   11  C   UNK N   1      -2.191  -1.343  -0.047  0.00  0.00     0.046 A 
HETATM   12  C   UNK N   1      -3.078   0.898   0.316  0.00  0.00     0.030 A 
HETATM   13  C   UNK N   1      -4.375   0.390   0.329  0.00  0.00     0.003 A 
HETATM   14  C   UNK N   1      -4.592  -0.976   0.152  0.00  0.00     0.008 A 
HETATM   15  C   UNK N   1      -3.517  -1.849  -0.040  0.00  0.00    -0.046 A 
HETATM   16  C   UNK N   1      -3.821  -3.300  -0.209  0.00  0.00     0.049 C 
ENDROOT
BRANCH   6  17
HETATM   17  C   UNK N   1       2.072   1.727  -0.104  0.00  0.00     0.035 A 
HETATM   18  C   UNK N   1       3.421   2.068  -0.291  0.00  0.00     0.029 A 
HETATM   19  C   UNK N   1       3.845   3.392  -0.140  0.00  0.00     0.002 A 
HETATM   20  C   UNK N   1       2.922   4.389   0.188  0.00  0.00     0.000 A 
HETATM   21  C   UNK N   1       1.577   4.063   0.368  0.00  0.00     0.002 A 
HETATM   22  C   UNK N   1       1.156   2.738   0.232  0.00  0.00     0.029 A 
ENDBRANCH   6  17
BRANCH   3  23
HETATM   23  O   UNK N   1       0.822  -2.075   1.291  0.00  0.00    -0.374 OA
HETATM   24  H   UNK N   1       0.703  -2.504   2.153  0.00  0.00     0.211 HD
ENDBRANCH   3  23
TORSDOF 2
