MODEL 1
REMARK VINA RESULT:      -7.6      0.000      0.000
REMARK  2 active torsions:
REMARK  status: ('A' for Active; 'I' for Inactive)
REMARK    1  A    between atoms: C_3  and  O_15 
REMARK    2  A    between atoms: C_10  and  N_16 
ROOT
HETATM    1  C   UNK N   1      35.129  15.087   8.445  0.00  0.00     0.040 A 
HETATM    2  C   UNK N   1      35.044  15.569   7.050  0.00  0.00     0.203 C 
HETATM    3  C   UNK N   1      33.975  16.572   6.705  0.00  0.00     0.182 C 
HETATM    4  C   UNK N   1      33.136  16.363   5.439  0.00  0.00     0.075 C 
HETATM    5  C   UNK N   1      31.824  17.157   5.706  0.00  0.00     0.134 C 
HETATM    6  C   UNK N   1      36.239  14.359   8.895  0.00  0.00     0.018 A 
HETATM    7  C   UNK N   1      35.299  14.304  11.129  0.00  0.00    -0.060 A 
HETATM    8  C   UNK N   1      34.097  15.418   9.345  0.00  0.00     0.048 A 
HETATM    9  C   UNK N   1      32.887  16.642   7.714  0.00  0.00     0.128 C 
HETATM   10  O   UNK N   1      35.918  15.297   6.240  0.00  0.00    -0.288 OA
HETATM   11  N   UNK N   1      31.703  17.128   7.141  0.00  0.00    -0.334 N 
HETATM   12  N   UNK N   1      32.949  16.123   8.894  0.00  0.00    -0.342 N 
ATOM     13  HN  UNK N   1      32.150  16.222   9.521  1.00  0.00     0.167 HD
HETATM   14  C   UNK N   1      34.183  15.017  10.681  0.00  0.00     0.037 A 
HETATM   15  C   UNK N   1      35.398  13.906  12.557  0.00  0.00     0.048 C 
HETATM   16  C   UNK N   1      36.323  13.972  10.236  0.00  0.00     0.008 A 
ENDROOT
BRANCH  11  17
HETATM   17  C   UNK N   1      30.507  17.477   7.842  0.00  0.00     0.035 A 
HETATM   18  C   UNK N   1      30.546  18.290   8.988  0.00  0.00     0.029 A 
HETATM   19  C   UNK N   1      29.368  18.641   9.652  0.00  0.00     0.002 A 
HETATM   20  C   UNK N   1      28.136  18.196   9.169  0.00  0.00     0.000 A 
HETATM   21  C   UNK N   1      28.081  17.393   8.028  0.00  0.00     0.002 A 
HETATM   22  C   UNK N   1      29.261  17.030   7.370  0.00  0.00     0.029 A 
ENDBRANCH  11  17
BRANCH   3  23
HETATM   23  O   UNK N   1      34.572  17.832   6.608  0.00  0.00    -0.374 OA
HETATM   24  H   UNK N   1      34.516  18.798   6.546  0.00  0.00     0.211 HD
ENDBRANCH   3  23
TORSDOF 2
ENDMDL
MODEL 2
REMARK VINA RESULT:      -7.6      9.047     11.961
REMARK  2 active torsions:
REMARK  status: ('A' for Active; 'I' for Inactive)
REMARK    1  A    between atoms: C_3  and  O_15 
REMARK    2  A    between atoms: C_10  and  N_16 
ROOT
HETATM    1  C   UNK N   1      23.804  19.880   3.209  0.00  0.00     0.040 A 
HETATM    2  C   UNK N   1      22.413  19.916   2.711  0.00  0.00     0.203 C 
HETATM    3  C   UNK N   1      21.336  19.286   3.551  0.00  0.00     0.182 C 
HETATM    4  C   UNK N   1      20.304  18.371   2.880  0.00  0.00     0.075 C 
HETATM    5  C   UNK N   1      19.780  17.465   4.033  0.00  0.00     0.134 C 
HETATM    6  C   UNK N   1      24.809  20.656   2.616  0.00  0.00     0.018 A 
HETATM    7  C   UNK N   1      26.396  19.869   4.271  0.00  0.00    -0.060 A 
HETATM    8  C   UNK N   1      24.104  19.090   4.337  0.00  0.00     0.048 A 
HETATM    9  C   UNK N   1      21.864  18.351   4.578  0.00  0.00     0.128 C 
HETATM   10  O   UNK N   1      22.117  20.587   1.732  0.00  0.00    -0.288 OA
HETATM   11  N   UNK N   1      20.892  17.409   4.946  0.00  0.00    -0.334 N 
HETATM   12  N   UNK N   1      23.104  18.269   4.925  0.00  0.00    -0.342 N 
ATOM     13  HN  UNK N   1      23.375  17.595   5.641  1.00  0.00     0.167 HD
HETATM   14  C   UNK N   1      25.401  19.082   4.856  0.00  0.00     0.037 A 
HETATM   15  C   UNK N   1      27.766  19.879   4.845  0.00  0.00     0.048 C 
HETATM   16  C   UNK N   1      26.102  20.652   3.150  0.00  0.00     0.008 A 
ENDROOT
BRANCH  11  17
HETATM   17  C   UNK N   1      20.993  16.464   6.014  0.00  0.00     0.035 A 
HETATM   18  C   UNK N   1      20.705  16.831   7.340  0.00  0.00     0.029 A 
HETATM   19  C   UNK N   1      20.787  15.893   8.372  0.00  0.00     0.002 A 
HETATM   20  C   UNK N   1      21.142  14.573   8.088  0.00  0.00     0.000 A 
HETATM   21  C   UNK N   1      21.425  14.193   6.775  0.00  0.00     0.002 A 
HETATM   22  C   UNK N   1      21.357  15.134   5.743  0.00  0.00     0.029 A 
ENDBRANCH  11  17
BRANCH   3  23
HETATM   23  O   UNK N   1      20.633  20.305   4.199  0.00  0.00    -0.374 OA
HETATM   24  H   UNK N   1      20.168  21.156   4.193  0.00  0.00     0.211 HD
ENDBRANCH   3  23
TORSDOF 2
ENDMDL
MODEL 3
REMARK VINA RESULT:      -7.1      9.042     12.486
REMARK  2 active torsions:
REMARK  status: ('A' for Active; 'I' for Inactive)
REMARK    1  A    between atoms: C_3  and  O_15 
REMARK    2  A    between atoms: C_10  and  N_16 
ROOT
HETATM    1  C   UNK N   1      23.937  19.445   3.641  0.00  0.00     0.040 A 
HETATM    2  C   UNK N   1      22.786  20.193   3.093  0.00  0.00     0.203 C 
HETATM    3  C   UNK N   1      21.416  19.580   3.208  0.00  0.00     0.182 C 
HETATM    4  C   UNK N   1      20.492  19.584   1.984  0.00  0.00     0.075 C 
HETATM    5  C   UNK N   1      19.501  18.410   2.242  0.00  0.00     0.134 C 
HETATM    6  C   UNK N   1      25.190  20.052   3.798  0.00  0.00     0.018 A 
HETATM    7  C   UNK N   1      26.053  18.020   4.799  0.00  0.00    -0.060 A 
HETATM    8  C   UNK N   1      23.748  18.113   4.061  0.00  0.00     0.048 A 
HETATM    9  C   UNK N   1      21.446  18.122   3.491  0.00  0.00     0.128 C 
HETATM   10  O   UNK N   1      22.914  21.348   2.714  0.00  0.00    -0.288 OA
HETATM   11  N   UNK N   1      20.263  17.504   3.061  0.00  0.00    -0.334 N 
HETATM   12  N   UNK N   1      22.493  17.472   3.872  0.00  0.00    -0.342 N 
ATOM     13  HN  UNK N   1      22.419  16.469   4.043  1.00  0.00     0.167 HD
HETATM   14  C   UNK N   1      24.810  17.405   4.630  0.00  0.00     0.037 A 
HETATM   15  C   UNK N   1      27.169  17.271   5.431  0.00  0.00     0.048 C 
HETATM   16  C   UNK N   1      26.244  19.341   4.380  0.00  0.00     0.008 A 
ENDROOT
BRANCH  11  17
HETATM   17  C   UNK N   1      19.878  16.150   3.312  0.00  0.00     0.035 A 
HETATM   18  C   UNK N   1      20.089  15.144   2.354  0.00  0.00     0.029 A 
HETATM   19  C   UNK N   1      19.727  13.821   2.620  0.00  0.00     0.002 A 
HETATM   20  C   UNK N   1      19.165  13.485   3.853  0.00  0.00     0.000 A 
HETATM   21  C   UNK N   1      18.956  14.474   4.817  0.00  0.00     0.002 A 
HETATM   22  C   UNK N   1      19.305  15.801   4.547  0.00  0.00     0.029 A 
ENDBRANCH  11  17
BRANCH   3  23
HETATM   23  O   UNK N   1      20.736  20.219   4.248  0.00  0.00    -0.374 OA
HETATM   24  H   UNK N   1      20.549  21.003   4.788  0.00  0.00     0.211 HD
ENDBRANCH   3  23
TORSDOF 2
ENDMDL
MODEL 4
REMARK VINA RESULT:      -7.1      4.213      8.131
REMARK  2 active torsions:
REMARK  status: ('A' for Active; 'I' for Inactive)
REMARK    1  A    between atoms: C_3  and  O_15 
REMARK    2  A    between atoms: C_10  and  N_16 
ROOT
HETATM    1  C   UNK N   1      35.956  13.582  10.404  0.00  0.00     0.040 A 
HETATM    2  C   UNK N   1      36.458  12.269  10.862  0.00  0.00     0.203 C 
HETATM    3  C   UNK N   1      36.389  11.950  12.331  0.00  0.00     0.182 C 
HETATM    4  C   UNK N   1      37.613  11.335  13.019  0.00  0.00     0.075 C 
HETATM    5  C   UNK N   1      37.437  11.699  14.523  0.00  0.00     0.134 C 
HETATM    6  C   UNK N   1      35.753  13.849   9.043  0.00  0.00     0.018 A 
HETATM    7  C   UNK N   1      34.885  16.042   9.600  0.00  0.00    -0.060 A 
HETATM    8  C   UNK N   1      35.625  14.558  11.365  0.00  0.00     0.048 A 
HETATM    9  C   UNK N   1      36.202  13.151  13.184  0.00  0.00     0.128 C 
HETATM   10  O   UNK N   1      36.759  11.401  10.056  0.00  0.00    -0.288 OA
HETATM   11  N   UNK N   1      36.677  12.921  14.484  0.00  0.00    -0.334 N 
HETATM   12  N   UNK N   1      35.860  14.316  12.746  0.00  0.00    -0.342 N 
ATOM     13  HN  UNK N   1      35.756  15.084  13.408  1.00  0.00     0.167 HD
HETATM   14  C   UNK N   1      35.099  15.787  10.957  0.00  0.00     0.037 A 
HETATM   15  C   UNK N   1      34.299  17.340   9.174  0.00  0.00     0.048 C 
HETATM   16  C   UNK N   1      35.215  15.077   8.644  0.00  0.00     0.008 A 
ENDROOT
BRANCH  11  17
HETATM   17  C   UNK N   1      36.516  13.790  15.609  0.00  0.00     0.035 A 
HETATM   18  C   UNK N   1      35.640  13.467  16.658  0.00  0.00     0.029 A 
HETATM   19  C   UNK N   1      35.507  14.314  17.761  0.00  0.00     0.002 A 
HETATM   20  C   UNK N   1      36.261  15.486  17.835  0.00  0.00     0.000 A 
HETATM   21  C   UNK N   1      37.140  15.817  16.802  0.00  0.00     0.002 A 
HETATM   22  C   UNK N   1      37.264  14.977  15.691  0.00  0.00     0.029 A 
ENDBRANCH  11  17
BRANCH   3  23
HETATM   23  O   UNK N   1      35.312  11.085  12.541  0.00  0.00    -0.374 OA
HETATM   24  H   UNK N   1      34.630  10.697  13.112  0.00  0.00     0.211 HD
ENDBRANCH   3  23
TORSDOF 2
ENDMDL
MODEL 5
REMARK VINA RESULT:      -7.0      2.865      6.913
REMARK  2 active torsions:
REMARK  status: ('A' for Active; 'I' for Inactive)
REMARK    1  A    between atoms: C_3  and  O_15 
REMARK    2  A    between atoms: C_10  and  N_16 
ROOT
HETATM    1  C   UNK N   1      34.086  16.242   9.296  0.00  0.00     0.040 A 
HETATM    2  C   UNK N   1      35.149  16.593  10.261  0.00  0.00     0.203 C 
HETATM    3  C   UNK N   1      35.848  15.478  10.991  0.00  0.00     0.182 C 
HETATM    4  C   UNK N   1      36.068  15.598  12.504  0.00  0.00     0.075 C 
HETATM    5  C   UNK N   1      36.225  14.128  12.992  0.00  0.00     0.134 C 
HETATM    6  C   UNK N   1      33.572  17.192   8.403  0.00  0.00     0.018 A 
HETATM    7  C   UNK N   1      32.162  15.493   7.403  0.00  0.00    -0.060 A 
HETATM    8  C   UNK N   1      33.627  14.911   9.241  0.00  0.00     0.048 A 
HETATM    9  C   UNK N   1      35.105  14.193  10.951  0.00  0.00     0.128 C 
HETATM   10  O   UNK N   1      35.568  17.738  10.340  0.00  0.00    -0.288 OA
HETATM   11  N   UNK N   1      35.459  13.375  12.034  0.00  0.00    -0.334 N 
HETATM   12  N   UNK N   1      34.111  13.945  10.165  0.00  0.00    -0.342 N 
ATOM     13  HN  UNK N   1      33.661  13.031  10.208  1.00  0.00     0.167 HD
HETATM   14  C   UNK N   1      32.660  14.545   8.301  0.00  0.00     0.037 A 
HETATM   15  C   UNK N   1      31.156  15.092   6.386  0.00  0.00     0.048 C 
HETATM   16  C   UNK N   1      32.614  16.815   7.457  0.00  0.00     0.008 A 
ENDROOT
BRANCH  11  17
HETATM   17  C   UNK N   1      35.067  12.013  12.228  0.00  0.00     0.035 A 
HETATM   18  C   UNK N   1      35.243  11.054  11.215  0.00  0.00     0.029 A 
HETATM   19  C   UNK N   1      34.875   9.723  11.424  0.00  0.00     0.002 A 
HETATM   20  C   UNK N   1      34.343   9.331  12.654  0.00  0.00     0.000 A 
HETATM   21  C   UNK N   1      34.168  10.271  13.671  0.00  0.00     0.002 A 
HETATM   22  C   UNK N   1      34.523  11.607  13.458  0.00  0.00     0.029 A 
ENDBRANCH  11  17
BRANCH   3  23
HETATM   23  O   UNK N   1      37.099  15.285  10.400  0.00  0.00    -0.374 OA
HETATM   24  H   UNK N   1      37.656  15.055   9.640  0.00  0.00     0.211 HD
ENDBRANCH   3  23
TORSDOF 2
ENDMDL
MODEL 6
REMARK VINA RESULT:      -6.9      5.835      8.469
REMARK  2 active torsions:
REMARK  status: ('A' for Active; 'I' for Inactive)
REMARK    1  A    between atoms: C_3  and  O_15 
REMARK    2  A    between atoms: C_10  and  N_16 
ROOT
HETATM    1  C   UNK N   1      34.758  12.060  10.729  0.00  0.00     0.040 A 
HETATM    2  C   UNK N   1      35.579  13.278  10.895  0.00  0.00     0.203 C 
HETATM    3  C   UNK N   1      36.304  13.479  12.198  0.00  0.00     0.182 C 
HETATM    4  C   UNK N   1      36.247  14.851  12.881  0.00  0.00     0.075 C 
HETATM    5  C   UNK N   1      36.538  14.551  14.381  0.00  0.00     0.134 C 
HETATM    6  C   UNK N   1      34.265  11.681   9.473  0.00  0.00     0.018 A 
HETATM    7  C   UNK N   1      33.315   9.676  10.449  0.00  0.00    -0.060 A 
HETATM    8  C   UNK N   1      34.520  11.241  11.851  0.00  0.00     0.048 A 
HETATM    9  C   UNK N   1      35.780  12.632  13.299  0.00  0.00     0.128 C 
HETATM   10  O   UNK N   1      35.802  14.015   9.946  0.00  0.00    -0.288 OA
HETATM   11  N   UNK N   1      36.066  13.201  14.549  0.00  0.00    -0.334 N 
HETATM   12  N   UNK N   1      34.982  11.631  13.137  0.00  0.00    -0.342 N 
ATOM     13  HN  UNK N   1      34.673  11.106  13.955  1.00  0.00     0.167 HD
HETATM   14  C   UNK N   1      33.791  10.057  11.706  0.00  0.00     0.037 A 
HETATM   15  C   UNK N   1      32.566   8.402  10.296  0.00  0.00     0.048 C 
HETATM   16  C   UNK N   1      33.548  10.489   9.335  0.00  0.00     0.008 A 
ENDROOT
BRANCH  11  17
HETATM   17  C   UNK N   1      35.856  12.588  15.824  0.00  0.00     0.035 A 
HETATM   18  C   UNK N   1      36.257  11.264  16.070  0.00  0.00     0.029 A 
HETATM   19  C   UNK N   1      36.066  10.683  17.326  0.00  0.00     0.002 A 
HETATM   20  C   UNK N   1      35.485  11.425  18.356  0.00  0.00     0.000 A 
HETATM   21  C   UNK N   1      35.087  12.744  18.128  0.00  0.00     0.002 A 
HETATM   22  C   UNK N   1      35.266  13.322  16.867  0.00  0.00     0.029 A 
ENDBRANCH  11  17
BRANCH   3  23
HETATM   23  O   UNK N   1      37.652  13.167  12.002  0.00  0.00    -0.374 OA
HETATM   24  H   UNK N   1      38.417  12.582  12.121  0.00  0.00     0.211 HD
ENDBRANCH   3  23
TORSDOF 2
ENDMDL
MODEL 7
REMARK VINA RESULT:      -6.8     14.999     17.438
REMARK  2 active torsions:
REMARK  status: ('A' for Active; 'I' for Inactive)
REMARK    1  A    between atoms: C_3  and  O_15 
REMARK    2  A    between atoms: C_10  and  N_16 
ROOT
HETATM    1  C   UNK N   1      28.941  22.352  -6.252  0.00  0.00     0.040 A 
HETATM    2  C   UNK N   1      28.071  22.530  -7.433  0.00  0.00     0.203 C 
HETATM    3  C   UNK N   1      27.535  23.905  -7.725  0.00  0.00     0.182 C 
HETATM    4  C   UNK N   1      26.051  24.070  -8.077  0.00  0.00     0.075 C 
HETATM    5  C   UNK N   1      25.728  25.551  -7.719  0.00  0.00     0.134 C 
HETATM    6  C   UNK N   1      29.675  21.173  -6.061  0.00  0.00     0.018 A 
HETATM    7  C   UNK N   1      30.672  22.114  -4.063  0.00  0.00    -0.060 A 
HETATM    8  C   UNK N   1      29.073  23.414  -5.336  0.00  0.00     0.048 A 
HETATM    9  C   UNK N   1      27.616  24.826  -6.562  0.00  0.00     0.128 C 
HETATM   10  O   UNK N   1      27.928  21.628  -8.246  0.00  0.00    -0.288 OA
HETATM   11  N   UNK N   1      26.664  25.851  -6.666  0.00  0.00    -0.334 N 
HETATM   12  N   UNK N   1      28.307  24.600  -5.496  0.00  0.00    -0.342 N 
ATOM     13  HN  UNK N   1      28.303  25.292  -4.747  1.00  0.00     0.167 HD
HETATM   14  C   UNK N   1      29.932  23.286  -4.240  0.00  0.00     0.037 A 
HETATM   15  C   UNK N   1      31.605  21.996  -2.913  0.00  0.00     0.048 C 
HETATM   16  C   UNK N   1      30.541  21.058  -4.969  0.00  0.00     0.008 A 
ENDROOT
BRANCH  11  17
HETATM   17  C   UNK N   1      26.561  26.998  -5.818  0.00  0.00     0.035 A 
HETATM   18  C   UNK N   1      25.716  26.998  -4.695  0.00  0.00     0.029 A 
HETATM   19  C   UNK N   1      25.639  28.117  -3.863  0.00  0.00     0.002 A 
HETATM   20  C   UNK N   1      26.418  29.243  -4.134  0.00  0.00     0.000 A 
HETATM   21  C   UNK N   1      27.266  29.255  -5.243  0.00  0.00     0.002 A 
HETATM   22  C   UNK N   1      27.334  28.140  -6.086  0.00  0.00     0.029 A 
ENDBRANCH  11  17
BRANCH   3  23
HETATM   23  O   UNK N   1      28.277  24.451  -8.775  0.00  0.00    -0.374 OA
HETATM   24  H   UNK N   1      28.681  25.207  -9.230  0.00  0.00     0.211 HD
ENDBRANCH   3  23
TORSDOF 2
ENDMDL
MODEL 8
REMARK VINA RESULT:      -6.7     14.569     17.867
REMARK  2 active torsions:
REMARK  status: ('A' for Active; 'I' for Inactive)
REMARK    1  A    between atoms: C_3  and  O_15 
REMARK    2  A    between atoms: C_10  and  N_16 
ROOT
HETATM    1  C   UNK N   1      26.059  25.592  -6.287  0.00  0.00     0.040 A 
HETATM    2  C   UNK N   1      25.999  24.473  -7.251  0.00  0.00     0.203 C 
HETATM    3  C   UNK N   1      26.829  23.248  -6.978  0.00  0.00     0.182 C 
HETATM    4  C   UNK N   1      27.650  22.633  -8.117  0.00  0.00     0.075 C 
HETATM    5  C   UNK N   1      28.783  21.842  -7.397  0.00  0.00     0.134 C 
HETATM    6  C   UNK N   1      25.136  26.645  -6.338  0.00  0.00     0.018 A 
HETATM    7  C   UNK N   1      26.141  27.623  -4.361  0.00  0.00    -0.060 A 
HETATM    8  C   UNK N   1      27.032  25.562  -5.268  0.00  0.00     0.048 A 
HETATM    9  C   UNK N   1      27.913  23.482  -5.990  0.00  0.00     0.128 C 
HETATM   10  O   UNK N   1      25.172  24.467  -8.151  0.00  0.00    -0.288 OA
HETATM   11  N   UNK N   1      28.954  22.558  -6.160  0.00  0.00    -0.334 N 
HETATM   12  N   UNK N   1      27.998  24.520  -5.228  0.00  0.00    -0.342 N 
ATOM     13  HN  UNK N   1      28.780  24.595  -4.578  1.00  0.00     0.167 HD
HETATM   14  C   UNK N   1      27.073  26.583  -4.315  0.00  0.00     0.037 A 
HETATM   15  C   UNK N   1      26.172  28.690  -3.328  0.00  0.00     0.048 C 
HETATM   16  C   UNK N   1      25.177  27.657  -5.373  0.00  0.00     0.008 A 
ENDROOT
BRANCH  11  17
HETATM   17  C   UNK N   1      30.078  22.382  -5.292  0.00  0.00     0.035 A 
HETATM   18  C   UNK N   1      30.017  21.512  -4.191  0.00  0.00     0.029 A 
HETATM   19  C   UNK N   1      31.128  21.333  -3.363  0.00  0.00     0.002 A 
HETATM   20  C   UNK N   1      32.318  22.009  -3.636  0.00  0.00     0.000 A 
HETATM   21  C   UNK N   1      32.395  22.872  -4.731  0.00  0.00     0.002 A 
HETATM   22  C   UNK N   1      31.279  23.063  -5.553  0.00  0.00     0.029 A 
ENDBRANCH  11  17
BRANCH   3  23
HETATM   23  O   UNK N   1      25.987  22.249  -6.483  0.00  0.00    -0.374 OA
HETATM   24  H   UNK N   1      25.822  21.335  -6.204  0.00  0.00     0.211 HD
ENDBRANCH   3  23
TORSDOF 2
ENDMDL
MODEL 9
REMARK VINA RESULT:      -6.7     17.259     19.748
REMARK  2 active torsions:
REMARK  status: ('A' for Active; 'I' for Inactive)
REMARK    1  A    between atoms: C_3  and  O_15 
REMARK    2  A    between atoms: C_10  and  N_16 
ROOT
HETATM    1  C   UNK N   1      26.331  26.237  -4.368  0.00  0.00     0.040 A 
HETATM    2  C   UNK N   1      26.281  24.763  -4.468  0.00  0.00     0.203 C 
HETATM    3  C   UNK N   1      26.564  24.127  -5.803  0.00  0.00     0.182 C 
HETATM    4  C   UNK N   1      25.639  23.015  -6.311  0.00  0.00     0.075 C 
HETATM    5  C   UNK N   1      25.825  23.031  -7.857  0.00  0.00     0.134 C 
HETATM    6  C   UNK N   1      26.330  26.881  -3.124  0.00  0.00     0.018 A 
HETATM    7  C   UNK N   1      26.553  29.026  -4.231  0.00  0.00    -0.060 A 
HETATM    8  C   UNK N   1      26.438  26.997  -5.550  0.00  0.00     0.048 A 
HETATM    9  C   UNK N   1      26.457  25.077  -6.940  0.00  0.00     0.128 C 
HETATM   10  O   UNK N   1      26.184  24.071  -3.465  0.00  0.00    -0.288 OA
HETATM   11  N   UNK N   1      26.183  24.397  -8.136  0.00  0.00    -0.334 N 
HETATM   12  N   UNK N   1      26.401  26.360  -6.820  0.00  0.00    -0.342 N 
ATOM     13  HN  UNK N   1      26.329  26.934  -7.660  1.00  0.00     0.167 HD
HETATM   14  C   UNK N   1      26.539  28.389  -5.475  0.00  0.00     0.037 A 
HETATM   15  C   UNK N   1      26.691  30.503  -4.158  0.00  0.00     0.048 C 
HETATM   16  C   UNK N   1      26.445  28.273  -3.057  0.00  0.00     0.008 A 
ENDROOT
BRANCH  11  17
HETATM   17  C   UNK N   1      26.173  24.967  -9.448  0.00  0.00     0.035 A 
HETATM   18  C   UNK N   1      24.966  25.279 -10.096  0.00  0.00     0.029 A 
HETATM   19  C   UNK N   1      24.969  25.854 -11.369  0.00  0.00     0.002 A 
HETATM   20  C   UNK N   1      26.180  26.138 -12.003  0.00  0.00     0.000 A 
HETATM   21  C   UNK N   1      27.387  25.838 -11.369  0.00  0.00     0.002 A 
HETATM   22  C   UNK N   1      27.385  25.250 -10.100  0.00  0.00     0.029 A 
ENDBRANCH  11  17
BRANCH   3  23
HETATM   23  O   UNK N   1      27.862  23.612  -5.776  0.00  0.00    -0.374 OA
HETATM   24  H   UNK N   1      28.780  23.629  -5.460  0.00  0.00     0.211 HD
ENDBRANCH   3  23
TORSDOF 2
ENDMDL
