MODEL 1
REMARK VINA RESULT:      -7.2      0.000      0.000
REMARK  2 active torsions:
REMARK  status: ('A' for Active; 'I' for Inactive)
REMARK    1  A    between atoms: C_3  and  O_4 
REMARK    2  A    between atoms: N_7  and  C_8 
ROOT
HETATM    1  O   UNK N   1      35.917  15.289   6.038  0.00  0.00    -0.288 OA
HETATM    2  C   UNK N   1      35.046  15.510   6.866  0.00  0.00     0.203 C 
HETATM    3  C   UNK N   1      34.016  16.575   6.617  0.00  0.00     0.182 C 
HETATM    4  C   UNK N   1      33.217  16.557   5.308  0.00  0.00     0.075 C 
HETATM    5  C   UNK N   1      31.905  17.326   5.639  0.00  0.00     0.134 C 
HETATM    6  N   UNK N   1      31.740  17.115   7.053  0.00  0.00    -0.334 N 
HETATM    7  C   UNK N   1      32.899  16.541   7.594  0.00  0.00     0.128 C 
HETATM    8  N   UNK N   1      32.941  15.929   8.731  0.00  0.00    -0.342 N 
ATOM      9  HN  UNK N   1      32.132  15.976   9.350  1.00  0.00     0.167 HD
HETATM   10  C   UNK N   1      34.086  15.191   9.138  0.00  0.00     0.047 A 
HETATM   11  C   UNK N   1      35.125  14.926   8.221  0.00  0.00     0.040 A 
HETATM   12  C   UNK N   1      34.163  14.688  10.439  0.00  0.00     0.030 A 
HETATM   13  C   UNK N   1      35.277  13.943  10.839  0.00  0.00     0.002 A 
HETATM   14  C   UNK N   1      36.308  13.681   9.932  0.00  0.00     0.001 A 
HETATM   15  C   UNK N   1      36.233  14.168   8.623  0.00  0.00     0.017 A 
ENDROOT
BRANCH   6  16
HETATM   16  C   UNK N   1      30.546  17.445   7.769  0.00  0.00     0.035 A 
HETATM   17  C   UNK N   1      30.591  18.235   8.930  0.00  0.00     0.029 A 
HETATM   18  C   UNK N   1      29.415  18.580   9.600  0.00  0.00     0.002 A 
HETATM   19  C   UNK N   1      28.180  18.157   9.107  0.00  0.00     0.000 A 
HETATM   20  C   UNK N   1      28.121  17.374   7.951  0.00  0.00     0.002 A 
HETATM   21  C   UNK N   1      29.299  17.015   7.288  0.00  0.00     0.029 A 
ENDBRANCH   6  16
BRANCH   3  22
HETATM   22  O   UNK N   1      34.643  17.818   6.713  0.00  0.00    -0.374 OA
HETATM   23  H   UNK N   1      35.444  18.364   6.759  0.00  0.00     0.211 HD
ENDBRANCH   3  22
TORSDOF 2
ENDMDL
MODEL 2
REMARK VINA RESULT:      -6.8      1.836      5.824
REMARK  2 active torsions:
REMARK  status: ('A' for Active; 'I' for Inactive)
REMARK    1  A    between atoms: C_3  and  O_4 
REMARK    2  A    between atoms: N_7  and  C_8 
ROOT
HETATM    1  O   UNK N   1      30.670  16.577   4.998  0.00  0.00    -0.288 OA
HETATM    2  C   UNK N   1      30.967  16.554   6.183  0.00  0.00     0.203 C 
HETATM    3  C   UNK N   1      32.021  15.607   6.683  0.00  0.00     0.182 C 
HETATM    4  C   UNK N   1      33.397  15.588   6.006  0.00  0.00     0.075 C 
HETATM    5  C   UNK N   1      34.361  15.029   7.093  0.00  0.00     0.134 C 
HETATM    6  N   UNK N   1      33.727  15.405   8.329  0.00  0.00    -0.334 N 
HETATM    7  C   UNK N   1      32.432  15.882   8.082  0.00  0.00     0.128 C 
HETATM    8  N   UNK N   1      31.753  16.599   8.915  0.00  0.00    -0.342 N 
ATOM      9  HN  UNK N   1      32.102  16.718   9.867  1.00  0.00     0.167 HD
HETATM   10  C   UNK N   1      30.534  17.226   8.539  0.00  0.00     0.047 A 
HETATM   11  C   UNK N   1      30.141  17.262   7.184  0.00  0.00     0.040 A 
HETATM   12  C   UNK N   1      29.743  17.848   9.507  0.00  0.00     0.030 A 
HETATM   13  C   UNK N   1      28.553  18.485   9.140  0.00  0.00     0.002 A 
HETATM   14  C   UNK N   1      28.162  18.520   7.798  0.00  0.00     0.001 A 
HETATM   15  C   UNK N   1      28.955  17.912   6.819  0.00  0.00     0.017 A 
ENDROOT
BRANCH   6  16
HETATM   16  C   UNK N   1      34.361  15.303   9.608  0.00  0.00     0.035 A 
HETATM   17  C   UNK N   1      34.256  14.134  10.379  0.00  0.00     0.029 A 
HETATM   18  C   UNK N   1      34.910  14.034  11.610  0.00  0.00     0.002 A 
HETATM   19  C   UNK N   1      35.690  15.094  12.074  0.00  0.00     0.000 A 
HETATM   20  C   UNK N   1      35.806  16.261  11.314  0.00  0.00     0.002 A 
HETATM   21  C   UNK N   1      35.140  16.367  10.090  0.00  0.00     0.029 A 
ENDBRANCH   6  16
BRANCH   3  22
HETATM   22  O   UNK N   1      31.504  14.311   6.626  0.00  0.00    -0.374 OA
HETATM   23  H   UNK N   1      30.963  13.631   6.194  0.00  0.00     0.211 HD
ENDBRANCH   3  22
TORSDOF 2
ENDMDL
MODEL 3
REMARK VINA RESULT:      -6.8      9.843     11.476
REMARK  2 active torsions:
REMARK  status: ('A' for Active; 'I' for Inactive)
REMARK    1  A    between atoms: C_3  and  O_4 
REMARK    2  A    between atoms: N_7  and  C_8 
ROOT
HETATM    1  O   UNK N   1      19.642  14.064   9.632  0.00  0.00    -0.288 OA
HETATM    2  C   UNK N   1      20.695  14.083   9.011  0.00  0.00     0.203 C 
HETATM    3  C   UNK N   1      20.721  14.525   7.575  0.00  0.00     0.182 C 
HETATM    4  C   UNK N   1      20.098  15.873   7.192  0.00  0.00     0.075 C 
HETATM    5  C   UNK N   1      20.822  16.279   5.876  0.00  0.00     0.134 C 
HETATM    6  N   UNK N   1      22.101  15.628   5.982  0.00  0.00    -0.334 N 
HETATM    7  C   UNK N   1      22.096  14.726   7.055  0.00  0.00     0.128 C 
HETATM    8  N   UNK N   1      23.163  14.257   7.611  0.00  0.00    -0.342 N 
ATOM      9  HN  UNK N   1      24.068  14.426   7.172  1.00  0.00     0.167 HD
HETATM   10  C   UNK N   1      23.108  13.510   8.820  0.00  0.00     0.047 A 
HETATM   11  C   UNK N   1      21.909  13.445   9.562  0.00  0.00     0.040 A 
HETATM   12  C   UNK N   1      24.255  12.874   9.299  0.00  0.00     0.030 A 
HETATM   13  C   UNK N   1      24.212  12.157  10.499  0.00  0.00     0.002 A 
HETATM   14  C   UNK N   1      23.024  12.091  11.234  0.00  0.00     0.001 A 
HETATM   15  C   UNK N   1      21.874  12.736  10.770  0.00  0.00     0.017 A 
ENDROOT
BRANCH   6  16
HETATM   16  C   UNK N   1      23.201  15.894   5.106  0.00  0.00     0.035 A 
HETATM   17  C   UNK N   1      23.633  14.939   4.172  0.00  0.00     0.029 A 
HETATM   18  C   UNK N   1      24.685  15.224   3.298  0.00  0.00     0.002 A 
HETATM   19  C   UNK N   1      25.304  16.475   3.336  0.00  0.00     0.000 A 
HETATM   20  C   UNK N   1      24.881  17.435   4.259  0.00  0.00     0.002 A 
HETATM   21  C   UNK N   1      23.838  17.145   5.143  0.00  0.00     0.029 A 
ENDBRANCH   6  16
BRANCH   3  22
HETATM   22  O   UNK N   1      20.102  13.538   6.805  0.00  0.00    -0.374 OA
HETATM   23  H   UNK N   1      19.327  13.000   6.578  0.00  0.00     0.211 HD
ENDBRANCH   3  22
TORSDOF 2
ENDMDL
MODEL 4
REMARK VINA RESULT:      -6.8      4.116      7.682
REMARK  2 active torsions:
REMARK  status: ('A' for Active; 'I' for Inactive)
REMARK    1  A    between atoms: C_3  and  O_4 
REMARK    2  A    between atoms: N_7  and  C_8 
ROOT
HETATM    1  O   UNK N   1      26.300  15.515   3.550  0.00  0.00    -0.288 OA
HETATM    2  C   UNK N   1      27.091  16.288   4.070  0.00  0.00     0.203 C 
HETATM    3  C   UNK N   1      28.118  15.781   5.044  0.00  0.00     0.182 C 
HETATM    4  C   UNK N   1      29.027  14.614   4.639  0.00  0.00     0.075 C 
HETATM    5  C   UNK N   1      30.289  14.772   5.535  0.00  0.00     0.134 C 
HETATM    6  N   UNK N   1      30.336  16.185   5.804  0.00  0.00    -0.334 N 
HETATM    7  C   UNK N   1      29.146  16.796   5.383  0.00  0.00     0.128 C 
HETATM    8  N   UNK N   1      29.018  18.064   5.174  0.00  0.00    -0.342 N 
ATOM      9  HN  UNK N   1      29.769  18.692   5.459  1.00  0.00     0.167 HD
HETATM   10  C   UNK N   1      27.857  18.604   4.556  0.00  0.00     0.047 A 
HETATM   11  C   UNK N   1      26.907  17.750   3.957  0.00  0.00     0.040 A 
HETATM   12  C   UNK N   1      27.678  19.988   4.501  0.00  0.00     0.030 A 
HETATM   13  C   UNK N   1      26.549  20.526   3.875  0.00  0.00     0.002 A 
HETATM   14  C   UNK N   1      25.606  19.680   3.282  0.00  0.00     0.001 A 
HETATM   15  C   UNK N   1      25.785  18.294   3.319  0.00  0.00     0.017 A 
ENDROOT
BRANCH   6  16
HETATM   16  C   UNK N   1      31.455  16.840   6.407  0.00  0.00     0.035 A 
HETATM   17  C   UNK N   1      31.382  17.348   7.714  0.00  0.00     0.029 A 
HETATM   18  C   UNK N   1      32.494  17.954   8.304  0.00  0.00     0.002 A 
HETATM   19  C   UNK N   1      33.697  18.042   7.601  0.00  0.00     0.000 A 
HETATM   20  C   UNK N   1      33.784  17.536   6.301  0.00  0.00     0.002 A 
HETATM   21  C   UNK N   1      32.667  16.943   5.705  0.00  0.00     0.029 A 
ENDBRANCH   6  16
BRANCH   3  22
HETATM   22  O   UNK N   1      27.459  15.415   6.219  0.00  0.00    -0.374 OA
HETATM   23  H   UNK N   1      26.729  14.974   6.682  0.00  0.00     0.211 HD
ENDBRANCH   3  22
TORSDOF 2
ENDMDL
MODEL 5
REMARK VINA RESULT:      -6.7      4.734      8.265
REMARK  2 active torsions:
REMARK  status: ('A' for Active; 'I' for Inactive)
REMARK    1  A    between atoms: C_3  and  O_4 
REMARK    2  A    between atoms: N_7  and  C_8 
ROOT
HETATM    1  O   UNK N   1      36.192  11.462  10.126  0.00  0.00    -0.288 OA
HETATM    2  C   UNK N   1      36.025  12.365  10.934  0.00  0.00     0.203 C 
HETATM    3  C   UNK N   1      35.900  12.057  12.399  0.00  0.00     0.182 C 
HETATM    4  C   UNK N   1      36.978  11.208  13.085  0.00  0.00     0.075 C 
HETATM    5  C   UNK N   1      36.896  11.608  14.586  0.00  0.00     0.134 C 
HETATM    6  N   UNK N   1      36.389  12.955  14.548  0.00  0.00    -0.334 N 
HETATM    7  C   UNK N   1      35.954  13.270  13.253  0.00  0.00     0.128 C 
HETATM    8  N   UNK N   1      35.774  14.475  12.823  0.00  0.00    -0.342 N 
ATOM      9  HN  UNK N   1      35.808  15.249  13.486  1.00  0.00     0.167 HD
HETATM   10  C   UNK N   1      35.531  14.747  11.449  0.00  0.00     0.047 A 
HETATM   11  C   UNK N   1      35.694  13.732  10.482  0.00  0.00     0.040 A 
HETATM   12  C   UNK N   1      35.172  16.036  11.048  0.00  0.00     0.030 A 
HETATM   13  C   UNK N   1      34.953  16.315   9.695  0.00  0.00     0.002 A 
HETATM   14  C   UNK N   1      35.113  15.310   8.736  0.00  0.00     0.001 A 
HETATM   15  C   UNK N   1      35.487  14.021   9.127  0.00  0.00     0.017 A 
ENDROOT
BRANCH   6  16
HETATM   16  C   UNK N   1      36.358  13.822  15.685  0.00  0.00     0.035 A 
HETATM   17  C   UNK N   1      35.527  13.549  16.784  0.00  0.00     0.029 A 
HETATM   18  C   UNK N   1      35.532  14.385  17.904  0.00  0.00     0.002 A 
HETATM   19  C   UNK N   1      36.382  15.491  17.945  0.00  0.00     0.000 A 
HETATM   20  C   UNK N   1      37.217  15.772  16.859  0.00  0.00     0.002 A 
HETATM   21  C   UNK N   1      37.200  14.944  15.733  0.00  0.00     0.029 A 
ENDBRANCH   6  16
BRANCH   3  22
HETATM   22  O   UNK N   1      34.671  11.429  12.608  0.00  0.00    -0.374 OA
HETATM   23  H   UNK N   1      33.962  11.123  13.197  0.00  0.00     0.211 HD
ENDBRANCH   3  22
TORSDOF 2
ENDMDL
MODEL 6
REMARK VINA RESULT:      -6.7     14.174     17.204
REMARK  2 active torsions:
REMARK  status: ('A' for Active; 'I' for Inactive)
REMARK    1  A    between atoms: C_3  and  O_4 
REMARK    2  A    between atoms: N_7  and  C_8 
ROOT
HETATM    1  O   UNK N   1      25.233  24.968  -7.905  0.00  0.00    -0.288 OA
HETATM    2  C   UNK N   1      25.954  24.839  -6.927  0.00  0.00     0.203 C 
HETATM    3  C   UNK N   1      26.687  23.548  -6.691  0.00  0.00     0.182 C 
HETATM    4  C   UNK N   1      27.555  22.960  -7.811  0.00  0.00     0.075 C 
HETATM    5  C   UNK N   1      28.594  22.067  -7.073  0.00  0.00     0.134 C 
HETATM    6  N   UNK N   1      28.707  22.683  -5.777  0.00  0.00    -0.334 N 
HETATM    7  C   UNK N   1      27.701  23.646  -5.612  0.00  0.00     0.128 C 
HETATM    8  N   UNK N   1      27.739  24.587  -4.728  0.00  0.00    -0.342 N 
ATOM      9  HN  UNK N   1      28.460  24.563  -4.007  1.00  0.00     0.167 HD
HETATM   10  C   UNK N   1      26.799  25.654  -4.734  0.00  0.00     0.047 A 
HETATM   11  C   UNK N   1      25.933  25.833  -5.834  0.00  0.00     0.040 A 
HETATM   12  C   UNK N   1      26.762  26.556  -3.668  0.00  0.00     0.030 A 
HETATM   13  C   UNK N   1      25.855  27.620  -3.680  0.00  0.00     0.002 A 
HETATM   14  C   UNK N   1      24.996  27.798  -4.768  0.00  0.00     0.001 A 
HETATM   15  C   UNK N   1      25.035  26.909  -5.847  0.00  0.00     0.017 A 
ENDROOT
BRANCH   6  16
HETATM   16  C   UNK N   1      29.718  22.345  -4.824  0.00  0.00     0.035 A 
HETATM   17  C   UNK N   1      29.940  23.139  -3.688  0.00  0.00     0.029 A 
HETATM   18  C   UNK N   1      30.907  22.778  -2.746  0.00  0.00     0.002 A 
HETATM   19  C   UNK N   1      31.649  21.609  -2.921  0.00  0.00     0.000 A 
HETATM   20  C   UNK N   1      31.436  20.807  -4.045  0.00  0.00     0.002 A 
HETATM   21  C   UNK N   1      30.479  21.176  -4.996  0.00  0.00     0.029 A 
ENDBRANCH   6  16
BRANCH   3  22
HETATM   22  O   UNK N   1      25.752  22.578  -6.326  0.00  0.00    -0.374 OA
HETATM   23  H   UNK N   1      24.835  22.277  -6.226  0.00  0.00     0.211 HD
ENDBRANCH   3  22
TORSDOF 2
ENDMDL
MODEL 7
REMARK VINA RESULT:      -6.7      3.184      7.080
REMARK  2 active torsions:
REMARK  status: ('A' for Active; 'I' for Inactive)
REMARK    1  A    between atoms: C_3  and  O_4 
REMARK    2  A    between atoms: N_7  and  C_8 
ROOT
HETATM    1  O   UNK N   1      35.524  17.565  10.401  0.00  0.00    -0.288 OA
HETATM    2  C   UNK N   1      35.122  16.412  10.435  0.00  0.00     0.203 C 
HETATM    3  C   UNK N   1      35.857  15.376  11.237  0.00  0.00     0.182 C 
HETATM    4  C   UNK N   1      36.170  15.651  12.713  0.00  0.00     0.075 C 
HETATM    5  C   UNK N   1      36.327  14.239  13.350  0.00  0.00     0.134 C 
HETATM    6  N   UNK N   1      35.503  13.402  12.518  0.00  0.00    -0.334 N 
HETATM    7  C   UNK N   1      35.104  14.104  11.372  0.00  0.00     0.128 C 
HETATM    8  N   UNK N   1      34.109  13.761  10.623  0.00  0.00    -0.342 N 
ATOM      9  HN  UNK N   1      33.663  12.856  10.773  1.00  0.00     0.167 HD
HETATM   10  C   UNK N   1      33.621  14.614   9.595  0.00  0.00     0.047 A 
HETATM   11  C   UNK N   1      34.069  15.949   9.506  0.00  0.00     0.040 A 
HETATM   12  C   UNK N   1      32.661  14.143   8.697  0.00  0.00     0.030 A 
HETATM   13  C   UNK N   1      32.162  14.984   7.698  0.00  0.00     0.002 A 
HETATM   14  C   UNK N   1      32.606  16.307   7.607  0.00  0.00     0.001 A 
HETATM   15  C   UNK N   1      33.556  16.791   8.511  0.00  0.00     0.017 A 
ENDROOT
BRANCH   6  16
HETATM   16  C   UNK N   1      35.153  12.055  12.850  0.00  0.00     0.035 A 
HETATM   17  C   UNK N   1      35.645  10.973  12.102  0.00  0.00     0.029 A 
HETATM   18  C   UNK N   1      35.324   9.660  12.458  0.00  0.00     0.002 A 
HETATM   19  C   UNK N   1      34.525   9.415  13.575  0.00  0.00     0.000 A 
HETATM   20  C   UNK N   1      34.032  10.483  14.330  0.00  0.00     0.002 A 
HETATM   21  C   UNK N   1      34.341  11.798  13.965  0.00  0.00     0.029 A 
ENDBRANCH   6  16
BRANCH   3  22
HETATM   22  O   UNK N   1      37.065  15.103  10.593  0.00  0.00    -0.374 OA
HETATM   23  H   UNK N   1      37.978  15.341  10.362  0.00  0.00     0.211 HD
ENDBRANCH   3  22
TORSDOF 2
ENDMDL
MODEL 8
REMARK VINA RESULT:      -6.6     11.801     14.781
REMARK  2 active torsions:
REMARK  status: ('A' for Active; 'I' for Inactive)
REMARK    1  A    between atoms: C_3  and  O_4 
REMARK    2  A    between atoms: N_7  and  C_8 
ROOT
HETATM    1  O   UNK N   1      34.849   7.143  22.989  0.00  0.00    -0.288 OA
HETATM    2  C   UNK N   1      34.448   7.876  22.097  0.00  0.00     0.203 C 
HETATM    3  C   UNK N   1      35.155   9.169  21.803  0.00  0.00     0.182 C 
HETATM    4  C   UNK N   1      36.669   9.158  21.555  0.00  0.00     0.075 C 
HETATM    5  C   UNK N   1      36.935  10.434  20.704  0.00  0.00     0.134 C 
HETATM    6  N   UNK N   1      35.690  10.644  20.014  0.00  0.00    -0.334 N 
HETATM    7  C   UNK N   1      34.698   9.806  20.543  0.00  0.00     0.128 C 
HETATM    8  N   UNK N   1      33.597   9.513  19.934  0.00  0.00    -0.342 N 
ATOM      9  HN  UNK N   1      33.351  10.018  19.082  1.00  0.00     0.167 HD
HETATM   10  C   UNK N   1      32.722   8.504  20.420  0.00  0.00     0.047 A 
HETATM   11  C   UNK N   1      33.135   7.645  21.460  0.00  0.00     0.040 A 
HETATM   12  C   UNK N   1      31.465   8.332  19.836  0.00  0.00     0.030 A 
HETATM   13  C   UNK N   1      30.608   7.327  20.295  0.00  0.00     0.002 A 
HETATM   14  C   UNK N   1      31.015   6.476  21.327  0.00  0.00     0.001 A 
HETATM   15  C   UNK N   1      32.278   6.631  21.908  0.00  0.00     0.017 A 
ENDROOT
BRANCH   6  16
HETATM   16  C   UNK N   1      35.527  11.575  18.940  0.00  0.00     0.035 A 
HETATM   17  C   UNK N   1      35.259  12.931  19.189  0.00  0.00     0.029 A 
HETATM   18  C   UNK N   1      35.136  13.836  18.132  0.00  0.00     0.002 A 
HETATM   19  C   UNK N   1      35.300  13.400  16.817  0.00  0.00     0.000 A 
HETATM   20  C   UNK N   1      35.571  12.054  16.556  0.00  0.00     0.002 A 
HETATM   21  C   UNK N   1      35.678  11.145  17.612  0.00  0.00     0.029 A 
ENDBRANCH   6  16
BRANCH   3  22
HETATM   22  O   UNK N   1      34.906  10.051  22.856  0.00  0.00    -0.374 OA
HETATM   23  H   UNK N   1      35.170  10.792  23.424  0.00  0.00     0.211 HD
ENDBRANCH   3  22
TORSDOF 2
ENDMDL
MODEL 9
REMARK VINA RESULT:      -6.6      4.302      6.529
REMARK  2 active torsions:
REMARK  status: ('A' for Active; 'I' for Inactive)
REMARK    1  A    between atoms: C_3  and  O_4 
REMARK    2  A    between atoms: N_7  and  C_8 
ROOT
HETATM    1  O   UNK N   1      30.723  17.052   4.967  0.00  0.00    -0.288 OA
HETATM    2  C   UNK N   1      29.645  17.227   5.515  0.00  0.00     0.203 C 
HETATM    3  C   UNK N   1      28.390  17.355   4.698  0.00  0.00     0.182 C 
HETATM    4  C   UNK N   1      28.052  16.273   3.665  0.00  0.00     0.075 C 
HETATM    5  C   UNK N   1      26.508  16.362   3.495  0.00  0.00     0.134 C 
HETATM    6  N   UNK N   1      26.060  16.878   4.761  0.00  0.00    -0.334 N 
HETATM    7  C   UNK N   1      27.156  17.312   5.521  0.00  0.00     0.128 C 
HETATM    8  N   UNK N   1      27.122  17.499   6.799  0.00  0.00    -0.342 N 
ATOM      9  HN  UNK N   1      26.224  17.472   7.281  1.00  0.00     0.167 HD
HETATM   10  C   UNK N   1      28.306  17.740   7.548  0.00  0.00     0.047 A 
HETATM   11  C   UNK N   1      29.573  17.567   6.952  0.00  0.00     0.040 A 
HETATM   12  C   UNK N   1      28.216  18.107   8.893  0.00  0.00     0.030 A 
HETATM   13  C   UNK N   1      29.378  18.324   9.641  0.00  0.00     0.002 A 
HETATM   14  C   UNK N   1      30.634  18.154   9.051  0.00  0.00     0.001 A 
HETATM   15  C   UNK N   1      30.734  17.773   7.709  0.00  0.00     0.017 A 
ENDROOT
BRANCH   6  16
HETATM   16  C   UNK N   1      24.686  16.918   5.159  0.00  0.00     0.035 A 
HETATM   17  C   UNK N   1      24.092  15.835   5.827  0.00  0.00     0.029 A 
HETATM   18  C   UNK N   1      22.760  15.900   6.241  0.00  0.00     0.002 A 
HETATM   19  C   UNK N   1      22.013  17.056   6.010  0.00  0.00     0.000 A 
HETATM   20  C   UNK N   1      22.593  18.143   5.350  0.00  0.00     0.002 A 
HETATM   21  C   UNK N   1      23.922  18.072   4.922  0.00  0.00     0.029 A 
ENDBRANCH   6  16
BRANCH   3  22
HETATM   22  O   UNK N   1      28.428  18.580   4.030  0.00  0.00    -0.374 OA
HETATM   23  H   UNK N   1      28.864  19.208   3.433  0.00  0.00     0.211 HD
ENDBRANCH   3  22
TORSDOF 2
ENDMDL
