REMARK  7 active torsions:
REMARK  status: ('A' for Active; 'I' for Inactive)
REMARK    1  A    between atoms: O_2  and  C_3 
REMARK    2  A    between atoms: N_9  and  C_10 
REMARK    3  A    between atoms: C_12  and  O_13 
REMARK    4  A    between atoms: O_13  and  C_14 
REMARK    5  A    between atoms: C_14  and  C_16 
REMARK    6  A    between atoms: C_23  and  C_25 
REMARK       I    between atoms: C_25  and  N_27 
REMARK    7  A    between atoms: C_30  and  O_31 
ROOT
HETATM    1  C   UNK N   1      -2.274  -3.199  -0.074  0.00  0.00     0.085 A 
HETATM    2  C   UNK N   1      -1.551  -2.029  -0.086  0.00  0.00     0.076 A 
HETATM    3  C   UNK N   1      -2.312  -0.859  -0.202  0.00  0.00     0.095 A 
HETATM    4  C   UNK N   1      -3.693  -1.106  -0.277  0.00  0.00     0.107 A 
HETATM    5  S   UNK N   1      -3.881  -2.781  -0.199  0.00  0.00    -0.064 SA
ENDROOT
BRANCH   1   6
HETATM    6  N   UNK N   1      -1.622  -4.478  -0.020  0.00  0.00    -0.299 N 
HETATM    7  C   UNK N   1      -2.130  -5.736  -0.013  0.00  0.00     0.190 A 
HETATM    8  N   UNK N   1      -1.129  -6.666   0.014  0.00  0.00    -0.350 N 
HETATM    9  C   UNK N   1       0.014  -5.942   0.021  0.00  0.00     0.063 A 
ATOM     10  HN  UNK N   1      -1.222  -7.682   0.027  1.00  0.00     0.166 HD
HETATM   11  C   UNK N   1       1.337  -6.382   0.014  0.00  0.00     0.071 A 
HETATM   12  C   UNK N   1      -0.289  -4.635   0.002  0.00  0.00     0.070 A 
HETATM   13  C   UNK N   1       2.377  -5.411  -0.022  0.00  0.00     0.103 A 
HETATM   14  C   UNK N   1       2.036  -4.006  -0.010  0.00  0.00     0.103 A 
HETATM   15  C   UNK N   1       0.692  -3.648  -0.007  0.00  0.00     0.072 A 
BRANCH  13  16
HETATM   16  O   UNK N   1       3.648  -5.864  -0.098  0.00  0.00    -0.353 OA
HETATM   17  C   UNK N   1       4.524  -5.440  -1.071  0.00  0.00     0.210 C 
ENDBRANCH  13  16
BRANCH  14  18
HETATM   18  O   UNK N   1       2.923  -2.974   0.013  0.00  0.00    -0.353 OA
HETATM   19  C   UNK N   1       4.249  -3.036   0.362  0.00  0.00     0.210 C 
ENDBRANCH  14  18
ENDBRANCH   1   6
BRANCH   4  20
HETATM   20  C   UNK N   1      -4.762  -0.100  -0.413  0.00  0.00     0.259 C 
HETATM   21  O   UNK N   1      -5.929  -0.451  -0.472  0.00  0.00    -0.267 OA
HETATM   22  N   UNK N   1      -4.458   1.211  -0.481  0.00  0.00    -0.365 N 
HETATM   23  H   UNK N   1      -3.517   1.498  -0.531  0.00  0.00     0.159 HD
HETATM   24  H   UNK N   1      -5.177   1.884  -0.481  0.00  0.00     0.159 HD
ENDBRANCH   4  20
BRANCH   3  25
HETATM   25  O   UNK N   1      -1.707   0.360  -0.238  0.00  0.00    -0.340 OA
BRANCH  25  26
HETATM   26  C   UNK N   1      -0.311   0.459  -0.229  0.00  0.00     0.159 C 
HETATM   27  C   UNK N   1       0.259  -0.120  -1.526  0.00  0.00     0.045 C 
BRANCH  26  28
HETATM   28  C   UNK N   1       0.184   1.868  -0.063  0.00  0.00    -0.008 A 
HETATM   29  C   UNK N   1      -0.726   2.933  -0.052  0.00  0.00     0.011 A 
HETATM   30  C   UNK N   1      -0.275   4.245   0.105  0.00  0.00     0.001 A 
HETATM   31  C   UNK N   1       1.088   4.503   0.259  0.00  0.00     0.002 A 
HETATM   32  C   UNK N   1       2.005   3.451   0.261  0.00  0.00     0.024 A 
HETATM   33  C   UNK N   1       1.567   2.135   0.101  0.00  0.00     0.042 A 
HETATM   34 Cl   UNK N   1       2.773   0.850   0.139  0.00  0.00    -0.084 Cl
ENDBRANCH  26  28
ENDBRANCH  25  26
ENDBRANCH   3  25
TORSDOF 7
