MODEL 1
REMARK VINA RESULT:      -7.6      0.000      0.000
REMARK  7 active torsions:
REMARK  status: ('A' for Active; 'I' for Inactive)
REMARK    1  A    between atoms: O_2  and  C_3 
REMARK    2  A    between atoms: N_9  and  C_10 
REMARK    3  A    between atoms: C_12  and  O_13 
REMARK    4  A    between atoms: O_13  and  C_14 
REMARK    5  A    between atoms: C_14  and  C_16 
REMARK    6  A    between atoms: C_23  and  C_25 
REMARK       I    between atoms: C_25  and  N_27 
REMARK    7  A    between atoms: C_30  and  O_31 
ROOT
HETATM    1  C   UNK N   1      21.850  16.832   4.327  0.00  0.00     0.085 A 
HETATM    2  C   UNK N   1      22.865  17.736   4.538  0.00  0.00     0.076 A 
HETATM    3  C   UNK N   1      22.754  18.934   3.823  0.00  0.00     0.095 A 
HETATM    4  C   UNK N   1      21.604  18.990   3.017  0.00  0.00     0.107 A 
HETATM    5  S   UNK N   1      20.793  17.529   3.245  0.00  0.00    -0.064 SA
ENDROOT
BRANCH   1   6
HETATM    6  N   UNK N   1      21.864  15.537   4.949  0.00  0.00    -0.299 N 
HETATM    7  C   UNK N   1      22.387  14.356   4.533  0.00  0.00     0.190 A 
HETATM    8  N   UNK N   1      22.192  13.380   5.470  0.00  0.00    -0.350 N 
HETATM    9  C   UNK N   1      21.534  13.996   6.479  0.00  0.00     0.063 A 
ATOM     10  HN  UNK N   1      22.479  12.402   5.420  1.00  0.00     0.166 HD
HETATM   11  C   UNK N   1      21.112  13.479   7.703  0.00  0.00     0.071 A 
HETATM   12  C   UNK N   1      21.340  15.285   6.159  0.00  0.00     0.070 A 
HETATM   13  C   UNK N   1      20.471  14.352   8.626  0.00  0.00     0.103 A 
HETATM   14  C   UNK N   1      20.240  15.731   8.255  0.00  0.00     0.103 A 
HETATM   15  C   UNK N   1      20.695  16.171   7.016  0.00  0.00     0.072 A 
BRANCH  13  16
HETATM   16  O   UNK N   1      20.134  13.844   9.832  0.00  0.00    -0.353 OA
HETATM   17  C   UNK N   1      20.926  12.934  10.494  0.00  0.00     0.210 C 
ENDBRANCH  13  16
BRANCH  14  18
HETATM   18  O   UNK N   1      19.594  16.659   9.012  0.00  0.00    -0.353 OA
HETATM   19  C   UNK N   1      18.261  16.981   8.959  0.00  0.00     0.210 C 
ENDBRANCH  14  18
ENDBRANCH   1   6
BRANCH   4  20
HETATM   20  C   UNK N   1      21.198  20.101   2.137  0.00  0.00     0.259 C 
HETATM   21  O   UNK N   1      20.923  19.886   0.968  0.00  0.00    -0.267 OA
HETATM   22  N   UNK N   1      21.137  21.360   2.614  0.00  0.00    -0.365 N 
HETATM   23  H   UNK N   1      21.449  21.558   3.527  0.00  0.00     0.159 HD
HETATM   24  H   UNK N   1      20.779  22.083   2.049  0.00  0.00     0.159 HD
ENDBRANCH   4  20
BRANCH   3  25
HETATM   25  O   UNK N   1      23.706  19.901   3.940  0.00  0.00    -0.340 OA
BRANCH  25  26
HETATM   26  C   UNK N   1      25.023  19.652   3.538  0.00  0.00     0.159 C 
HETATM   27  C   UNK N   1      25.445  20.672   2.478  0.00  0.00     0.045 C 
BRANCH  26  28
HETATM   28  C   UNK N   1      26.008  19.690   4.672  0.00  0.00    -0.008 A 
HETATM   29  C   UNK N   1      26.219  20.882   5.377  0.00  0.00     0.011 A 
HETATM   30  C   UNK N   1      27.129  20.925   6.434  0.00  0.00     0.001 A 
HETATM   31  C   UNK N   1      27.831  19.776   6.801  0.00  0.00     0.002 A 
HETATM   32  C   UNK N   1      27.623  18.578   6.115  0.00  0.00     0.024 A 
HETATM   33  C   UNK N   1      26.718  18.523   5.054  0.00  0.00     0.042 A 
HETATM   34 Cl   UNK N   1      26.481  16.974   4.246  0.00  0.00    -0.084 Cl
ENDBRANCH  26  28
ENDBRANCH  25  26
ENDBRANCH   3  25
TORSDOF 7
ENDMDL
MODEL 2
REMARK VINA RESULT:      -7.2      2.290      7.521
REMARK  7 active torsions:
REMARK  status: ('A' for Active; 'I' for Inactive)
REMARK    1  A    between atoms: O_2  and  C_3 
REMARK    2  A    between atoms: N_9  and  C_10 
REMARK    3  A    between atoms: C_12  and  O_13 
REMARK    4  A    between atoms: O_13  and  C_14 
REMARK    5  A    between atoms: C_14  and  C_16 
REMARK    6  A    between atoms: C_23  and  C_25 
REMARK       I    between atoms: C_25  and  N_27 
REMARK    7  A    between atoms: C_30  and  O_31 
ROOT
HETATM    1  C   UNK N   1      20.813  17.148   4.044  0.00  0.00     0.085 A 
HETATM    2  C   UNK N   1      20.514  16.902   5.364  0.00  0.00     0.076 A 
HETATM    3  C   UNK N   1      19.857  15.690   5.610  0.00  0.00     0.095 A 
HETATM    4  C   UNK N   1      19.631  14.940   4.444  0.00  0.00     0.107 A 
HETATM    5  S   UNK N   1      20.265  15.843   3.167  0.00  0.00    -0.064 SA
ENDROOT
BRANCH   1   6
HETATM    6  N   UNK N   1      21.433  18.379   3.637  0.00  0.00    -0.299 N 
HETATM    7  C   UNK N   1      20.894  19.548   3.209  0.00  0.00     0.190 A 
HETATM    8  N   UNK N   1      21.869  20.471   2.958  0.00  0.00    -0.350 N 
HETATM    9  C   UNK N   1      23.028  19.836   3.247  0.00  0.00     0.063 A 
ATOM     10  HN  UNK N   1      21.750  21.429   2.625  1.00  0.00     0.166 HD
HETATM   11  C   UNK N   1      24.335  20.320   3.199  0.00  0.00     0.071 A 
HETATM   12  C   UNK N   1      22.759  18.585   3.651  0.00  0.00     0.070 A 
HETATM   13  C   UNK N   1      25.395  19.459   3.599  0.00  0.00     0.103 A 
HETATM   14  C   UNK N   1      25.093  18.103   4.002  0.00  0.00     0.103 A 
HETATM   15  C   UNK N   1      23.763  17.697   4.026  0.00  0.00     0.072 A 
BRANCH  13  16
HETATM   16  O   UNK N   1      26.644  19.974   3.610  0.00  0.00    -0.353 OA
HETATM   17  C   UNK N   1      27.202  20.528   4.739  0.00  0.00     0.210 C 
ENDBRANCH  13  16
BRANCH  14  18
HETATM   18  O   UNK N   1      26.006  17.158   4.355  0.00  0.00    -0.353 OA
HETATM   19  C   UNK N   1      26.092  16.505   5.559  0.00  0.00     0.210 C 
ENDBRANCH  14  18
ENDBRANCH   1   6
BRANCH   4  20
HETATM   20  C   UNK N   1      18.959  13.631   4.354  0.00  0.00     0.259 C 
HETATM   21  O   UNK N   1      17.794  13.516   4.698  0.00  0.00    -0.267 OA
HETATM   22  N   UNK N   1      19.627  12.552   3.901  0.00  0.00    -0.365 N 
HETATM   23  H   UNK N   1      20.592  12.612   3.712  0.00  0.00     0.159 HD
HETATM   24  H   UNK N   1      19.151  11.702   3.758  0.00  0.00     0.159 HD
ENDBRANCH   4  20
BRANCH   3  25
HETATM   25  O   UNK N   1      19.497  15.341   6.876  0.00  0.00    -0.340 OA
BRANCH  25  26
HETATM   26  C   UNK N   1      20.262  15.760   7.970  0.00  0.00     0.159 C 
HETATM   27  C   UNK N   1      19.400  16.602   8.915  0.00  0.00     0.045 C 
BRANCH  26  28
HETATM   28  C   UNK N   1      20.867  14.623   8.743  0.00  0.00    -0.008 A 
HETATM   29  C   UNK N   1      20.157  14.038   9.800  0.00  0.00     0.011 A 
HETATM   30  C   UNK N   1      20.710  12.979  10.521  0.00  0.00     0.001 A 
HETATM   31  C   UNK N   1      21.974  12.490  10.189  0.00  0.00     0.002 A 
HETATM   32  C   UNK N   1      22.689  13.055   9.131  0.00  0.00     0.024 A 
HETATM   33  C   UNK N   1      22.148  14.117   8.405  0.00  0.00     0.042 A 
HETATM   34 Cl   UNK N   1      23.090  14.769   7.065  0.00  0.00    -0.084 Cl
ENDBRANCH  26  28
ENDBRANCH  25  26
ENDBRANCH   3  25
TORSDOF 7
ENDMDL
MODEL 3
REMARK VINA RESULT:      -7.2     13.409     16.669
REMARK  7 active torsions:
REMARK  status: ('A' for Active; 'I' for Inactive)
REMARK    1  A    between atoms: O_2  and  C_3 
REMARK    2  A    between atoms: N_9  and  C_10 
REMARK    3  A    between atoms: C_12  and  O_13 
REMARK    4  A    between atoms: O_13  and  C_14 
REMARK    5  A    between atoms: C_14  and  C_16 
REMARK    6  A    between atoms: C_23  and  C_25 
REMARK       I    between atoms: C_25  and  N_27 
REMARK    7  A    between atoms: C_30  and  O_31 
ROOT
HETATM    1  C   UNK N   1      35.950  14.141  11.923  0.00  0.00     0.085 A 
HETATM    2  C   UNK N   1      35.785  14.112  13.288  0.00  0.00     0.076 A 
HETATM    3  C   UNK N   1      36.376  13.021  13.937  0.00  0.00     0.095 A 
HETATM    4  C   UNK N   1      37.044  12.153  13.057  0.00  0.00     0.107 A 
HETATM    5  S   UNK N   1      36.850  12.801  11.512  0.00  0.00    -0.064 SA
ENDROOT
BRANCH   1   6
HETATM    6  N   UNK N   1      35.348  15.169  11.120  0.00  0.00    -0.299 N 
HETATM    7  C   UNK N   1      35.509  16.516  11.133  0.00  0.00     0.190 A 
HETATM    8  N   UNK N   1      34.752  17.107  10.161  0.00  0.00    -0.350 N 
HETATM    9  C   UNK N   1      34.119  16.081   9.546  0.00  0.00     0.063 A 
ATOM     10  HN  UNK N   1      34.678  18.102   9.946  1.00  0.00     0.166 HD
HETATM   11  C   UNK N   1      33.245  16.107   8.460  0.00  0.00     0.071 A 
HETATM   12  C   UNK N   1      34.480  14.926  10.126  0.00  0.00     0.070 A 
HETATM   13  C   UNK N   1      32.740  14.873   7.963  0.00  0.00     0.103 A 
HETATM   14  C   UNK N   1      33.112  13.639   8.618  0.00  0.00     0.103 A 
HETATM   15  C   UNK N   1      33.992  13.697   9.693  0.00  0.00     0.072 A 
BRANCH  13  16
HETATM   16  O   UNK N   1      31.950  14.921   6.867  0.00  0.00    -0.353 OA
HETATM   17  C   UNK N   1      32.055  15.920   5.927  0.00  0.00     0.210 C 
ENDBRANCH  13  16
BRANCH  14  18
HETATM   18  O   UNK N   1      32.664  12.397   8.286  0.00  0.00    -0.353 OA
HETATM   19  C   UNK N   1      33.401  11.241   8.243  0.00  0.00     0.210 C 
ENDBRANCH  14  18
ENDBRANCH   1   6
BRANCH   4  20
HETATM   20  C   UNK N   1      37.758  10.913  13.415  0.00  0.00     0.259 C 
HETATM   21  O   UNK N   1      38.054  10.106  12.549  0.00  0.00    -0.267 OA
HETATM   22  N   UNK N   1      38.081  10.660  14.698  0.00  0.00    -0.365 N 
HETATM   23  H   UNK N   1      37.763  11.257  15.414  0.00  0.00     0.159 HD
HETATM   24  H   UNK N   1      38.635   9.877  14.921  0.00  0.00     0.159 HD
ENDBRANCH   4  20
BRANCH   3  25
HETATM   25  O   UNK N   1      36.269  12.877  15.287  0.00  0.00    -0.340 OA
BRANCH  25  26
HETATM   26  C   UNK N   1      35.030  12.596  15.873  0.00  0.00     0.159 C 
HETATM   27  C   UNK N   1      34.276  11.568  15.028  0.00  0.00     0.045 C 
BRANCH  26  28
HETATM   28  C   UNK N   1      35.141  12.085  17.282  0.00  0.00    -0.008 A 
HETATM   29  C   UNK N   1      35.160  10.706  17.527  0.00  0.00     0.011 A 
HETATM   30  C   UNK N   1      35.266  10.222  18.832  0.00  0.00     0.001 A 
HETATM   31  C   UNK N   1      35.362  11.112  19.903  0.00  0.00     0.002 A 
HETATM   32  C   UNK N   1      35.356  12.488  19.673  0.00  0.00     0.024 A 
HETATM   33  C   UNK N   1      35.246  12.985  18.373  0.00  0.00     0.042 A 
HETATM   34 Cl   UNK N   1      35.271  14.733  18.149  0.00  0.00    -0.084 Cl
ENDBRANCH  26  28
ENDBRANCH  25  26
ENDBRANCH   3  25
TORSDOF 7
ENDMDL
MODEL 4
REMARK VINA RESULT:      -7.1      2.956      7.888
REMARK  7 active torsions:
REMARK  status: ('A' for Active; 'I' for Inactive)
REMARK    1  A    between atoms: O_2  and  C_3 
REMARK    2  A    between atoms: N_9  and  C_10 
REMARK    3  A    between atoms: C_12  and  O_13 
REMARK    4  A    between atoms: O_13  and  C_14 
REMARK    5  A    between atoms: C_14  and  C_16 
REMARK    6  A    between atoms: C_23  and  C_25 
REMARK       I    between atoms: C_25  and  N_27 
REMARK    7  A    between atoms: C_30  and  O_31 
ROOT
HETATM    1  C   UNK N   1      21.274  13.848   4.216  0.00  0.00     0.085 A 
HETATM    2  C   UNK N   1      20.856  13.794   5.525  0.00  0.00     0.076 A 
HETATM    3  C   UNK N   1      21.564  12.901   6.341  0.00  0.00     0.095 A 
HETATM    4  C   UNK N   1      22.588  12.225   5.657  0.00  0.00     0.107 A 
HETATM    5  S   UNK N   1      22.545  12.782   4.065  0.00  0.00    -0.064 SA
ENDROOT
BRANCH   1   6
HETATM    6  N   UNK N   1      20.602  14.674   3.252  0.00  0.00    -0.299 N 
HETATM    7  C   UNK N   1      19.642  14.377   2.341  0.00  0.00     0.190 A 
HETATM    8  N   UNK N   1      19.268  15.493   1.646  0.00  0.00    -0.350 N 
HETATM    9  C   UNK N   1      20.025  16.490   2.160  0.00  0.00     0.063 A 
ATOM     10  HN  UNK N   1      18.571  15.561   0.904  1.00  0.00     0.166 HD
HETATM   11  C   UNK N   1      20.031  17.847   1.841  0.00  0.00     0.071 A 
HETATM   12  C   UNK N   1      20.822  15.992   3.118  0.00  0.00     0.070 A 
HETATM   13  C   UNK N   1      20.901  18.711   2.564  0.00  0.00     0.103 A 
HETATM   14  C   UNK N   1      21.776  18.156   3.571  0.00  0.00     0.103 A 
HETATM   15  C   UNK N   1      21.708  16.792   3.833  0.00  0.00     0.072 A 
BRANCH  13  16
HETATM   16  O   UNK N   1      20.838  20.032   2.284  0.00  0.00    -0.353 OA
HETATM   17  C   UNK N   1      20.912  20.517   0.998  0.00  0.00     0.210 C 
ENDBRANCH  13  16
BRANCH  14  18
HETATM   18  O   UNK N   1      22.693  18.852   4.297  0.00  0.00    -0.353 OA
HETATM   19  C   UNK N   1      23.964  19.195   3.907  0.00  0.00     0.210 C 
ENDBRANCH  14  18
ENDBRANCH   1   6
BRANCH   4  20
HETATM   20  C   UNK N   1      23.506  11.218   6.219  0.00  0.00     0.259 C 
HETATM   21  O   UNK N   1      24.653  11.139   5.809  0.00  0.00    -0.267 OA
HETATM   22  N   UNK N   1      23.084  10.374   7.181  0.00  0.00    -0.365 N 
HETATM   23  H   UNK N   1      22.137  10.365   7.449  0.00  0.00     0.159 HD
HETATM   24  H   UNK N   1      23.724   9.764   7.616  0.00  0.00     0.159 HD
ENDBRANCH   4  20
BRANCH   3  25
HETATM   25  O   UNK N   1      21.233  12.751   7.653  0.00  0.00    -0.340 OA
BRANCH  25  26
HETATM   26  C   UNK N   1      21.677  13.675   8.606  0.00  0.00     0.159 C 
HETATM   27  C   UNK N   1      20.477  14.371   9.252  0.00  0.00     0.045 C 
BRANCH  26  28
HETATM   28  C   UNK N   1      22.524  13.058   9.683  0.00  0.00    -0.008 A 
HETATM   29  C   UNK N   1      21.916  12.467  10.798  0.00  0.00     0.011 A 
HETATM   30  C   UNK N   1      22.695  11.889  11.802  0.00  0.00     0.001 A 
HETATM   31  C   UNK N   1      24.087  11.889  11.696  0.00  0.00     0.002 A 
HETATM   32  C   UNK N   1      24.705  12.464  10.585  0.00  0.00     0.024 A 
HETATM   33  C   UNK N   1      23.938  13.049   9.576  0.00  0.00     0.042 A 
HETATM   34 Cl   UNK N   1      24.779  13.735   8.187  0.00  0.00    -0.084 Cl
ENDBRANCH  26  28
ENDBRANCH  25  26
ENDBRANCH   3  25
TORSDOF 7
ENDMDL
MODEL 5
REMARK VINA RESULT:      -7.0     12.784     16.109
REMARK  7 active torsions:
REMARK  status: ('A' for Active; 'I' for Inactive)
REMARK    1  A    between atoms: O_2  and  C_3 
REMARK    2  A    between atoms: N_9  and  C_10 
REMARK    3  A    between atoms: C_12  and  O_13 
REMARK    4  A    between atoms: O_13  and  C_14 
REMARK    5  A    between atoms: C_14  and  C_16 
REMARK    6  A    between atoms: C_23  and  C_25 
REMARK       I    between atoms: C_25  and  N_27 
REMARK    7  A    between atoms: C_30  and  O_31 
ROOT
HETATM    1  C   UNK N   1      35.701  13.798  11.240  0.00  0.00     0.085 A 
HETATM    2  C   UNK N   1      35.516  13.431  12.553  0.00  0.00     0.076 A 
HETATM    3  C   UNK N   1      35.937  12.134  12.874  0.00  0.00     0.095 A 
HETATM    4  C   UNK N   1      36.485  11.446  11.778  0.00  0.00     0.107 A 
HETATM    5  S   UNK N   1      36.405  12.503  10.466  0.00  0.00    -0.064 SA
ENDROOT
BRANCH   1   6
HETATM    6  N   UNK N   1      35.263  15.077  10.755  0.00  0.00    -0.299 N 
HETATM    7  C   UNK N   1      35.600  16.336  11.132  0.00  0.00     0.190 A 
HETATM    8  N   UNK N   1      34.954  17.265  10.366  0.00  0.00    -0.350 N 
HETATM    9  C   UNK N   1      34.208  16.540   9.501  0.00  0.00     0.063 A 
ATOM     10  HN  UNK N   1      35.019  18.281  10.432  1.00  0.00     0.166 HD
HETATM   11  C   UNK N   1      33.376  16.978   8.472  0.00  0.00     0.071 A 
HETATM   12  C   UNK N   1      34.397  15.233   9.741  0.00  0.00     0.070 A 
HETATM   13  C   UNK N   1      32.725  16.005   7.663  0.00  0.00     0.103 A 
HETATM   14  C   UNK N   1      32.912  14.601   7.953  0.00  0.00     0.103 A 
HETATM   15  C   UNK N   1      33.763  14.245   8.994  0.00  0.00     0.072 A 
BRANCH  13  16
HETATM   16  O   UNK N   1      31.979  16.454   6.629  0.00  0.00    -0.353 OA
HETATM   17  C   UNK N   1      30.683  16.890   6.791  0.00  0.00     0.210 C 
ENDBRANCH  13  16
BRANCH  14  18
HETATM   18  O   UNK N   1      32.313  13.568   7.299  0.00  0.00    -0.353 OA
HETATM   19  C   UNK N   1      32.686  13.030   6.093  0.00  0.00     0.210 C 
ENDBRANCH  14  18
ENDBRANCH   1   6
BRANCH   4  20
HETATM   20  C   UNK N   1      37.009  10.068  11.776  0.00  0.00     0.259 C 
HETATM   21  O   UNK N   1      37.949   9.773  11.056  0.00  0.00    -0.267 OA
HETATM   22  N   UNK N   1      36.451   9.126  12.561  0.00  0.00    -0.365 N 
HETATM   23  H   UNK N   1      35.634   9.330  13.072  0.00  0.00     0.159 HD
HETATM   24  H   UNK N   1      36.859   8.232  12.624  0.00  0.00     0.159 HD
ENDBRANCH   4  20
BRANCH   3  25
HETATM   25  O   UNK N   1      35.793  11.653  14.139  0.00  0.00    -0.340 OA
BRANCH  25  26
HETATM   26  C   UNK N   1      34.655  11.966  14.892  0.00  0.00     0.159 C 
HETATM   27  C   UNK N   1      33.569  10.914  14.653  0.00  0.00     0.045 C 
BRANCH  26  28
HETATM   28  C   UNK N   1      34.926  12.065  16.366  0.00  0.00    -0.008 A 
HETATM   29  C   UNK N   1      34.853  13.307  17.010  0.00  0.00     0.011 A 
HETATM   30  C   UNK N   1      35.100  13.406  18.381  0.00  0.00     0.001 A 
HETATM   31  C   UNK N   1      35.415  12.266  19.120  0.00  0.00     0.002 A 
HETATM   32  C   UNK N   1      35.481  11.020  18.494  0.00  0.00     0.024 A 
HETATM   33  C   UNK N   1      35.240  10.907  17.124  0.00  0.00     0.042 A 
HETATM   34 Cl   UNK N   1      35.312   9.302  16.399  0.00  0.00    -0.084 Cl
ENDBRANCH  26  28
ENDBRANCH  25  26
ENDBRANCH   3  25
TORSDOF 7
ENDMDL
MODEL 6
REMARK VINA RESULT:      -7.0      3.375      7.096
REMARK  7 active torsions:
REMARK  status: ('A' for Active; 'I' for Inactive)
REMARK    1  A    between atoms: O_2  and  C_3 
REMARK    2  A    between atoms: N_9  and  C_10 
REMARK    3  A    between atoms: C_12  and  O_13 
REMARK    4  A    between atoms: O_13  and  C_14 
REMARK    5  A    between atoms: C_14  and  C_16 
REMARK    6  A    between atoms: C_23  and  C_25 
REMARK       I    between atoms: C_25  and  N_27 
REMARK    7  A    between atoms: C_30  and  O_31 
ROOT
HETATM    1  C   UNK N   1      24.401  19.569   4.051  0.00  0.00     0.085 A 
HETATM    2  C   UNK N   1      23.346  18.806   4.496  0.00  0.00     0.076 A 
HETATM    3  C   UNK N   1      22.161  18.941   3.763  0.00  0.00     0.095 A 
HETATM    4  C   UNK N   1      22.278  19.839   2.689  0.00  0.00     0.107 A 
HETATM    5  S   UNK N   1      23.862  20.417   2.723  0.00  0.00    -0.064 SA
ENDROOT
BRANCH   1   6
HETATM    6  N   UNK N   1      25.660  19.577   4.742  0.00  0.00    -0.299 N 
HETATM    7  C   UNK N   1      26.141  20.403   5.705  0.00  0.00     0.190 A 
HETATM    8  N   UNK N   1      27.390  20.014   6.101  0.00  0.00    -0.350 N 
HETATM    9  C   UNK N   1      27.664  18.920   5.354  0.00  0.00     0.063 A 
ATOM     10  HN  UNK N   1      27.986  20.452   6.805  1.00  0.00     0.166 HD
HETATM   11  C   UNK N   1      28.792  18.100   5.370  0.00  0.00     0.071 A 
HETATM   12  C   UNK N   1      26.625  18.666   4.543  0.00  0.00     0.070 A 
HETATM   13  C   UNK N   1      28.823  16.969   4.507  0.00  0.00     0.103 A 
HETATM   14  C   UNK N   1      27.711  16.725   3.616  0.00  0.00     0.103 A 
HETATM   15  C   UNK N   1      26.620  17.588   3.663  0.00  0.00     0.072 A 
BRANCH  13  16
HETATM   16  O   UNK N   1      29.897  16.152   4.592  0.00  0.00    -0.353 OA
HETATM   17  C   UNK N   1      29.893  15.008   5.357  0.00  0.00     0.210 C 
ENDBRANCH  13  16
BRANCH  14  18
HETATM   18  O   UNK N   1      27.630  15.719   2.704  0.00  0.00    -0.353 OA
HETATM   19  C   UNK N   1      26.530  15.366   1.963  0.00  0.00     0.210 C 
ENDBRANCH  14  18
ENDBRANCH   1   6
BRANCH   4  20
HETATM   20  C   UNK N   1      21.219  20.211   1.732  0.00  0.00     0.259 C 
HETATM   21  O   UNK N   1      21.500  20.830   0.719  0.00  0.00    -0.267 OA
HETATM   22  N   UNK N   1      19.936  19.878   1.974  0.00  0.00    -0.365 N 
HETATM   23  H   UNK N   1      19.686  19.464   2.832  0.00  0.00     0.159 HD
HETATM   24  H   UNK N   1      19.246  20.048   1.292  0.00  0.00     0.159 HD
ENDBRANCH   4  20
BRANCH   3  25
HETATM   25  O   UNK N   1      21.045  18.246   4.116  0.00  0.00    -0.340 OA
BRANCH  25  26
HETATM   26  C   UNK N   1      21.123  16.878   4.403  0.00  0.00     0.159 C 
HETATM   27  C   UNK N   1      19.813  16.405   5.038  0.00  0.00     0.045 C 
BRANCH  26  28
HETATM   28  C   UNK N   1      21.416  16.033   3.196  0.00  0.00    -0.008 A 
HETATM   29  C   UNK N   1      20.525  16.025   2.115  0.00  0.00     0.011 A 
HETATM   30  C   UNK N   1      20.790  15.244   0.988  0.00  0.00     0.001 A 
HETATM   31  C   UNK N   1      21.951  14.472   0.929  0.00  0.00     0.002 A 
HETATM   32  C   UNK N   1      22.853  14.479   1.994  0.00  0.00     0.024 A 
HETATM   33  C   UNK N   1      22.597  15.251   3.128  0.00  0.00     0.042 A 
HETATM   34 Cl   UNK N   1      23.789  15.237   4.427  0.00  0.00    -0.084 Cl
ENDBRANCH  26  28
ENDBRANCH  25  26
ENDBRANCH   3  25
TORSDOF 7
ENDMDL
MODEL 7
REMARK VINA RESULT:      -6.8     13.020     16.636
REMARK  7 active torsions:
REMARK  status: ('A' for Active; 'I' for Inactive)
REMARK    1  A    between atoms: O_2  and  C_3 
REMARK    2  A    between atoms: N_9  and  C_10 
REMARK    3  A    between atoms: C_12  and  O_13 
REMARK    4  A    between atoms: O_13  and  C_14 
REMARK    5  A    between atoms: C_14  and  C_16 
REMARK    6  A    between atoms: C_23  and  C_25 
REMARK       I    between atoms: C_25  and  N_27 
REMARK    7  A    between atoms: C_30  and  O_31 
ROOT
HETATM    1  C   UNK N   1      36.218  13.838  10.793  0.00  0.00     0.085 A 
HETATM    2  C   UNK N   1      35.875  13.155  11.937  0.00  0.00     0.076 A 
HETATM    3  C   UNK N   1      36.397  11.859  12.036  0.00  0.00     0.095 A 
HETATM    4  C   UNK N   1      37.191  11.499  10.935  0.00  0.00     0.107 A 
HETATM    5  S   UNK N   1      37.189  12.827   9.894  0.00  0.00    -0.064 SA
ENDROOT
BRANCH   1   6
HETATM    6  N   UNK N   1      35.706  15.154  10.528  0.00  0.00    -0.299 N 
HETATM    7  C   UNK N   1      35.537  16.223  11.346  0.00  0.00     0.190 A 
HETATM    8  N   UNK N   1      35.044  17.293  10.653  0.00  0.00    -0.350 N 
HETATM    9  C   UNK N   1      34.916  16.851   9.381  0.00  0.00     0.063 A 
ATOM     10  HN  UNK N   1      34.820  18.220  11.015  1.00  0.00     0.166 HD
HETATM   11  C   UNK N   1      34.487  17.539   8.247  0.00  0.00     0.071 A 
HETATM   12  C   UNK N   1      35.313  15.571   9.315  0.00  0.00     0.070 A 
HETATM   13  C   UNK N   1      34.483  16.857   6.998  0.00  0.00     0.103 A 
HETATM   14  C   UNK N   1      34.883  15.468   6.947  0.00  0.00     0.103 A 
HETATM   15  C   UNK N   1      35.302  14.854   8.122  0.00  0.00     0.072 A 
BRANCH  13  16
HETATM   16  O   UNK N   1      34.128  17.566   5.903  0.00  0.00    -0.353 OA
HETATM   17  C   UNK N   1      32.897  17.430   5.305  0.00  0.00     0.210 C 
ENDBRANCH  13  16
BRANCH  14  18
HETATM   18  O   UNK N   1      34.876  14.680   5.837  0.00  0.00    -0.353 OA
HETATM   19  C   UNK N   1      35.964  14.104   5.231  0.00  0.00     0.210 C 
ENDBRANCH  14  18
ENDBRANCH   1   6
BRANCH   4  20
HETATM   20  C   UNK N   1      37.875  10.210  10.725  0.00  0.00     0.259 C 
HETATM   21  O   UNK N   1      38.892  10.159  10.053  0.00  0.00    -0.267 OA
HETATM   22  N   UNK N   1      37.379   9.080  11.267  0.00  0.00    -0.365 N 
HETATM   23  H   UNK N   1      36.509   9.095  11.729  0.00  0.00     0.159 HD
HETATM   24  H   UNK N   1      37.886   8.239  11.200  0.00  0.00     0.159 HD
ENDBRANCH   4  20
BRANCH   3  25
HETATM   25  O   UNK N   1      36.116  11.081  13.118  0.00  0.00    -0.340 OA
BRANCH  25  26
HETATM   26  C   UNK N   1      34.927  11.262  13.832  0.00  0.00     0.159 C 
HETATM   27  C   UNK N   1      33.832  10.361  13.255  0.00  0.00     0.045 C 
BRANCH  26  28
HETATM   28  C   UNK N   1      35.067  10.982  15.302  0.00  0.00    -0.008 A 
HETATM   29  C   UNK N   1      34.877   9.682  15.788  0.00  0.00     0.011 A 
HETATM   30  C   UNK N   1      35.008   9.412  17.151  0.00  0.00     0.001 A 
HETATM   31  C   UNK N   1      35.338  10.438  18.039  0.00  0.00     0.002 A 
HETATM   32  C   UNK N   1      35.541  11.735  17.568  0.00  0.00     0.024 A 
HETATM   33  C   UNK N   1      35.408  12.019  16.207  0.00  0.00     0.042 A 
HETATM   34 Cl   UNK N   1      35.704  13.672  15.672  0.00  0.00    -0.084 Cl
ENDBRANCH  26  28
ENDBRANCH  25  26
ENDBRANCH   3  25
TORSDOF 7
ENDMDL
MODEL 8
REMARK VINA RESULT:      -6.7     10.648     13.283
REMARK  7 active torsions:
REMARK  status: ('A' for Active; 'I' for Inactive)
REMARK    1  A    between atoms: O_2  and  C_3 
REMARK    2  A    between atoms: N_9  and  C_10 
REMARK    3  A    between atoms: C_12  and  O_13 
REMARK    4  A    between atoms: O_13  and  C_14 
REMARK    5  A    between atoms: C_14  and  C_16 
REMARK    6  A    between atoms: C_23  and  C_25 
REMARK       I    between atoms: C_25  and  N_27 
REMARK    7  A    between atoms: C_30  and  O_31 
ROOT
HETATM    1  C   UNK N   1      35.072  14.659  10.232  0.00  0.00     0.085 A 
HETATM    2  C   UNK N   1      33.793  15.081   9.955  0.00  0.00     0.076 A 
HETATM    3  C   UNK N   1      33.511  15.275   8.597  0.00  0.00     0.095 A 
HETATM    4  C   UNK N   1      34.603  14.990   7.761  0.00  0.00     0.107 A 
HETATM    5  S   UNK N   1      35.865  14.514   8.775  0.00  0.00    -0.064 SA
ENDROOT
BRANCH   1   6
HETATM    6  N   UNK N   1      35.520  14.476  11.585  0.00  0.00    -0.299 N 
HETATM    7  C   UNK N   1      36.181  15.313  12.424  0.00  0.00     0.190 A 
HETATM    8  N   UNK N   1      36.377  14.726  13.643  0.00  0.00    -0.350 N 
HETATM    9  C   UNK N   1      35.814  13.501  13.530  0.00  0.00     0.063 A 
ATOM     10  HN  UNK N   1      36.845  15.124  14.458  1.00  0.00     0.166 HD
HETATM   11  C   UNK N   1      35.697  12.493  14.486  0.00  0.00     0.071 A 
HETATM   12  C   UNK N   1      35.305  13.359  12.297  0.00  0.00     0.070 A 
HETATM   13  C   UNK N   1      35.013  11.296  14.133  0.00  0.00     0.103 A 
HETATM   14  C   UNK N   1      34.498  11.143  12.790  0.00  0.00     0.103 A 
HETATM   15  C   UNK N   1      34.652  12.197  11.896  0.00  0.00     0.072 A 
BRANCH  13  16
HETATM   16  O   UNK N   1      34.853  10.363  15.097  0.00  0.00    -0.353 OA
HETATM   17  C   UNK N   1      35.768   9.357  15.308  0.00  0.00     0.210 C 
ENDBRANCH  13  16
BRANCH  14  18
HETATM   18  O   UNK N   1      33.875  10.037  12.300  0.00  0.00    -0.353 OA
HETATM   19  C   UNK N   1      34.467   8.970  11.672  0.00  0.00     0.210 C 
ENDBRANCH  14  18
ENDBRANCH   1   6
BRANCH   4  20
HETATM   20  C   UNK N   1      34.641  15.100   6.292  0.00  0.00     0.259 C 
HETATM   21  O   UNK N   1      35.682  15.393   5.726  0.00  0.00    -0.267 OA
HETATM   22  N   UNK N   1      33.527  14.888   5.564  0.00  0.00    -0.365 N 
HETATM   23  H   UNK N   1      32.663  14.746   6.015  0.00  0.00     0.159 HD
HETATM   24  H   UNK N   1      33.576  14.874   4.581  0.00  0.00     0.159 HD
ENDBRANCH   4  20
BRANCH   3  25
HETATM   25  O   UNK N   1      32.281  15.705   8.200  0.00  0.00    -0.340 OA
BRANCH  25  26
HETATM   26  C   UNK N   1      31.858  17.007   8.488  0.00  0.00     0.159 C 
HETATM   27  C   UNK N   1      32.983  17.999   8.182  0.00  0.00     0.045 C 
BRANCH  26  28
HETATM   28  C   UNK N   1      30.627  17.414   7.728  0.00  0.00    -0.008 A 
HETATM   29  C   UNK N   1      30.452  16.994   6.403  0.00  0.00     0.011 A 
HETATM   30  C   UNK N   1      29.310  17.365   5.691  0.00  0.00     0.001 A 
HETATM   31  C   UNK N   1      28.331  18.153   6.298  0.00  0.00     0.002 A 
HETATM   32  C   UNK N   1      28.487  18.570   7.621  0.00  0.00     0.024 A 
HETATM   33  C   UNK N   1      29.627  18.209   8.343  0.00  0.00     0.042 A 
HETATM   34 Cl   UNK N   1      29.751  18.746  10.017  0.00  0.00    -0.084 Cl
ENDBRANCH  26  28
ENDBRANCH  25  26
ENDBRANCH   3  25
TORSDOF 7
ENDMDL
MODEL 9
REMARK VINA RESULT:      -6.6      2.782      7.876
REMARK  7 active torsions:
REMARK  status: ('A' for Active; 'I' for Inactive)
REMARK    1  A    between atoms: O_2  and  C_3 
REMARK    2  A    between atoms: N_9  and  C_10 
REMARK    3  A    between atoms: C_12  and  O_13 
REMARK    4  A    between atoms: O_13  and  C_14 
REMARK    5  A    between atoms: C_14  and  C_16 
REMARK    6  A    between atoms: C_23  and  C_25 
REMARK       I    between atoms: C_25  and  N_27 
REMARK    7  A    between atoms: C_30  and  O_31 
ROOT
HETATM    1  C   UNK N   1      24.251  15.769   5.065  0.00  0.00     0.085 A 
HETATM    2  C   UNK N   1      23.275  15.598   6.019  0.00  0.00     0.076 A 
HETATM    3  C   UNK N   1      22.973  14.266   6.331  0.00  0.00     0.095 A 
HETATM    4  C   UNK N   1      23.743  13.342   5.604  0.00  0.00     0.107 A 
HETATM    5  S   UNK N   1      24.757  14.250   4.607  0.00  0.00    -0.064 SA
ENDROOT
BRANCH   1   6
HETATM    6  N   UNK N   1      24.621  17.078   4.604  0.00  0.00    -0.299 N 
HETATM    7  C   UNK N   1      25.837  17.666   4.479  0.00  0.00     0.190 A 
HETATM    8  N   UNK N   1      25.719  18.926   3.962  0.00  0.00    -0.350 N 
HETATM    9  C   UNK N   1      24.391  19.095   3.768  0.00  0.00     0.063 A 
ATOM     10  HN  UNK N   1      26.467  19.592   3.765  1.00  0.00     0.166 HD
HETATM   11  C   UNK N   1      23.710  20.186   3.230  0.00  0.00     0.071 A 
HETATM   12  C   UNK N   1      23.741  17.987   4.155  0.00  0.00     0.070 A 
HETATM   13  C   UNK N   1      22.296  20.104   3.088  0.00  0.00     0.103 A 
HETATM   14  C   UNK N   1      21.606  18.916   3.539  0.00  0.00     0.103 A 
HETATM   15  C   UNK N   1      22.358  17.869   4.061  0.00  0.00     0.072 A 
BRANCH  13  16
HETATM   16  O   UNK N   1      21.669  21.147   2.501  0.00  0.00    -0.353 OA
HETATM   17  C   UNK N   1      21.009  21.027   1.299  0.00  0.00     0.210 C 
ENDBRANCH  13  16
BRANCH  14  18
HETATM   18  O   UNK N   1      20.259  18.723   3.515  0.00  0.00    -0.353 OA
HETATM   19  C   UNK N   1      19.552  17.969   2.613  0.00  0.00     0.210 C 
ENDBRANCH  14  18
ENDBRANCH   1   6
BRANCH   4  20
HETATM   20  C   UNK N   1      23.667  11.873   5.688  0.00  0.00     0.259 C 
HETATM   21  O   UNK N   1      23.954  11.303   6.728  0.00  0.00    -0.267 OA
HETATM   22  N   UNK N   1      23.288  11.149   4.616  0.00  0.00    -0.365 N 
HETATM   23  H   UNK N   1      23.147  11.590   3.747  0.00  0.00     0.159 HD
HETATM   24  H   UNK N   1      23.151  10.177   4.702  0.00  0.00     0.159 HD
ENDBRANCH   4  20
BRANCH   3  25
HETATM   25  O   UNK N   1      22.014  13.971   7.251  0.00  0.00    -0.340 OA
BRANCH  25  26
HETATM   26  C   UNK N   1      22.036  14.570   8.515  0.00  0.00     0.159 C 
HETATM   27  C   UNK N   1      20.785  15.432   8.703  0.00  0.00     0.045 C 
BRANCH  26  28
HETATM   28  C   UNK N   1      22.122  13.580   9.642  0.00  0.00    -0.008 A 
HETATM   29  C   UNK N   1      20.957  13.169  10.303  0.00  0.00     0.011 A 
HETATM   30  C   UNK N   1      21.028  12.247  11.349  0.00  0.00     0.001 A 
HETATM   31  C   UNK N   1      22.261  11.722  11.738  0.00  0.00     0.002 A 
HETATM   32  C   UNK N   1      23.428  12.113  11.080  0.00  0.00     0.024 A 
HETATM   33  C   UNK N   1      23.372  13.038  10.036  0.00  0.00     0.042 A 
HETATM   34 Cl   UNK N   1      24.878  13.471   9.230  0.00  0.00    -0.084 Cl
ENDBRANCH  26  28
ENDBRANCH  25  26
ENDBRANCH   3  25
TORSDOF 7
ENDMDL
