MODEL 1
REMARK VINA RESULT:      -6.3      0.000      0.000
REMARK  5 active torsions:
REMARK  status: ('A' for Active; 'I' for Inactive)
REMARK    1  A    between atoms: N_1  and  S_2 
REMARK    2  A    between atoms: S_2  and  C_5 
REMARK    3  A    between atoms: C_8  and  N_11 
REMARK       I    between atoms: N_11  and  C_12 
REMARK    4  A    between atoms: C_12  and  C_14 
REMARK    5  A    between atoms: C_19  and  S_20 
ROOT
HETATM    1  C   UNK N   1      35.416  14.572  11.399  0.00  0.00     0.079 A 
HETATM    2  C   UNK N   1      34.870  13.307  11.635  0.00  0.00     0.027 A 
HETATM    3  C   UNK N   1      35.019  12.706  12.888  0.00  0.00     0.031 A 
HETATM    4  C   UNK N   1      35.696  13.382  13.918  0.00  0.00     0.035 A 
HETATM    5  C   UNK N   1      36.252  14.637  13.667  0.00  0.00     0.031 A 
HETATM    6  C   UNK N   1      36.097  15.240  12.419  0.00  0.00     0.027 A 
ENDROOT
BRANCH   4   7
HETATM    7  N   UNK N   1      35.880  12.802  15.203  0.00  0.00    -0.323 N 
HETATM    8  C   UNK N   1      34.981  12.771  16.214  0.00  0.00     0.257 C 
HETATM    9  O   UNK N   1      33.920  13.385  16.115  0.00  0.00    -0.267 OA
HETATM   10  H   UNK N   1      36.753  12.379  15.375  0.00  0.00     0.169 HD
BRANCH   8  11
HETATM   11  C   UNK N   1      35.254  11.995  17.459  0.00  0.00     0.048 A 
HETATM   12  C   UNK N   1      35.302  12.699  18.673  0.00  0.00     0.018 A 
HETATM   13  C   UNK N   1      35.523  12.041  19.882  0.00  0.00     0.001 A 
HETATM   14  C   UNK N   1      35.696  10.659  19.901  0.00  0.00     0.001 A 
HETATM   15  C   UNK N   1      35.656   9.937  18.711  0.00  0.00     0.019 A 
HETATM   16  C   UNK N   1      35.439  10.578  17.487  0.00  0.00     0.013 A 
BRANCH  16  17
HETATM   17  S   UNK N   1      35.396   9.532  16.027  0.00  0.00    -0.142 SA
HETATM   18  H   UNK N   1      34.871   8.281  16.102  0.00  0.00     0.107 HD
ENDBRANCH  16  17
ENDBRANCH   8  11
ENDBRANCH   4   7
BRANCH   1  19
HETATM   19  S   UNK N   1      34.993  15.463   9.914  0.00  0.00     0.256 S 
HETATM   20  O   UNK N   1      35.664  15.040   8.596  0.00  0.00    -0.201 OA
HETATM   21  O   UNK N   1      35.781  16.750  10.146  0.00  0.00    -0.201 OA
BRANCH  19  22
HETATM   22  N   UNK N   1      33.414  16.168   9.556  0.00  0.00    -0.324 N 
HETATM   23  H   UNK N   1      32.709  16.517  10.207  0.00  0.00     0.169 HD
HETATM   24  H   UNK N   1      33.174  16.236   8.568  0.00  0.00     0.169 HD
ENDBRANCH  19  22
ENDBRANCH   1  19
TORSDOF 5
ENDMDL
MODEL 2
REMARK VINA RESULT:      -6.3     14.294     16.070
REMARK  5 active torsions:
REMARK  status: ('A' for Active; 'I' for Inactive)
REMARK    1  A    between atoms: N_1  and  S_2 
REMARK    2  A    between atoms: S_2  and  C_5 
REMARK    3  A    between atoms: C_8  and  N_11 
REMARK       I    between atoms: N_11  and  C_12 
REMARK    4  A    between atoms: C_12  and  C_14 
REMARK    5  A    between atoms: C_19  and  S_20 
ROOT
HETATM    1  C   UNK N   1      21.592  18.628   3.934  0.00  0.00     0.079 A 
HETATM    2  C   UNK N   1      20.454  17.883   4.255  0.00  0.00     0.027 A 
HETATM    3  C   UNK N   1      20.483  16.993   5.333  0.00  0.00     0.031 A 
HETATM    4  C   UNK N   1      21.648  16.864   6.109  0.00  0.00     0.035 A 
HETATM    5  C   UNK N   1      22.784  17.600   5.770  0.00  0.00     0.031 A 
HETATM    6  C   UNK N   1      22.753  18.494   4.699  0.00  0.00     0.027 A 
ENDROOT
BRANCH   4   7
HETATM    7  N   UNK N   1      21.724  15.963   7.205  0.00  0.00    -0.323 N 
HETATM    8  C   UNK N   1      22.008  14.641   7.149  0.00  0.00     0.257 C 
HETATM    9  O   UNK N   1      22.110  14.077   6.061  0.00  0.00    -0.267 OA
HETATM   10  H   UNK N   1      21.553  16.340   8.099  0.00  0.00     0.169 HD
BRANCH   8  11
HETATM   11  C   UNK N   1      22.203  13.845   8.397  0.00  0.00     0.048 A 
HETATM   12  C   UNK N   1      21.073  13.580   9.188  0.00  0.00     0.018 A 
HETATM   13  C   UNK N   1      21.170  12.819  10.353  0.00  0.00     0.001 A 
HETATM   14  C   UNK N   1      22.402  12.303  10.748  0.00  0.00     0.001 A 
HETATM   15  C   UNK N   1      23.538  12.554   9.983  0.00  0.00     0.019 A 
HETATM   16  C   UNK N   1      23.464  13.317   8.814  0.00  0.00     0.013 A 
BRANCH  16  17
HETATM   17  S   UNK N   1      24.998  13.557   7.910  0.00  0.00    -0.142 SA
HETATM   18  H   UNK N   1      25.177  12.959   6.702  0.00  0.00     0.107 HD
ENDBRANCH  16  17
ENDBRANCH   8  11
ENDBRANCH   4   7
BRANCH   1  19
HETATM   19  S   UNK N   1      21.483  19.961   2.755  0.00  0.00     0.256 S 
HETATM   20  O   UNK N   1      22.647  20.962   2.678  0.00  0.00    -0.201 OA
HETATM   21  O   UNK N   1      20.478  20.862   3.470  0.00  0.00    -0.201 OA
BRANCH  19  22
HETATM   22  N   UNK N   1      20.694  19.871   1.178  0.00  0.00    -0.324 N 
HETATM   23  H   UNK N   1      19.728  20.092   0.933  0.00  0.00     0.169 HD
HETATM   24  H   UNK N   1      21.283  19.555   0.408  0.00  0.00     0.169 HD
ENDBRANCH  19  22
ENDBRANCH   1  19
TORSDOF 5
ENDMDL
MODEL 3
REMARK VINA RESULT:      -6.3     12.737     15.467
REMARK  5 active torsions:
REMARK  status: ('A' for Active; 'I' for Inactive)
REMARK    1  A    between atoms: N_1  and  S_2 
REMARK    2  A    between atoms: S_2  and  C_5 
REMARK    3  A    between atoms: C_8  and  N_11 
REMARK       I    between atoms: N_11  and  C_12 
REMARK    4  A    between atoms: C_12  and  C_14 
REMARK    5  A    between atoms: C_19  and  S_20 
ROOT
HETATM    1  C   UNK N   1      22.378  19.472   3.351  0.00  0.00     0.079 A 
HETATM    2  C   UNK N   1      22.323  18.459   4.312  0.00  0.00     0.027 A 
HETATM    3  C   UNK N   1      23.483  18.079   4.993  0.00  0.00     0.031 A 
HETATM    4  C   UNK N   1      24.701  18.732   4.730  0.00  0.00     0.035 A 
HETATM    5  C   UNK N   1      24.748  19.731   3.757  0.00  0.00     0.031 A 
HETATM    6  C   UNK N   1      23.589  20.114   3.082  0.00  0.00     0.027 A 
ENDROOT
BRANCH   4   7
HETATM    7  N   UNK N   1      25.905  18.369   5.392  0.00  0.00    -0.323 N 
HETATM    8  C   UNK N   1      26.870  19.209   5.835  0.00  0.00     0.257 C 
HETATM    9  O   UNK N   1      26.812  20.409   5.572  0.00  0.00    -0.267 OA
HETATM   10  H   UNK N   1      26.053  17.407   5.543  0.00  0.00     0.169 HD
BRANCH   8  11
HETATM   11  C   UNK N   1      28.013  18.700   6.649  0.00  0.00     0.048 A 
HETATM   12  C   UNK N   1      28.067  19.068   8.003  0.00  0.00     0.018 A 
HETATM   13  C   UNK N   1      29.088  18.609   8.836  0.00  0.00     0.001 A 
HETATM   14  C   UNK N   1      30.075  17.768   8.329  0.00  0.00     0.001 A 
HETATM   15  C   UNK N   1      30.047  17.391   6.989  0.00  0.00     0.019 A 
HETATM   16  C   UNK N   1      29.034  17.842   6.136  0.00  0.00     0.013 A 
BRANCH  16  17
HETATM   17  S   UNK N   1      29.102  17.273   4.433  0.00  0.00    -0.142 SA
HETATM   18  H   UNK N   1      28.125  16.461   3.947  0.00  0.00     0.107 HD
ENDBRANCH  16  17
ENDBRANCH   8  11
ENDBRANCH   4   7
BRANCH   1  19
HETATM   19  S   UNK N   1      20.871  20.155   2.687  0.00  0.00     0.256 S 
HETATM   20  O   UNK N   1      20.973  21.368   1.747  0.00  0.00    -0.201 OA
HETATM   21  O   UNK N   1      20.349  20.888   3.921  0.00  0.00    -0.201 OA
BRANCH  19  22
HETATM   22  N   UNK N   1      19.420  19.233   2.282  0.00  0.00    -0.324 N 
HETATM   23  H   UNK N   1      18.679  19.467   1.621  0.00  0.00     0.169 HD
HETATM   24  H   UNK N   1      19.308  18.347   2.775  0.00  0.00     0.169 HD
ENDBRANCH  19  22
ENDBRANCH   1  19
TORSDOF 5
ENDMDL
MODEL 4
REMARK VINA RESULT:      -6.3      2.909      3.770
REMARK  5 active torsions:
REMARK  status: ('A' for Active; 'I' for Inactive)
REMARK    1  A    between atoms: N_1  and  S_2 
REMARK    2  A    between atoms: S_2  and  C_5 
REMARK    3  A    between atoms: C_8  and  N_11 
REMARK       I    between atoms: N_11  and  C_12 
REMARK    4  A    between atoms: C_12  and  C_14 
REMARK    5  A    between atoms: C_19  and  S_20 
ROOT
HETATM    1  C   UNK N   1      34.569  16.512   9.250  0.00  0.00     0.079 A 
HETATM    2  C   UNK N   1      33.829  15.334   9.108  0.00  0.00     0.027 A 
HETATM    3  C   UNK N   1      33.818  14.389  10.138  0.00  0.00     0.031 A 
HETATM    4  C   UNK N   1      34.530  14.632  11.326  0.00  0.00     0.035 A 
HETATM    5  C   UNK N   1      35.278  15.803  11.451  0.00  0.00     0.031 A 
HETATM    6  C   UNK N   1      35.284  16.749  10.426  0.00  0.00     0.027 A 
ENDROOT
BRANCH   4   7
HETATM    7  N   UNK N   1      34.554  13.693  12.392  0.00  0.00    -0.323 N 
HETATM    8  C   UNK N   1      35.482  12.732  12.605  0.00  0.00     0.257 C 
HETATM    9  O   UNK N   1      36.359  12.525  11.768  0.00  0.00    -0.267 OA
HETATM   10  H   UNK N   1      33.817  13.747  13.044  0.00  0.00     0.169 HD
BRANCH   8  11
HETATM   11  C   UNK N   1      35.465  11.912  13.852  0.00  0.00     0.048 A 
HETATM   12  C   UNK N   1      34.890  10.632  13.786  0.00  0.00     0.018 A 
HETATM   13  C   UNK N   1      34.862   9.794  14.900  0.00  0.00     0.001 A 
HETATM   14  C   UNK N   1      35.414  10.220  16.106  0.00  0.00     0.001 A 
HETATM   15  C   UNK N   1      35.987  11.486  16.200  0.00  0.00     0.019 A 
HETATM   16  C   UNK N   1      36.023  12.343  15.095  0.00  0.00     0.013 A 
BRANCH  16  17
HETATM   17  S   UNK N   1      36.803  13.943  15.342  0.00  0.00    -0.142 SA
HETATM   18  H   UNK N   1      36.067  15.081  15.239  0.00  0.00     0.107 HD
ENDBRANCH  16  17
ENDBRANCH   8  11
ENDBRANCH   4   7
BRANCH   1  19
HETATM   19  S   UNK N   1      34.366  17.839   8.078  0.00  0.00     0.256 S 
HETATM   20  O   UNK N   1      35.163  19.135   8.300  0.00  0.00    -0.201 OA
HETATM   21  O   UNK N   1      32.995  18.360   8.506  0.00  0.00    -0.201 OA
BRANCH  19  22
HETATM   22  N   UNK N   1      34.055  17.642   6.350  0.00  0.00    -0.324 N 
HETATM   23  H   UNK N   1      33.230  17.913   5.815  0.00  0.00     0.169 HD
HETATM   24  H   UNK N   1      34.801  17.197   5.816  0.00  0.00     0.169 HD
ENDBRANCH  19  22
ENDBRANCH   1  19
TORSDOF 5
ENDMDL
MODEL 5
REMARK VINA RESULT:      -6.1      9.133     12.793
REMARK  5 active torsions:
REMARK  status: ('A' for Active; 'I' for Inactive)
REMARK    1  A    between atoms: N_1  and  S_2 
REMARK    2  A    between atoms: S_2  and  C_5 
REMARK    3  A    between atoms: C_8  and  N_11 
REMARK       I    between atoms: N_11  and  C_12 
REMARK    4  A    between atoms: C_12  and  C_14 
REMARK    5  A    between atoms: C_19  and  S_20 
ROOT
HETATM    1  C   UNK N   1      32.604  17.705   7.721  0.00  0.00     0.079 A 
HETATM    2  C   UNK N   1      31.442  17.879   8.479  0.00  0.00     0.027 A 
HETATM    3  C   UNK N   1      30.196  17.564   7.928  0.00  0.00     0.031 A 
HETATM    4  C   UNK N   1      30.112  17.051   6.621  0.00  0.00     0.035 A 
HETATM    5  C   UNK N   1      31.277  16.897   5.868  0.00  0.00     0.031 A 
HETATM    6  C   UNK N   1      32.520  17.204   6.420  0.00  0.00     0.027 A 
ENDROOT
BRANCH   4   7
HETATM    7  N   UNK N   1      28.865  16.730   6.019  0.00  0.00    -0.323 N 
HETATM    8  C   UNK N   1      28.156  17.501   5.164  0.00  0.00     0.257 C 
HETATM    9  O   UNK N   1      28.515  18.654   4.929  0.00  0.00    -0.267 OA
HETATM   10  H   UNK N   1      28.478  15.854   6.250  0.00  0.00     0.169 HD
BRANCH   8  11
HETATM   11  C   UNK N   1      26.933  16.974   4.490  0.00  0.00     0.048 A 
HETATM   12  C   UNK N   1      25.685  17.410   4.963  0.00  0.00     0.018 A 
HETATM   13  C   UNK N   1      24.498  16.985   4.367  0.00  0.00     0.001 A 
HETATM   14  C   UNK N   1      24.537  16.115   3.279  0.00  0.00     0.001 A 
HETATM   15  C   UNK N   1      25.761  15.665   2.793  0.00  0.00     0.019 A 
HETATM   16  C   UNK N   1      26.963  16.076   3.378  0.00  0.00     0.013 A 
BRANCH  16  17
HETATM   17  S   UNK N   1      28.475  15.435   2.649  0.00  0.00    -0.142 SA
HETATM   18  H   UNK N   1      29.628  16.150   2.734  0.00  0.00     0.107 HD
ENDBRANCH  16  17
ENDBRANCH   8  11
ENDBRANCH   4   7
BRANCH   1  19
HETATM   19  S   UNK N   1      34.203  17.829   8.499  0.00  0.00     0.256 S 
HETATM   20  O   UNK N   1      35.012  19.121   8.297  0.00  0.00    -0.201 OA
HETATM   21  O   UNK N   1      35.016  16.926   7.574  0.00  0.00    -0.201 OA
BRANCH  19  22
HETATM   22  N   UNK N   1      34.647  17.106  10.048  0.00  0.00    -0.324 N 
HETATM   23  H   UNK N   1      35.536  16.689  10.325  0.00  0.00     0.169 HD
HETATM   24  H   UNK N   1      33.918  17.106  10.760  0.00  0.00     0.169 HD
ENDBRANCH  19  22
ENDBRANCH   1  19
TORSDOF 5
ENDMDL
MODEL 6
REMARK VINA RESULT:      -6.1      5.122     10.226
REMARK  5 active torsions:
REMARK  status: ('A' for Active; 'I' for Inactive)
REMARK    1  A    between atoms: N_1  and  S_2 
REMARK    2  A    between atoms: S_2  and  C_5 
REMARK    3  A    between atoms: C_8  and  N_11 
REMARK       I    between atoms: N_11  and  C_12 
REMARK    4  A    between atoms: C_12  and  C_14 
REMARK    5  A    between atoms: C_19  and  S_20 
ROOT
HETATM    1  C   UNK N   1      35.189  14.441  11.498  0.00  0.00     0.079 A 
HETATM    2  C   UNK N   1      34.754  13.478  10.583  0.00  0.00     0.027 A 
HETATM    3  C   UNK N   1      34.270  13.872   9.332  0.00  0.00     0.031 A 
HETATM    4  C   UNK N   1      34.241  15.234   8.984  0.00  0.00     0.035 A 
HETATM    5  C   UNK N   1      34.662  16.188   9.911  0.00  0.00     0.031 A 
HETATM    6  C   UNK N   1      35.152  15.795  11.156  0.00  0.00     0.027 A 
ENDROOT
BRANCH   4   7
HETATM    7  N   UNK N   1      33.745  15.677   7.728  0.00  0.00    -0.323 N 
HETATM    8  C   UNK N   1      34.444  15.785   6.574  0.00  0.00     0.257 C 
HETATM    9  O   UNK N   1      35.660  15.601   6.569  0.00  0.00    -0.267 OA
HETATM   10  H   UNK N   1      32.795  15.934   7.695  0.00  0.00     0.169 HD
BRANCH   8  11
HETATM   11  C   UNK N   1      33.759  16.122   5.292  0.00  0.00     0.048 A 
HETATM   12  C   UNK N   1      33.142  17.380   5.190  0.00  0.00     0.018 A 
HETATM   13  C   UNK N   1      32.506  17.780   4.015  0.00  0.00     0.001 A 
HETATM   14  C   UNK N   1      32.480  16.929   2.913  0.00  0.00     0.001 A 
HETATM   15  C   UNK N   1      33.081  15.675   2.988  0.00  0.00     0.019 A 
HETATM   16  C   UNK N   1      33.720  15.253   4.158  0.00  0.00     0.013 A 
BRANCH  16  17
HETATM   17  S   UNK N   1      34.469  13.620   4.123  0.00  0.00    -0.142 SA
HETATM   18  H   UNK N   1      34.178  12.717   5.096  0.00  0.00     0.107 HD
ENDBRANCH  16  17
ENDBRANCH   8  11
ENDBRANCH   4   7
BRANCH   1  19
HETATM   19  S   UNK N   1      36.065  13.944  12.968  0.00  0.00     0.256 S 
HETATM   20  O   UNK N   1      36.838  12.615  12.940  0.00  0.00    -0.201 OA
HETATM   21  O   UNK N   1      34.891  13.485  13.831  0.00  0.00    -0.201 OA
BRANCH  19  22
HETATM   22  N   UNK N   1      36.840  15.037  14.119  0.00  0.00    -0.324 N 
HETATM   23  H   UNK N   1      37.636  14.859  14.731  0.00  0.00     0.169 HD
HETATM   24  H   UNK N   1      36.437  15.972  14.179  0.00  0.00     0.169 HD
ENDBRANCH  19  22
ENDBRANCH   1  19
TORSDOF 5
ENDMDL
MODEL 7
REMARK VINA RESULT:      -6.1     11.989     15.024
REMARK  5 active torsions:
REMARK  status: ('A' for Active; 'I' for Inactive)
REMARK    1  A    between atoms: N_1  and  S_2 
REMARK    2  A    between atoms: S_2  and  C_5 
REMARK    3  A    between atoms: C_8  and  N_11 
REMARK       I    between atoms: N_11  and  C_12 
REMARK    4  A    between atoms: C_12  and  C_14 
REMARK    5  A    between atoms: C_19  and  S_20 
ROOT
HETATM    1  C   UNK N   1      23.579  19.775   3.189  0.00  0.00     0.079 A 
HETATM    2  C   UNK N   1      23.567  18.784   4.174  0.00  0.00     0.027 A 
HETATM    3  C   UNK N   1      24.758  18.410   4.804  0.00  0.00     0.031 A 
HETATM    4  C   UNK N   1      25.965  19.047   4.464  0.00  0.00     0.035 A 
HETATM    5  C   UNK N   1      25.968  20.023   3.467  0.00  0.00     0.031 A 
HETATM    6  C   UNK N   1      24.779  20.401   2.844  0.00  0.00     0.027 A 
ENDROOT
BRANCH   4   7
HETATM    7  N   UNK N   1      27.199  18.689   5.070  0.00  0.00    -0.323 N 
HETATM    8  C   UNK N   1      27.970  17.618   4.770  0.00  0.00     0.257 C 
HETATM    9  O   UNK N   1      27.564  16.769   3.978  0.00  0.00    -0.267 OA
HETATM   10  H   UNK N   1      27.528  19.283   5.784  0.00  0.00     0.169 HD
BRANCH   8  11
HETATM   11  C   UNK N   1      29.319  17.448   5.384  0.00  0.00     0.048 A 
HETATM   12  C   UNK N   1      30.431  17.424   4.528  0.00  0.00     0.018 A 
HETATM   13  C   UNK N   1      31.727  17.298   5.028  0.00  0.00     0.001 A 
HETATM   14  C   UNK N   1      31.936  17.198   6.401  0.00  0.00     0.001 A 
HETATM   15  C   UNK N   1      30.850  17.216   7.274  0.00  0.00     0.019 A 
HETATM   16  C   UNK N   1      29.543  17.338   6.792  0.00  0.00     0.013 A 
BRANCH  16  17
HETATM   17  S   UNK N   1      28.231  17.363   8.020  0.00  0.00    -0.142 SA
HETATM   18  H   UNK N   1      27.216  16.462   7.949  0.00  0.00     0.107 HD
ENDBRANCH  16  17
ENDBRANCH   8  11
ENDBRANCH   4   7
BRANCH   1  19
HETATM   19  S   UNK N   1      22.045  20.455   2.589  0.00  0.00     0.256 S 
HETATM   20  O   UNK N   1      21.832  20.539   1.068  0.00  0.00    -0.201 OA
HETATM   21  O   UNK N   1      22.296  21.939   2.848  0.00  0.00    -0.201 OA
BRANCH  19  22
HETATM   22  N   UNK N   1      20.475  20.300   3.383  0.00  0.00    -0.324 N 
HETATM   23  H   UNK N   1      19.651  19.785   3.072  0.00  0.00     0.169 HD
HETATM   24  H   UNK N   1      20.380  20.791   4.271  0.00  0.00     0.169 HD
ENDBRANCH  19  22
ENDBRANCH   1  19
TORSDOF 5
ENDMDL
MODEL 8
REMARK VINA RESULT:      -6.0      1.887      2.178
REMARK  5 active torsions:
REMARK  status: ('A' for Active; 'I' for Inactive)
REMARK    1  A    between atoms: N_1  and  S_2 
REMARK    2  A    between atoms: S_2  and  C_5 
REMARK    3  A    between atoms: C_8  and  N_11 
REMARK       I    between atoms: N_11  and  C_12 
REMARK    4  A    between atoms: C_12  and  C_14 
REMARK    5  A    between atoms: C_19  and  S_20 
ROOT
HETATM    1  C   UNK N   1      36.687  13.760  10.391  0.00  0.00     0.079 A 
HETATM    2  C   UNK N   1      37.071  12.563  11.002  0.00  0.00     0.027 A 
HETATM    3  C   UNK N   1      36.944  12.414  12.387  0.00  0.00     0.031 A 
HETATM    4  C   UNK N   1      36.409  13.458  13.162  0.00  0.00     0.035 A 
HETATM    5  C   UNK N   1      36.044  14.655  12.544  0.00  0.00     0.031 A 
HETATM    6  C   UNK N   1      36.163  14.800  11.162  0.00  0.00     0.027 A 
ENDROOT
BRANCH   4   7
HETATM    7  N   UNK N   1      36.273  13.352  14.573  0.00  0.00    -0.323 N 
HETATM    8  C   UNK N   1      35.216  12.846  15.249  0.00  0.00     0.257 C 
HETATM    9  O   UNK N   1      34.192  12.530  14.647  0.00  0.00    -0.267 OA
HETATM   10  H   UNK N   1      37.027  13.683  15.114  0.00  0.00     0.169 HD
BRANCH   8  11
HETATM   11  C   UNK N   1      35.272  12.658  16.729  0.00  0.00     0.048 A 
HETATM   12  C   UNK N   1      35.269  13.808  17.536  0.00  0.00     0.018 A 
HETATM   13  C   UNK N   1      35.290  13.714  18.927  0.00  0.00     0.001 A 
HETATM   14  C   UNK N   1      35.310  12.464  19.541  0.00  0.00     0.001 A 
HETATM   15  C   UNK N   1      35.317  11.308  18.764  0.00  0.00     0.019 A 
HETATM   16  C   UNK N   1      35.300  11.380  17.367  0.00  0.00     0.013 A 
BRANCH  16  17
HETATM   17  S   UNK N   1      35.298   9.817  16.481  0.00  0.00    -0.142 SA
HETATM   18  H   UNK N   1      35.349   9.805  15.122  0.00  0.00     0.107 HD
ENDBRANCH  16  17
ENDBRANCH   8  11
ENDBRANCH   4   7
BRANCH   1  19
HETATM   19  S   UNK N   1      36.577  13.859   8.615  0.00  0.00     0.256 S 
HETATM   20  O   UNK N   1      35.561  14.837   8.002  0.00  0.00    -0.201 OA
HETATM   21  O   UNK N   1      35.821  12.563   8.326  0.00  0.00    -0.201 OA
BRANCH  19  22
HETATM   22  N   UNK N   1      37.923  13.646   7.492  0.00  0.00    -0.324 N 
HETATM   23  H   UNK N   1      38.000  13.957   6.523  0.00  0.00     0.169 HD
HETATM   24  H   UNK N   1      38.731  13.146   7.861  0.00  0.00     0.169 HD
ENDBRANCH  19  22
ENDBRANCH   1  19
TORSDOF 5
ENDMDL
MODEL 9
REMARK VINA RESULT:      -5.9      8.981     12.979
REMARK  5 active torsions:
REMARK  status: ('A' for Active; 'I' for Inactive)
REMARK    1  A    between atoms: N_1  and  S_2 
REMARK    2  A    between atoms: S_2  and  C_5 
REMARK    3  A    between atoms: C_8  and  N_11 
REMARK       I    between atoms: N_11  and  C_12 
REMARK    4  A    between atoms: C_12  and  C_14 
REMARK    5  A    between atoms: C_19  and  S_20 
ROOT
HETATM    1  C   UNK N   1      32.509  17.458   7.995  0.00  0.00     0.079 A 
HETATM    2  C   UNK N   1      32.294  16.942   6.714  0.00  0.00     0.027 A 
HETATM    3  C   UNK N   1      31.004  16.929   6.175  0.00  0.00     0.031 A 
HETATM    4  C   UNK N   1      29.927  17.457   6.909  0.00  0.00     0.035 A 
HETATM    5  C   UNK N   1      30.150  17.955   8.193  0.00  0.00     0.031 A 
HETATM    6  C   UNK N   1      31.438  17.974   8.729  0.00  0.00     0.027 A 
ENDROOT
BRANCH   4   7
HETATM    7  N   UNK N   1      28.599  17.453   6.402  0.00  0.00    -0.323 N 
HETATM    8  C   UNK N   1      28.168  18.026   5.254  0.00  0.00     0.257 C 
HETATM    9  O   UNK N   1      28.929  18.730   4.593  0.00  0.00    -0.267 OA
HETATM   10  H   UNK N   1      27.922  16.985   6.944  0.00  0.00     0.169 HD
BRANCH   8  11
HETATM   11  C   UNK N   1      26.773  17.814   4.769  0.00  0.00     0.048 A 
HETATM   12  C   UNK N   1      26.448  16.556   4.238  0.00  0.00     0.018 A 
HETATM   13  C   UNK N   1      25.158  16.272   3.790  0.00  0.00     0.001 A 
HETATM   14  C   UNK N   1      24.163  17.243   3.871  0.00  0.00     0.001 A 
HETATM   15  C   UNK N   1      24.459  18.501   4.391  0.00  0.00     0.019 A 
HETATM   16  C   UNK N   1      25.747  18.807   4.842  0.00  0.00     0.013 A 
BRANCH  16  17
HETATM   17  S   UNK N   1      25.997  20.459   5.503  0.00  0.00    -0.142 SA
HETATM   18  H   UNK N   1      25.908  21.541   4.684  0.00  0.00     0.107 HD
ENDBRANCH  16  17
ENDBRANCH   8  11
ENDBRANCH   4   7
BRANCH   1  19
HETATM   19  S   UNK N   1      34.170  17.740   8.576  0.00  0.00     0.256 S 
HETATM   20  O   UNK N   1      34.848  19.075   8.224  0.00  0.00    -0.201 OA
HETATM   21  O   UNK N   1      34.942  16.850   7.604  0.00  0.00    -0.201 OA
BRANCH  19  22
HETATM   22  N   UNK N   1      34.842  17.134  10.093  0.00  0.00    -0.324 N 
HETATM   23  H   UNK N   1      34.797  17.553  11.022  0.00  0.00     0.169 HD
HETATM   24  H   UNK N   1      35.341  16.248  10.031  0.00  0.00     0.169 HD
ENDBRANCH  19  22
ENDBRANCH   1  19
TORSDOF 5
ENDMDL
