REMARK  5 active torsions:
REMARK  status: ('A' for Active; 'I' for Inactive)
REMARK    1  A    between atoms: N_1  and  S_2 
REMARK    2  A    between atoms: S_2  and  C_5 
REMARK    3  A    between atoms: C_8  and  N_11 
REMARK       I    between atoms: N_11  and  C_12 
REMARK    4  A    between atoms: C_12  and  C_14 
REMARK    5  A    between atoms: C_19  and  S_20 
ROOT
HETATM    1  C   UNK N   1      -0.259   3.541   0.170  0.00  0.00     0.079 A 
HETATM    2  C   UNK N   1       0.905   2.895   0.596  0.00  0.00     0.027 A 
HETATM    3  C   UNK N   1       1.002   1.503   0.509  0.00  0.00     0.031 A 
HETATM    4  C   UNK N   1      -0.060   0.754  -0.028  0.00  0.00     0.035 A 
HETATM    5  C   UNK N   1      -1.224   1.408  -0.435  0.00  0.00     0.031 A 
HETATM    6  C   UNK N   1      -1.318   2.797  -0.355  0.00  0.00     0.027 A 
ENDROOT
BRANCH   4   7
HETATM    7  N   UNK N   1      -0.007  -0.663  -0.124  0.00  0.00    -0.323 N 
HETATM    8  C   UNK N   1       1.099  -1.439  -0.050  0.00  0.00     0.257 C 
HETATM    9  O   UNK N   1       2.214  -0.922  -0.007  0.00  0.00    -0.267 OA
HETATM   10  H   UNK N   1      -0.865  -1.128  -0.259  0.00  0.00     0.169 HD
BRANCH   8  11
HETATM   11  C   UNK N   1       0.990  -2.927  -0.016  0.00  0.00     0.048 A 
HETATM   12  C   UNK N   1       2.180  -3.670   0.045  0.00  0.00     0.018 A 
HETATM   13  C   UNK N   1       2.160  -5.063   0.109  0.00  0.00     0.001 A 
HETATM   14  C   UNK N   1       0.944  -5.742   0.118  0.00  0.00     0.001 A 
HETATM   15  C   UNK N   1      -0.251  -5.030   0.055  0.00  0.00     0.019 A 
HETATM   16  C   UNK N   1      -0.253  -3.633  -0.013  0.00  0.00     0.013 A 
BRANCH  16  17
HETATM   17  S   UNK N   1      -1.860  -2.832  -0.076  0.00  0.00    -0.142 SA
HETATM   18  H   UNK N   1      -1.943  -1.476  -0.123  0.00  0.00     0.107 HD
ENDBRANCH  16  17
ENDBRANCH   8  11
ENDBRANCH   4   7
BRANCH   1  19
HETATM   19  S   UNK N   1      -0.286   5.316   0.011  0.00  0.00     0.256 S 
HETATM   20  O   UNK N   1      -1.631   6.000  -0.286  0.00  0.00    -0.201 OA
HETATM   21  O   UNK N   1       0.336   5.465  -1.376  0.00  0.00    -0.201 OA
BRANCH  19  22
HETATM   22  N   UNK N   1       0.749   6.440   0.897  0.00  0.00    -0.324 N 
HETATM   23  H   UNK N   1       1.610   6.246   1.409  0.00  0.00     0.169 HD
HETATM   24  H   UNK N   1       0.445   7.413   0.897  0.00  0.00     0.169 HD
ENDBRANCH  19  22
ENDBRANCH   1  19
TORSDOF 5
