MODEL 1
REMARK VINA RESULT:      -6.6      0.000      0.000
REMARK  4 active torsions:
REMARK  status: ('A' for Active; 'I' for Inactive)
REMARK    1  A    between atoms: C_1  and  C_2 
REMARK    2  A    between atoms: C_1  and  C_7 
REMARK    3  A    between atoms: C_2  and  O_16 
REMARK    4  A    between atoms: C_4  and  C_12 
ROOT
HETATM    1  C   UNK N   1      35.522  12.769  15.612  0.00  0.00    -0.026 A 
HETATM    2  C   UNK N   1      34.767  12.087  14.641  0.00  0.00     0.013 A 
HETATM    3  C   UNK N   1      34.806  12.491  13.303  0.00  0.00     0.008 A 
HETATM    4  C   UNK N   1      35.610  13.570  12.919  0.00  0.00    -0.048 A 
HETATM    5  C   UNK N   1      36.382  14.236  13.876  0.00  0.00     0.008 A 
HETATM    6  C   UNK N   1      36.332  13.844  15.214  0.00  0.00     0.013 A 
ENDROOT
BRANCH   1   7
HETATM    7  C   UNK N   1      35.451  12.384  17.041  0.00  0.00    -0.026 A 
HETATM    8  C   UNK N   1      35.170  13.341  18.029  0.00  0.00     0.012 A 
HETATM    9  C   UNK N   1      35.122  12.972  19.377  0.00  0.00     0.001 A 
HETATM   10  C   UNK N   1      35.365  11.647  19.749  0.00  0.00     0.000 A 
HETATM   11  C   UNK N   1      35.648  10.688  18.774  0.00  0.00     0.001 A 
HETATM   12  C   UNK N   1      35.688  11.054  17.426  0.00  0.00     0.012 A 
ENDBRANCH   1   7
BRANCH   4  13
HETATM   13  C   UNK N   1      35.630  14.015  11.493  0.00  0.00     0.148 C 
BRANCH  13  14
HETATM   14  C   UNK N   1      34.704  15.174  11.277  0.00  0.00     0.143 C 
HETATM   15  O   UNK N   1      35.157  16.304  11.206  0.00  0.00    -0.650 OA
BRANCH  14  16
HETATM   16  O   UNK N   1      33.375  14.977  11.184  0.00  0.00    -0.776 OA
HETATM   17  H   UNK N   1      32.456  15.007  11.365  0.00  0.00     0.167 HD
ENDBRANCH  14  16
ENDBRANCH  13  14
ENDBRANCH   4  13
TORSDOF 4
ENDMDL
MODEL 2
REMARK VINA RESULT:      -6.5      0.139      1.218
REMARK  4 active torsions:
REMARK  status: ('A' for Active; 'I' for Inactive)
REMARK    1  A    between atoms: C_1  and  C_2 
REMARK    2  A    between atoms: C_1  and  C_7 
REMARK    3  A    between atoms: C_2  and  O_16 
REMARK    4  A    between atoms: C_4  and  C_12 
ROOT
HETATM    1  C   UNK N   1      35.487  12.812  15.728  0.00  0.00    -0.026 A 
HETATM    2  C   UNK N   1      36.311  13.887  15.348  0.00  0.00     0.013 A 
HETATM    3  C   UNK N   1      36.380  14.285  14.009  0.00  0.00     0.008 A 
HETATM    4  C   UNK N   1      35.617  13.624  13.040  0.00  0.00    -0.048 A 
HETATM    5  C   UNK N   1      34.778  12.570  13.416  0.00  0.00     0.008 A 
HETATM    6  C   UNK N   1      34.721  12.161  14.749  0.00  0.00     0.013 A 
ENDROOT
BRANCH   1   7
HETATM    7  C   UNK N   1      35.443  12.347  17.134  0.00  0.00    -0.026 A 
HETATM    8  C   UNK N   1      35.193  13.249  18.181  0.00  0.00     0.012 A 
HETATM    9  C   UNK N   1      35.171  12.805  19.507  0.00  0.00     0.001 A 
HETATM   10  C   UNK N   1      35.408  11.459  19.798  0.00  0.00     0.000 A 
HETATM   11  C   UNK N   1      35.661  10.554  18.765  0.00  0.00     0.001 A 
HETATM   12  C   UNK N   1      35.674  10.995  17.439  0.00  0.00     0.012 A 
ENDBRANCH   1   7
BRANCH   4  13
HETATM   13  C   UNK N   1      35.713  14.035  11.607  0.00  0.00     0.148 C 
BRANCH  13  14
HETATM   14  C   UNK N   1      34.787  15.176  11.310  0.00  0.00     0.143 C 
HETATM   15  O   UNK N   1      35.240  16.299  11.166  0.00  0.00    -0.650 OA
BRANCH  14  16
HETATM   16  O   UNK N   1      33.459  14.972  11.225  0.00  0.00    -0.776 OA
HETATM   17  H   UNK N   1      32.583  14.714  11.435  0.00  0.00     0.167 HD
ENDBRANCH  14  16
ENDBRANCH  13  14
ENDBRANCH   4  13
TORSDOF 4
ENDMDL
MODEL 3
REMARK VINA RESULT:      -6.1     20.514     23.704
REMARK  4 active torsions:
REMARK  status: ('A' for Active; 'I' for Inactive)
REMARK    1  A    between atoms: C_1  and  C_2 
REMARK    2  A    between atoms: C_1  and  C_7 
REMARK    3  A    between atoms: C_2  and  O_16 
REMARK    4  A    between atoms: C_4  and  C_12 
ROOT
HETATM    1  C   UNK N   1      27.912  24.205  -4.364  0.00  0.00    -0.026 A 
HETATM    2  C   UNK N   1      28.455  23.475  -5.436  0.00  0.00     0.013 A 
HETATM    3  C   UNK N   1      29.388  22.460  -5.199  0.00  0.00     0.008 A 
HETATM    4  C   UNK N   1      29.778  22.156  -3.890  0.00  0.00    -0.048 A 
HETATM    5  C   UNK N   1      29.222  22.864  -2.818  0.00  0.00     0.008 A 
HETATM    6  C   UNK N   1      28.304  23.886  -3.054  0.00  0.00     0.013 A 
ENDROOT
BRANCH   1   7
HETATM    7  C   UNK N   1      26.961  25.315  -4.604  0.00  0.00    -0.026 A 
HETATM    8  C   UNK N   1      26.770  26.318  -3.639  0.00  0.00     0.012 A 
HETATM    9  C   UNK N   1      25.857  27.353  -3.866  0.00  0.00     0.001 A 
HETATM   10  C   UNK N   1      25.121  27.389  -5.053  0.00  0.00     0.000 A 
HETATM   11  C   UNK N   1      25.301  26.395  -6.018  0.00  0.00     0.001 A 
HETATM   12  C   UNK N   1      26.220  25.366  -5.796  0.00  0.00     0.012 A 
ENDBRANCH   1   7
BRANCH   4  13
HETATM   13  C   UNK N   1      30.794  21.090  -3.643  0.00  0.00     0.148 C 
BRANCH  13  14
HETATM   14  C   UNK N   1      32.087  21.678  -3.165  0.00  0.00     0.143 C 
HETATM   15  O   UNK N   1      32.651  22.524  -3.838  0.00  0.00    -0.650 OA
BRANCH  14  16
HETATM   16  O   UNK N   1      32.642  21.258  -2.012  0.00  0.00    -0.776 OA
HETATM   17  H   UNK N   1      33.266  20.947  -1.385  0.00  0.00     0.167 HD
ENDBRANCH  14  16
ENDBRANCH  13  14
ENDBRANCH   4  13
TORSDOF 4
ENDMDL
MODEL 4
REMARK VINA RESULT:      -6.0      1.363      2.040
REMARK  4 active torsions:
REMARK  status: ('A' for Active; 'I' for Inactive)
REMARK    1  A    between atoms: C_1  and  C_2 
REMARK    2  A    between atoms: C_1  and  C_7 
REMARK    3  A    between atoms: C_2  and  O_16 
REMARK    4  A    between atoms: C_4  and  C_12 
ROOT
HETATM    1  C   UNK N   1      35.562  12.857  15.375  0.00  0.00    -0.026 A 
HETATM    2  C   UNK N   1      34.811  12.173  14.403  0.00  0.00     0.013 A 
HETATM    3  C   UNK N   1      34.819  12.602  13.072  0.00  0.00     0.008 A 
HETATM    4  C   UNK N   1      35.587  13.710  12.697  0.00  0.00    -0.048 A 
HETATM    5  C   UNK N   1      36.355  14.379  13.656  0.00  0.00     0.008 A 
HETATM    6  C   UNK N   1      36.335  13.962  14.986  0.00  0.00     0.013 A 
ENDROOT
BRANCH   1   7
HETATM    7  C   UNK N   1      35.524  12.444  16.798  0.00  0.00    -0.026 A 
HETATM    8  C   UNK N   1      35.806  11.119  17.168  0.00  0.00     0.012 A 
HETATM    9  C   UNK N   1      35.750  10.733  18.511  0.00  0.00     0.001 A 
HETATM   10  C   UNK N   1      35.402  11.664  19.493  0.00  0.00     0.000 A 
HETATM   11  C   UNK N   1      35.116  12.984  19.135  0.00  0.00     0.001 A 
HETATM   12  C   UNK N   1      35.180  13.372  17.794  0.00  0.00     0.012 A 
ENDBRANCH   1   7
BRANCH   4  13
HETATM   13  C   UNK N   1      35.573  14.181  11.280  0.00  0.00     0.148 C 
BRANCH  13  14
HETATM   14  C   UNK N   1      36.932  14.066  10.659  0.00  0.00     0.143 C 
HETATM   15  O   UNK N   1      37.403  12.964  10.435  0.00  0.00    -0.650 OA
BRANCH  14  16
HETATM   16  O   UNK N   1      37.645  15.172  10.370  0.00  0.00    -0.776 OA
HETATM   17  H   UNK N   1      38.302  15.741  10.019  0.00  0.00     0.167 HD
ENDBRANCH  14  16
ENDBRANCH  13  14
ENDBRANCH   4  13
TORSDOF 4
ENDMDL
MODEL 5
REMARK VINA RESULT:      -5.9     25.338     26.624
REMARK  4 active torsions:
REMARK  status: ('A' for Active; 'I' for Inactive)
REMARK    1  A    between atoms: C_1  and  C_2 
REMARK    2  A    between atoms: C_1  and  C_7 
REMARK    3  A    between atoms: C_2  and  O_16 
REMARK    4  A    between atoms: C_4  and  C_12 
ROOT
HETATM    1  C   UNK N   1      26.498  26.357  -5.779  0.00  0.00    -0.026 A 
HETATM    2  C   UNK N   1      26.895  25.964  -7.070  0.00  0.00     0.013 A 
HETATM    3  C   UNK N   1      26.737  24.638  -7.485  0.00  0.00     0.008 A 
HETATM    4  C   UNK N   1      26.171  23.695  -6.621  0.00  0.00    -0.048 A 
HETATM    5  C   UNK N   1      25.753  24.085  -5.344  0.00  0.00     0.008 A 
HETATM    6  C   UNK N   1      25.924  25.404  -4.923  0.00  0.00     0.013 A 
ENDROOT
BRANCH   1   7
HETATM    7  C   UNK N   1      26.705  27.746  -5.308  0.00  0.00    -0.026 A 
HETATM    8  C   UNK N   1      26.020  28.233  -4.184  0.00  0.00     0.012 A 
HETATM    9  C   UNK N   1      26.208  29.551  -3.757  0.00  0.00     0.001 A 
HETATM   10  C   UNK N   1      27.074  30.397  -4.456  0.00  0.00     0.000 A 
HETATM   11  C   UNK N   1      27.758  29.923  -5.577  0.00  0.00     0.001 A 
HETATM   12  C   UNK N   1      27.578  28.604  -5.999  0.00  0.00     0.012 A 
ENDBRANCH   1   7
BRANCH   4  13
HETATM   13  C   UNK N   1      26.028  22.274  -7.058  0.00  0.00     0.148 C 
BRANCH  13  14
HETATM   14  C   UNK N   1      24.607  21.959  -7.414  0.00  0.00     0.143 C 
HETATM   15  O   UNK N   1      24.121  22.426  -8.431  0.00  0.00    -0.650 OA
BRANCH  14  16
HETATM   16  O   UNK N   1      23.858  21.184  -6.607  0.00  0.00    -0.776 OA
HETATM   17  H   UNK N   1      23.203  20.585  -6.304  0.00  0.00     0.167 HD
ENDBRANCH  14  16
ENDBRANCH  13  14
ENDBRANCH   4  13
TORSDOF 4
ENDMDL
MODEL 6
REMARK VINA RESULT:      -5.9     14.308     17.549
REMARK  4 active torsions:
REMARK  status: ('A' for Active; 'I' for Inactive)
REMARK    1  A    between atoms: C_1  and  C_2 
REMARK    2  A    between atoms: C_1  and  C_7 
REMARK    3  A    between atoms: C_2  and  O_16 
REMARK    4  A    between atoms: C_4  and  C_12 
ROOT
HETATM    1  C   UNK N   1      24.859  19.300   3.844  0.00  0.00    -0.026 A 
HETATM    2  C   UNK N   1      24.727  20.482   3.094  0.00  0.00     0.013 A 
HETATM    3  C   UNK N   1      23.473  20.885   2.625  0.00  0.00     0.008 A 
HETATM    4  C   UNK N   1      22.337  20.119   2.912  0.00  0.00    -0.048 A 
HETATM    5  C   UNK N   1      22.460  18.956   3.678  0.00  0.00     0.008 A 
HETATM    6  C   UNK N   1      23.713  18.545   4.133  0.00  0.00     0.013 A 
ENDROOT
BRANCH   1   7
HETATM    7  C   UNK N   1      26.189  18.836   4.304  0.00  0.00    -0.026 A 
HETATM    8  C   UNK N   1      26.759  17.662   3.784  0.00  0.00     0.012 A 
HETATM    9  C   UNK N   1      28.007  17.222   4.236  0.00  0.00     0.001 A 
HETATM   10  C   UNK N   1      28.690  17.943   5.219  0.00  0.00     0.000 A 
HETATM   11  C   UNK N   1      28.130  19.109   5.746  0.00  0.00     0.001 A 
HETATM   12  C   UNK N   1      26.887  19.555   5.288  0.00  0.00     0.012 A 
ENDBRANCH   1   7
BRANCH   4  13
HETATM   13  C   UNK N   1      21.003  20.538   2.387  0.00  0.00     0.148 C 
BRANCH  13  14
HETATM   14  C   UNK N   1      20.847  20.160   0.945  0.00  0.00     0.143 C 
HETATM   15  O   UNK N   1      21.105  20.974   0.076  0.00  0.00    -0.650 OA
BRANCH  14  16
HETATM   16  O   UNK N   1      20.399  18.935   0.607  0.00  0.00    -0.776 OA
HETATM   17  H   UNK N   1      19.985  18.237   0.139  0.00  0.00     0.167 HD
ENDBRANCH  14  16
ENDBRANCH  13  14
ENDBRANCH   4  13
TORSDOF 4
ENDMDL
MODEL 7
REMARK VINA RESULT:      -5.7      9.012     12.888
REMARK  4 active torsions:
REMARK  status: ('A' for Active; 'I' for Inactive)
REMARK    1  A    between atoms: C_1  and  C_2 
REMARK    2  A    between atoms: C_1  and  C_7 
REMARK    3  A    between atoms: C_2  and  O_16 
REMARK    4  A    between atoms: C_4  and  C_12 
ROOT
HETATM    1  C   UNK N   1      29.698  17.743   5.349  0.00  0.00    -0.026 A 
HETATM    2  C   UNK N   1      30.849  17.528   4.572  0.00  0.00     0.013 A 
HETATM    3  C   UNK N   1      32.036  17.094   5.171  0.00  0.00     0.008 A 
HETATM    4  C   UNK N   1      32.080  16.858   6.550  0.00  0.00    -0.048 A 
HETATM    5  C   UNK N   1      30.931  17.048   7.324  0.00  0.00     0.008 A 
HETATM    6  C   UNK N   1      29.751  17.496   6.730  0.00  0.00     0.013 A 
ENDROOT
BRANCH   1   7
HETATM    7  C   UNK N   1      28.449  18.251   4.735  0.00  0.00    -0.026 A 
HETATM    8  C   UNK N   1      28.207  19.631   4.633  0.00  0.00     0.012 A 
HETATM    9  C   UNK N   1      27.018  20.101   4.068  0.00  0.00     0.001 A 
HETATM   10  C   UNK N   1      26.056  19.197   3.609  0.00  0.00     0.000 A 
HETATM   11  C   UNK N   1      26.284  17.823   3.708  0.00  0.00     0.001 A 
HETATM   12  C   UNK N   1      27.476  17.352   4.265  0.00  0.00     0.012 A 
ENDBRANCH   1   7
BRANCH   4  13
HETATM   13  C   UNK N   1      33.356  16.420   7.191  0.00  0.00     0.148 C 
BRANCH  13  14
HETATM   14  C   UNK N   1      33.976  17.536   7.976  0.00  0.00     0.143 C 
HETATM   15  O   UNK N   1      34.632  18.388   7.401  0.00  0.00    -0.650 OA
BRANCH  14  16
HETATM   16  O   UNK N   1      33.834  17.589   9.315  0.00  0.00    -0.776 OA
HETATM   17  H   UNK N   1      33.585  17.872  10.173  0.00  0.00     0.167 HD
ENDBRANCH  14  16
ENDBRANCH  13  14
ENDBRANCH   4  13
TORSDOF 4
ENDMDL
MODEL 8
REMARK VINA RESULT:      -5.6      1.780      3.100
REMARK  4 active torsions:
REMARK  status: ('A' for Active; 'I' for Inactive)
REMARK    1  A    between atoms: C_1  and  C_2 
REMARK    2  A    between atoms: C_1  and  C_7 
REMARK    3  A    between atoms: C_2  and  O_16 
REMARK    4  A    between atoms: C_4  and  C_12 
ROOT
HETATM    1  C   UNK N   1      35.476  11.421  17.580  0.00  0.00    -0.026 A 
HETATM    2  C   UNK N   1      35.068  12.765  17.631  0.00  0.00     0.013 A 
HETATM    3  C   UNK N   1      35.414  13.648  16.602  0.00  0.00     0.008 A 
HETATM    4  C   UNK N   1      36.158  13.193  15.508  0.00  0.00    -0.048 A 
HETATM    5  C   UNK N   1      36.545  11.850  15.441  0.00  0.00     0.008 A 
HETATM    6  C   UNK N   1      36.215  10.973  16.474  0.00  0.00     0.013 A 
ENDROOT
BRANCH   1   7
HETATM    7  C   UNK N   1      35.159  10.487  18.687  0.00  0.00    -0.026 A 
HETATM    8  C   UNK N   1      34.345   9.364  18.468  0.00  0.00     0.012 A 
HETATM    9  C   UNK N   1      34.038   8.498  19.521  0.00  0.00     0.001 A 
HETATM   10  C   UNK N   1      34.531   8.752  20.804  0.00  0.00     0.000 A 
HETATM   11  C   UNK N   1      35.338   9.869  21.033  0.00  0.00     0.001 A 
HETATM   12  C   UNK N   1      35.654  10.730  19.979  0.00  0.00     0.012 A 
ENDBRANCH   1   7
BRANCH   4  13
HETATM   13  C   UNK N   1      36.548  14.144  14.424  0.00  0.00     0.148 C 
BRANCH  13  14
HETATM   14  C   UNK N   1      35.952  13.739  13.110  0.00  0.00     0.143 C 
HETATM   15  O   UNK N   1      36.676  13.572  12.144  0.00  0.00    -0.650 OA
BRANCH  14  16
HETATM   16  O   UNK N   1      34.620  13.583  12.986  0.00  0.00    -0.776 OA
HETATM   17  H   UNK N   1      33.710  13.498  13.194  0.00  0.00     0.167 HD
ENDBRANCH  14  16
ENDBRANCH  13  14
ENDBRANCH   4  13
TORSDOF 4
ENDMDL
MODEL 9
REMARK VINA RESULT:      -5.6      5.979      9.467
REMARK  4 active torsions:
REMARK  status: ('A' for Active; 'I' for Inactive)
REMARK    1  A    between atoms: C_1  and  C_2 
REMARK    2  A    between atoms: C_1  and  C_7 
REMARK    3  A    between atoms: C_2  and  O_16 
REMARK    4  A    between atoms: C_4  and  C_12 
ROOT
HETATM    1  C   UNK N   1      32.009  16.771   8.429  0.00  0.00    -0.026 A 
HETATM    2  C   UNK N   1      33.186  17.538   8.491  0.00  0.00     0.013 A 
HETATM    3  C   UNK N   1      34.420  16.923   8.725  0.00  0.00     0.008 A 
HETATM    4  C   UNK N   1      34.492  15.535   8.886  0.00  0.00    -0.048 A 
HETATM    5  C   UNK N   1      33.327  14.764   8.801  0.00  0.00     0.008 A 
HETATM    6  C   UNK N   1      32.095  15.378   8.584  0.00  0.00     0.013 A 
ENDROOT
BRANCH   1   7
HETATM    7  C   UNK N   1      30.689  17.415   8.232  0.00  0.00    -0.026 A 
HETATM    8  C   UNK N   1      30.032  18.047   9.300  0.00  0.00     0.012 A 
HETATM    9  C   UNK N   1      28.779  18.637   9.109  0.00  0.00     0.001 A 
HETATM   10  C   UNK N   1      28.168  18.593   7.853  0.00  0.00     0.000 A 
HETATM   11  C   UNK N   1      28.812  17.964   6.785  0.00  0.00     0.001 A 
HETATM   12  C   UNK N   1      30.068  17.382   6.973  0.00  0.00     0.012 A 
ENDBRANCH   1   7
BRANCH   4  13
HETATM   13  C   UNK N   1      35.807  14.883   9.162  0.00  0.00     0.148 C 
BRANCH  13  14
HETATM   14  C   UNK N   1      36.226  15.094  10.585  0.00  0.00     0.143 C 
HETATM   15  O   UNK N   1      35.788  14.363  11.458  0.00  0.00    -0.650 OA
BRANCH  14  16
HETATM   16  O   UNK N   1      37.063  16.098  10.908  0.00  0.00    -0.776 OA
HETATM   17  H   UNK N   1      37.691  16.790  10.840  0.00  0.00     0.167 HD
ENDBRANCH  14  16
ENDBRANCH  13  14
ENDBRANCH   4  13
TORSDOF 4
ENDMDL
