REMARK  3 active torsions:
REMARK  status: ('A' for Active; 'I' for Inactive)
REMARK    1  A    between atoms: C_1  and  C_9 
REMARK    2  A    between atoms: C_3  and  O_4 
REMARK    3  A    between atoms: C_5  and  O_6 
ROOT
HETATM    1  C   UNK N   1      -0.401  -0.180  -0.000  0.00  0.00    -0.023 A 
HETATM    2  C   UNK N   1       0.817  -0.874  -0.000  0.00  0.00     0.051 A 
HETATM    3  C   UNK N   1       0.846  -2.267  -0.000  0.00  0.00     0.099 A 
HETATM    4  C   UNK N   1      -0.354  -2.989   0.000  0.00  0.00     0.098 A 
HETATM    5  C   UNK N   1      -1.577  -2.309   0.000  0.00  0.00     0.040 A 
HETATM    6  C   UNK N   1      -1.602  -0.909  -0.000  0.00  0.00     0.015 A 
ENDROOT
BRANCH   1   7
HETATM    7  C   UNK N   1      -0.397   1.302  -0.000  0.00  0.00    -0.026 A 
HETATM    8  C   UNK N   1      -1.597   2.033  -0.000  0.00  0.00     0.012 A 
HETATM    9  C   UNK N   1      -1.569   3.432   0.000  0.00  0.00     0.001 A 
HETATM   10  C   UNK N   1      -0.346   4.110   0.000  0.00  0.00     0.000 A 
HETATM   11  C   UNK N   1       0.850   3.392   0.000  0.00  0.00     0.001 A 
HETATM   12  C   UNK N   1       0.825   1.997  -0.000  0.00  0.00     0.012 A 
ENDBRANCH   1   7
BRANCH   3  13
HETATM   13  O   UNK N   1       2.027  -2.906   0.000  0.00  0.00    -0.358 OA
HETATM   14  H   UNK N   1       2.054  -3.843   0.000  0.00  0.00     0.217 HD
ENDBRANCH   3  13
BRANCH   4  15
HETATM   15  O   UNK N   1      -0.335  -4.333   0.000  0.00  0.00    -0.358 OA
HETATM   16  H   UNK N   1      -1.139  -4.813   0.000  0.00  0.00     0.217 HD
ENDBRANCH   4  15
TORSDOF 3
