MODEL 1
REMARK VINA RESULT:      -6.0      0.000      0.000
REMARK  3 active torsions:
REMARK  status: ('A' for Active; 'I' for Inactive)
REMARK    1  A    between atoms: C_1  and  C_9 
REMARK    2  A    between atoms: C_3  and  O_4 
REMARK    3  A    between atoms: C_5  and  O_6 
ROOT
HETATM    1  C   UNK N   1      35.721  13.067  16.090  0.00  0.00    -0.023 A 
HETATM    2  C   UNK N   1      34.987  12.683  14.959  0.00  0.00     0.051 A 
HETATM    3  C   UNK N   1      35.192  13.306  13.729  0.00  0.00     0.099 A 
HETATM    4  C   UNK N   1      36.143  14.328  13.615  0.00  0.00     0.098 A 
HETATM    5  C   UNK N   1      36.882  14.720  14.736  0.00  0.00     0.040 A 
HETATM    6  C   UNK N   1      36.674  14.093  15.970  0.00  0.00     0.015 A 
ENDROOT
BRANCH   1   7
HETATM    7  C   UNK N   1      35.479  12.385  17.383  0.00  0.00    -0.026 A 
HETATM    8  C   UNK N   1      35.421  10.984  17.467  0.00  0.00     0.012 A 
HETATM    9  C   UNK N   1      35.191  10.361  18.699  0.00  0.00     0.001 A 
HETATM   10  C   UNK N   1      35.018  11.132  19.854  0.00  0.00     0.000 A 
HETATM   11  C   UNK N   1      35.074  12.523  19.779  0.00  0.00     0.001 A 
HETATM   12  C   UNK N   1      35.303  13.146  18.552  0.00  0.00     0.012 A 
ENDBRANCH   1   7
BRANCH   3  13
HETATM   13  O   UNK N   1      34.475  12.918  12.662  0.00  0.00    -0.358 OA
HETATM   14  H   UNK N   1      33.609  12.578  12.776  0.00  0.00     0.217 HD
ENDBRANCH   3  13
BRANCH   4  15
HETATM   15  O   UNK N   1      36.346  14.933  12.432  0.00  0.00    -0.358 OA
HETATM   16  H   UNK N   1      36.484  15.859  12.397  0.00  0.00     0.217 HD
ENDBRANCH   4  15
TORSDOF 3
ENDMDL
MODEL 2
REMARK VINA RESULT:      -5.9      8.436     11.834
REMARK  3 active torsions:
REMARK  status: ('A' for Active; 'I' for Inactive)
REMARK    1  A    between atoms: C_1  and  C_9 
REMARK    2  A    between atoms: C_3  and  O_4 
REMARK    3  A    between atoms: C_5  and  O_6 
ROOT
HETATM    1  C   UNK N   1      33.043  16.862   6.841  0.00  0.00    -0.023 A 
HETATM    2  C   UNK N   1      33.864  17.969   7.096  0.00  0.00     0.051 A 
HETATM    3  C   UNK N   1      34.516  18.109   8.319  0.00  0.00     0.099 A 
HETATM    4  C   UNK N   1      34.353  17.134   9.311  0.00  0.00     0.098 A 
HETATM    5  C   UNK N   1      33.536  16.024   9.070  0.00  0.00     0.040 A 
HETATM    6  C   UNK N   1      32.882  15.887   7.840  0.00  0.00     0.015 A 
ENDROOT
BRANCH   1   7
HETATM    7  C   UNK N   1      32.363  16.743   5.529  0.00  0.00    -0.026 A 
HETATM    8  C   UNK N   1      32.930  17.287   4.364  0.00  0.00     0.012 A 
HETATM    9  C   UNK N   1      32.271  17.162   3.136  0.00  0.00     0.001 A 
HETATM   10  C   UNK N   1      31.044  16.496   3.063  0.00  0.00     0.000 A 
HETATM   11  C   UNK N   1      30.474  15.953   4.214  0.00  0.00     0.001 A 
HETATM   12  C   UNK N   1      31.129  16.076   5.440  0.00  0.00     0.012 A 
ENDBRANCH   1   7
BRANCH   3  13
HETATM   13  O   UNK N   1      35.297  19.179   8.536  0.00  0.00    -0.358 OA
HETATM   14  H   UNK N   1      35.894  19.468   7.873  0.00  0.00     0.217 HD
ENDBRANCH   3  13
BRANCH   4  15
HETATM   15  O   UNK N   1      34.978  17.261  10.494  0.00  0.00    -0.358 OA
HETATM   16  H   UNK N   1      34.528  17.637  11.224  0.00  0.00     0.217 HD
ENDBRANCH   4  15
TORSDOF 3
ENDMDL
MODEL 3
REMARK VINA RESULT:      -5.9      3.083      5.285
REMARK  3 active torsions:
REMARK  status: ('A' for Active; 'I' for Inactive)
REMARK    1  A    between atoms: C_1  and  C_9 
REMARK    2  A    between atoms: C_3  and  O_4 
REMARK    3  A    between atoms: C_5  and  O_6 
ROOT
HETATM    1  C   UNK N   1      35.019  12.004  16.511  0.00  0.00    -0.023 A 
HETATM    2  C   UNK N   1      35.035  13.342  16.928  0.00  0.00     0.051 A 
HETATM    3  C   UNK N   1      35.205  13.670  18.271  0.00  0.00     0.099 A 
HETATM    4  C   UNK N   1      35.363  12.654  19.222  0.00  0.00     0.098 A 
HETATM    5  C   UNK N   1      35.349  11.314  18.820  0.00  0.00     0.040 A 
HETATM    6  C   UNK N   1      35.178  10.989  17.469  0.00  0.00     0.015 A 
ENDROOT
BRANCH   1   7
HETATM    7  C   UNK N   1      34.836  11.689  15.075  0.00  0.00    -0.026 A 
HETATM    8  C   UNK N   1      33.984  10.651  14.660  0.00  0.00     0.012 A 
HETATM    9  C   UNK N   1      33.827  10.371  13.298  0.00  0.00     0.001 A 
HETATM   10  C   UNK N   1      34.516  11.124  12.342  0.00  0.00     0.000 A 
HETATM   11  C   UNK N   1      35.363  12.156  12.745  0.00  0.00     0.001 A 
HETATM   12  C   UNK N   1      35.522  12.437  14.102  0.00  0.00     0.012 A 
ENDBRANCH   1   7
BRANCH   3  13
HETATM   13  O   UNK N   1      35.217  14.961  18.643  0.00  0.00    -0.358 OA
HETATM   14  H   UNK N   1      35.072  15.634  18.007  0.00  0.00     0.217 HD
ENDBRANCH   3  13
BRANCH   4  15
HETATM   15  O   UNK N   1      35.528  12.962  20.520  0.00  0.00    -0.358 OA
HETATM   16  H   UNK N   1      34.927  12.635  21.159  0.00  0.00     0.217 HD
ENDBRANCH   4  15
TORSDOF 3
ENDMDL
MODEL 4
REMARK VINA RESULT:      -5.9     17.647     19.910
REMARK  3 active torsions:
REMARK  status: ('A' for Active; 'I' for Inactive)
REMARK    1  A    between atoms: C_1  and  C_9 
REMARK    2  A    between atoms: C_3  and  O_4 
REMARK    3  A    between atoms: C_5  and  O_6 
ROOT
HETATM    1  C   UNK N   1      22.529  19.505   3.239  0.00  0.00    -0.023 A 
HETATM    2  C   UNK N   1      21.902  20.263   2.240  0.00  0.00     0.051 A 
HETATM    3  C   UNK N   1      20.549  20.089   1.955  0.00  0.00     0.099 A 
HETATM    4  C   UNK N   1      19.801  19.148   2.672  0.00  0.00     0.098 A 
HETATM    5  C   UNK N   1      20.414  18.385   3.672  0.00  0.00     0.040 A 
HETATM    6  C   UNK N   1      21.774  18.562   3.956  0.00  0.00     0.015 A 
ENDROOT
BRANCH   1   7
HETATM    7  C   UNK N   1      23.969  19.714   3.518  0.00  0.00    -0.026 A 
HETATM    8  C   UNK N   1      24.760  20.530   2.691  0.00  0.00     0.012 A 
HETATM    9  C   UNK N   1      26.118  20.713   2.973  0.00  0.00     0.001 A 
HETATM   10  C   UNK N   1      26.696  20.084   4.081  0.00  0.00     0.000 A 
HETATM   11  C   UNK N   1      25.918  19.273   4.908  0.00  0.00     0.001 A 
HETATM   12  C   UNK N   1      24.564  19.089   4.628  0.00  0.00     0.012 A 
ENDBRANCH   1   7
BRANCH   3  13
HETATM   13  O   UNK N   1      19.974  20.829   0.992  0.00  0.00    -0.358 OA
HETATM   14  H   UNK N   1      19.790  21.735   1.143  0.00  0.00     0.217 HD
ENDBRANCH   3  13
BRANCH   4  15
HETATM   15  O   UNK N   1      18.495  18.974   2.403  0.00  0.00    -0.358 OA
HETATM   16  H   UNK N   1      18.003  18.328   2.868  0.00  0.00     0.217 HD
ENDBRANCH   4  15
TORSDOF 3
ENDMDL
MODEL 5
REMARK VINA RESULT:      -5.8      0.865      2.251
REMARK  3 active torsions:
REMARK  status: ('A' for Active; 'I' for Inactive)
REMARK    1  A    between atoms: C_1  and  C_9 
REMARK    2  A    between atoms: C_3  and  O_4 
REMARK    3  A    between atoms: C_5  and  O_6 
ROOT
HETATM    1  C   UNK N   1      35.263  12.410  15.783  0.00  0.00    -0.023 A 
HETATM    2  C   UNK N   1      36.011  13.478  15.270  0.00  0.00     0.051 A 
HETATM    3  C   UNK N   1      36.014  13.759  13.905  0.00  0.00     0.099 A 
HETATM    4  C   UNK N   1      35.261  12.967  13.029  0.00  0.00     0.098 A 
HETATM    5  C   UNK N   1      34.509  11.897  13.528  0.00  0.00     0.040 A 
HETATM    6  C   UNK N   1      34.509  11.618  14.900  0.00  0.00     0.015 A 
ENDROOT
BRANCH   1   7
HETATM    7  C   UNK N   1      35.281  12.138  17.240  0.00  0.00    -0.026 A 
HETATM    8  C   UNK N   1      35.160  13.179  18.176  0.00  0.00     0.012 A 
HETATM    9  C   UNK N   1      35.180  12.899  19.546  0.00  0.00     0.001 A 
HETATM   10  C   UNK N   1      35.321  11.581  19.992  0.00  0.00     0.000 A 
HETATM   11  C   UNK N   1      35.441  10.542  19.070  0.00  0.00     0.001 A 
HETATM   12  C   UNK N   1      35.422  10.818  17.702  0.00  0.00     0.012 A 
ENDBRANCH   1   7
BRANCH   3  13
HETATM   13  O   UNK N   1      36.741  14.788  13.441  0.00  0.00    -0.358 OA
HETATM   14  H   UNK N   1      36.840  15.564  13.958  0.00  0.00     0.217 HD
ENDBRANCH   3  13
BRANCH   4  15
HETATM   15  O   UNK N   1      35.259  13.230  11.711  0.00  0.00    -0.358 OA
HETATM   16  H   UNK N   1      35.185  12.530  11.093  0.00  0.00     0.217 HD
ENDBRANCH   4  15
TORSDOF 3
ENDMDL
MODEL 6
REMARK VINA RESULT:      -5.8      3.184      5.637
REMARK  3 active torsions:
REMARK  status: ('A' for Active; 'I' for Inactive)
REMARK    1  A    between atoms: C_1  and  C_9 
REMARK    2  A    between atoms: C_3  and  O_4 
REMARK    3  A    between atoms: C_5  and  O_6 
ROOT
HETATM    1  C   UNK N   1      35.489  12.262  17.216  0.00  0.00    -0.023 A 
HETATM    2  C   UNK N   1      35.131  13.139  18.249  0.00  0.00     0.051 A 
HETATM    3  C   UNK N   1      35.036  12.692  19.565  0.00  0.00     0.099 A 
HETATM    4  C   UNK N   1      35.301  11.350  19.867  0.00  0.00     0.098 A 
HETATM    5  C   UNK N   1      35.660  10.464  18.845  0.00  0.00     0.040 A 
HETATM    6  C   UNK N   1      35.753  10.916  17.523  0.00  0.00     0.015 A 
ENDROOT
BRANCH   1   7
HETATM    7  C   UNK N   1      35.580  12.769  15.826  0.00  0.00    -0.026 A 
HETATM    8  C   UNK N   1      34.807  12.209  14.795  0.00  0.00     0.012 A 
HETATM    9  C   UNK N   1      34.910  12.705  13.490  0.00  0.00     0.001 A 
HETATM   10  C   UNK N   1      35.783  13.759  13.206  0.00  0.00     0.000 A 
HETATM   11  C   UNK N   1      36.555  14.320  14.224  0.00  0.00     0.001 A 
HETATM   12  C   UNK N   1      36.454  13.828  15.526  0.00  0.00     0.012 A 
ENDBRANCH   1   7
BRANCH   3  13
HETATM   13  O   UNK N   1      34.691  13.554  20.535  0.00  0.00    -0.358 OA
HETATM   14  H   UNK N   1      34.847  14.472  20.425  0.00  0.00     0.217 HD
ENDBRANCH   3  13
BRANCH   4  15
HETATM   15  O   UNK N   1      35.212  10.911  21.134  0.00  0.00    -0.358 OA
HETATM   16  H   UNK N   1      35.989  10.791  21.644  0.00  0.00     0.217 HD
ENDBRANCH   4  15
TORSDOF 3
ENDMDL
MODEL 7
REMARK VINA RESULT:      -5.8     21.190     24.104
REMARK  3 active torsions:
REMARK  status: ('A' for Active; 'I' for Inactive)
REMARK    1  A    between atoms: C_1  and  C_9 
REMARK    2  A    between atoms: C_3  and  O_4 
REMARK    3  A    between atoms: C_5  and  O_6 
ROOT
HETATM    1  C   UNK N   1      30.414  21.331  -5.118  0.00  0.00    -0.023 A 
HETATM    2  C   UNK N   1      30.178  22.103  -3.972  0.00  0.00     0.051 A 
HETATM    3  C   UNK N   1      31.065  22.076  -2.898  0.00  0.00     0.099 A 
HETATM    4  C   UNK N   1      32.208  21.270  -2.957  0.00  0.00     0.098 A 
HETATM    5  C   UNK N   1      32.455  20.494  -4.095  0.00  0.00     0.040 A 
HETATM    6  C   UNK N   1      31.562  20.523  -5.173  0.00  0.00     0.015 A 
ENDROOT
BRANCH   1   7
HETATM    7  C   UNK N   1      29.451  21.382  -6.244  0.00  0.00    -0.026 A 
HETATM    8  C   UNK N   1      28.571  22.466  -6.400  0.00  0.00     0.012 A 
HETATM    9  C   UNK N   1      27.670  22.493  -7.470  0.00  0.00     0.001 A 
HETATM   10  C   UNK N   1      27.641  21.441  -8.391  0.00  0.00     0.000 A 
HETATM   11  C   UNK N   1      28.511  20.360  -8.243  0.00  0.00     0.001 A 
HETATM   12  C   UNK N   1      29.411  20.331  -7.177  0.00  0.00     0.012 A 
ENDBRANCH   1   7
BRANCH   3  13
HETATM   13  O   UNK N   1      30.814  22.826  -1.812  0.00  0.00    -0.358 OA
HETATM   14  H   UNK N   1      30.370  22.453  -1.076  0.00  0.00     0.217 HD
ENDBRANCH   3  13
BRANCH   4  15
HETATM   15  O   UNK N   1      33.068  21.238  -1.925  0.00  0.00    -0.358 OA
HETATM   16  H   UNK N   1      33.982  21.101  -2.080  0.00  0.00     0.217 HD
ENDBRANCH   4  15
TORSDOF 3
ENDMDL
MODEL 8
REMARK VINA RESULT:      -5.7     17.462     19.728
REMARK  3 active torsions:
REMARK  status: ('A' for Active; 'I' for Inactive)
REMARK    1  A    between atoms: C_1  and  C_9 
REMARK    2  A    between atoms: C_3  and  O_4 
REMARK    3  A    between atoms: C_5  and  O_6 
ROOT
HETATM    1  C   UNK N   1      22.443  19.456   3.250  0.00  0.00    -0.023 A 
HETATM    2  C   UNK N   1      21.773  18.322   3.729  0.00  0.00     0.051 A 
HETATM    3  C   UNK N   1      20.418  18.128   3.468  0.00  0.00     0.099 A 
HETATM    4  C   UNK N   1      19.710  19.076   2.719  0.00  0.00     0.098 A 
HETATM    5  C   UNK N   1      20.366  20.214   2.235  0.00  0.00     0.040 A 
HETATM    6  C   UNK N   1      21.728  20.404   2.499  0.00  0.00     0.015 A 
ENDROOT
BRANCH   1   7
HETATM    7  C   UNK N   1      23.885  19.632   3.544  0.00  0.00    -0.026 A 
HETATM    8  C   UNK N   1      24.493  18.970   4.625  0.00  0.00     0.012 A 
HETATM    9  C   UNK N   1      25.856  19.151   4.884  0.00  0.00     0.001 A 
HETATM   10  C   UNK N   1      26.620  19.992   4.069  0.00  0.00     0.000 A 
HETATM   11  C   UNK N   1      26.024  20.653   2.994  0.00  0.00     0.001 A 
HETATM   12  C   UNK N   1      24.665  20.474   2.734  0.00  0.00     0.012 A 
ENDBRANCH   1   7
BRANCH   3  13
HETATM   13  O   UNK N   1      19.802  17.032   3.939  0.00  0.00    -0.358 OA
HETATM   14  H   UNK N   1      19.284  16.502   3.366  0.00  0.00     0.217 HD
ENDBRANCH   3  13
BRANCH   4  15
HETATM   15  O   UNK N   1      18.403  18.897   2.463  0.00  0.00    -0.358 OA
HETATM   16  H   UNK N   1      17.853  18.487   3.100  0.00  0.00     0.217 HD
ENDBRANCH   4  15
TORSDOF 3
ENDMDL
MODEL 9
REMARK VINA RESULT:      -5.5     10.916     12.637
REMARK  3 active torsions:
REMARK  status: ('A' for Active; 'I' for Inactive)
REMARK    1  A    between atoms: C_1  and  C_9 
REMARK    2  A    between atoms: C_3  and  O_4 
REMARK    3  A    between atoms: C_5  and  O_6 
ROOT
HETATM    1  C   UNK N   1      30.319  17.193   6.639  0.00  0.00    -0.023 A 
HETATM    2  C   UNK N   1      30.679  17.630   7.921  0.00  0.00     0.051 A 
HETATM    3  C   UNK N   1      29.706  17.959   8.863  0.00  0.00     0.099 A 
HETATM    4  C   UNK N   1      28.350  17.854   8.531  0.00  0.00     0.098 A 
HETATM    5  C   UNK N   1      27.977  17.419   7.254  0.00  0.00     0.040 A 
HETATM    6  C   UNK N   1      28.957  17.089   6.310  0.00  0.00     0.015 A 
ENDROOT
BRANCH   1   7
HETATM    7  C   UNK N   1      31.378  16.850   5.660  0.00  0.00    -0.026 A 
HETATM    8  C   UNK N   1      32.351  15.879   5.951  0.00  0.00     0.012 A 
HETATM    9  C   UNK N   1      33.342  15.572   5.012  0.00  0.00     0.001 A 
HETATM   10  C   UNK N   1      33.369  16.231   3.778  0.00  0.00     0.000 A 
HETATM   11  C   UNK N   1      32.407  17.197   3.482  0.00  0.00     0.001 A 
HETATM   12  C   UNK N   1      31.418  17.505   4.417  0.00  0.00     0.012 A 
ENDBRANCH   1   7
BRANCH   3  13
HETATM   13  O   UNK N   1      30.079  18.375  10.084  0.00  0.00    -0.358 OA
HETATM   14  H   UNK N   1      30.901  18.101  10.443  0.00  0.00     0.217 HD
ENDBRANCH   3  13
BRANCH   4  15
HETATM   15  O   UNK N   1      27.406  18.169   9.433  0.00  0.00    -0.358 OA
HETATM   16  H   UNK N   1      26.708  18.748   9.199  0.00  0.00     0.217 HD
ENDBRANCH   4  15
TORSDOF 3
ENDMDL
