REMARK  3 active torsions:
REMARK  status: ('A' for Active; 'I' for Inactive)
REMARK    1  A    between atoms: C_2  and  O_3 
REMARK    2  A    between atoms: C_4  and  O_5 
REMARK    3  A    between atoms: C_6  and  O_7 
ROOT
HETATM    1  C   UNK N   1       0.405   1.278  -0.742  0.00  0.00     0.074 C 
HETATM    2  C   UNK N   1       1.470   1.991   0.104  0.00  0.00     0.154 C 
HETATM    3  C   UNK N   1       2.739   1.110   0.367  0.00  0.00     0.180 C 
HETATM    4  C   UNK N   1       2.750  -0.175  -0.489  0.00  0.00     0.183 C 
HETATM    5  C   UNK N   1       1.407  -2.249   0.124  0.00  0.00     0.011 A 
HETATM    6  C   UNK N   1       0.187  -2.878   0.358  0.00  0.00     0.013 A 
HETATM    7  C   UNK N   1      -2.208  -2.834   0.508  0.00  0.00     0.013 A 
HETATM    8  C   UNK N   1      -3.423  -2.160   0.440  0.00  0.00     0.013 A 
HETATM    9  C   UNK N   1      -4.694  -0.147   0.088  0.00  0.00     0.012 A 
HETATM   10  C   UNK N   1      -4.759   1.213  -0.212  0.00  0.00     0.001 A 
HETATM   11  C   UNK N   1      -3.590   1.924  -0.481  0.00  0.00     0.001 A 
HETATM   12  C   UNK N   1      -2.355   1.273  -0.450  0.00  0.00     0.013 A 
HETATM   13  C   UNK N   1       0.252  -0.163  -0.353  0.00  0.00    -0.035 A 
HETATM   14  C   UNK N   1       1.444  -0.904  -0.245  0.00  0.00    -0.020 A 
HETATM   15  C   UNK N   1      -1.010  -2.163   0.255  0.00  0.00    -0.025 A 
HETATM   16  C   UNK N   1      -1.007  -0.786  -0.088  0.00  0.00    -0.008 A 
HETATM   17  C   UNK N   1      -2.260  -0.093  -0.147  0.00  0.00    -0.014 A 
HETATM   18  C   UNK N   1      -3.460  -0.807   0.126  0.00  0.00    -0.025 A 
ENDROOT
BRANCH   2  19
HETATM   19  O   UNK N   1       1.807   3.175  -0.554  0.00  0.00    -0.393 OA
HETATM   20  H   UNK N   1       2.637   3.384  -1.012  0.00  0.00     0.210 HD
ENDBRANCH   2  19
BRANCH   3  21
HETATM   21  O   UNK N   1       3.911   1.845   0.161  0.00  0.00    -0.390 OA
HETATM   22  H   UNK N   1       4.759   1.396   0.019  0.00  0.00     0.210 HD
ENDBRANCH   3  21
BRANCH   4  23
HETATM   23  O   UNK N   1       3.852  -0.974  -0.161  0.00  0.00    -0.388 OA
HETATM   24  H   UNK N   1       3.754  -1.912   0.066  0.00  0.00     0.210 HD
ENDBRANCH   4  23
TORSDOF 3
