MODEL 1
REMARK VINA RESULT:      -7.5      0.000      0.000
REMARK  3 active torsions:
REMARK  status: ('A' for Active; 'I' for Inactive)
REMARK    1  A    between atoms: C_2  and  O_3 
REMARK    2  A    between atoms: C_4  and  O_5 
REMARK    3  A    between atoms: C_6  and  O_7 
ROOT
HETATM    1  C   UNK N   1      29.663  23.712  -3.846  0.00  0.00     0.074 C 
HETATM    2  C   UNK N   1      29.941  22.650  -2.772  0.00  0.00     0.154 C 
HETATM    3  C   UNK N   1      30.582  21.342  -3.349  0.00  0.00     0.180 C 
HETATM    4  C   UNK N   1      31.026  21.505  -4.819  0.00  0.00     0.183 C 
HETATM    5  C   UNK N   1      29.400  21.354  -6.773  0.00  0.00     0.011 A 
HETATM    6  C   UNK N   1      28.286  21.825  -7.462  0.00  0.00     0.013 A 
HETATM    7  C   UNK N   1      26.453  23.356  -7.702  0.00  0.00     0.013 A 
HETATM    8  C   UNK N   1      25.695  24.433  -7.253  0.00  0.00     0.013 A 
HETATM    9  C   UNK N   1      25.242  26.156  -5.635  0.00  0.00     0.012 A 
HETATM   10  C   UNK N   1      25.553  26.825  -4.452  0.00  0.00     0.001 A 
HETATM   11  C   UNK N   1      26.664  26.438  -3.704  0.00  0.00     0.001 A 
HETATM   12  C   UNK N   1      27.464  25.379  -4.139  0.00  0.00     0.013 A 
HETATM   13  C   UNK N   1      29.124  23.105  -5.108  0.00  0.00    -0.035 A 
HETATM   14  C   UNK N   1      29.831  21.996  -5.611  0.00  0.00    -0.020 A 
HETATM   15  C   UNK N   1      27.569  22.926  -6.982  0.00  0.00    -0.025 A 
HETATM   16  C   UNK N   1      27.961  23.583  -5.787  0.00  0.00    -0.008 A 
HETATM   17  C   UNK N   1      27.172  24.686  -5.323  0.00  0.00    -0.014 A 
HETATM   18  C   UNK N   1      26.036  25.091  -6.077  0.00  0.00    -0.025 A 
ENDROOT
BRANCH   2  19
HETATM   19  O   UNK N   1      30.767  23.232  -1.809  0.00  0.00    -0.393 OA
HETATM   20  H   UNK N   1      31.239  22.789  -1.085  0.00  0.00     0.210 HD
ENDBRANCH   2  19
BRANCH   3  21
HETATM   21  O   UNK N   1      31.655  20.918  -2.559  0.00  0.00    -0.390 OA
HETATM   22  H   UNK N   1      32.037  21.504  -1.887  0.00  0.00     0.210 HD
ENDBRANCH   3  21
BRANCH   4  23
HETATM   23  O   UNK N   1      31.511  20.292  -5.323  0.00  0.00    -0.388 OA
HETATM   24  H   UNK N   1      32.388  19.954  -5.085  0.00  0.00     0.210 HD
ENDBRANCH   4  23
TORSDOF 3
ENDMDL
MODEL 2
REMARK VINA RESULT:      -7.4     21.783     24.761
REMARK  3 active torsions:
REMARK  status: ('A' for Active; 'I' for Inactive)
REMARK    1  A    between atoms: C_2  and  O_3 
REMARK    2  A    between atoms: C_4  and  O_5 
REMARK    3  A    between atoms: C_6  and  O_7 
ROOT
HETATM    1  C   UNK N   1      35.439  13.365  14.337  0.00  0.00     0.074 C 
HETATM    2  C   UNK N   1      36.581  13.873  13.445  0.00  0.00     0.154 C 
HETATM    3  C   UNK N   1      36.791  13.002  12.159  0.00  0.00     0.180 C 
HETATM    4  C   UNK N   1      35.648  11.986  11.944  0.00  0.00     0.183 C 
HETATM    5  C   UNK N   1      35.518   9.775  13.199  0.00  0.00     0.011 A 
HETATM    6  C   UNK N   1      35.408   9.061  14.389  0.00  0.00     0.013 A 
HETATM    7  C   UNK N   1      35.221   8.974  16.780  0.00  0.00     0.013 A 
HETATM    8  C   UNK N   1      35.153   9.596  18.023  0.00  0.00     0.013 A 
HETATM    9  C   UNK N   1      35.144  11.582  19.382  0.00  0.00     0.012 A 
HETATM   10  C   UNK N   1      35.192  12.970  19.508  0.00  0.00     0.001 A 
HETATM   11  C   UNK N   1      35.281  13.770  18.369  0.00  0.00     0.001 A 
HETATM   12  C   UNK N   1      35.323  13.180  17.104  0.00  0.00     0.013 A 
HETATM   13  C   UNK N   1      35.424  11.868  14.433  0.00  0.00    -0.035 A 
HETATM   14  C   UNK N   1      35.510  11.170  13.213  0.00  0.00    -0.020 A 
HETATM   15  C   UNK N   1      35.320   9.733  15.612  0.00  0.00    -0.025 A 
HETATM   16  C   UNK N   1      35.340  11.151  15.666  0.00  0.00    -0.008 A 
HETATM   17  C   UNK N   1      35.280  11.787  16.949  0.00  0.00    -0.014 A 
HETATM   18  C   UNK N   1      35.189  10.982  18.118  0.00  0.00    -0.025 A 
ENDROOT
BRANCH   2  19
HETATM   19  O   UNK N   1      36.299  15.199  13.114  0.00  0.00    -0.393 OA
HETATM   20  H   UNK N   1      36.504  15.660  12.284  0.00  0.00     0.210 HD
ENDBRANCH   2  19
BRANCH   3  21
HETATM   21  O   UNK N   1      36.947  13.809  11.027  0.00  0.00    -0.390 OA
HETATM   22  H   UNK N   1      37.139  13.416  10.161  0.00  0.00     0.210 HD
ENDBRANCH   3  21
BRANCH   4  23
HETATM   23  O   UNK N   1      35.917  11.171  10.837  0.00  0.00    -0.388 OA
HETATM   24  H   UNK N   1      35.283  11.070  10.110  0.00  0.00     0.210 HD
ENDBRANCH   4  23
TORSDOF 3
ENDMDL
MODEL 3
REMARK VINA RESULT:      -7.1     11.183     13.399
REMARK  3 active torsions:
REMARK  status: ('A' for Active; 'I' for Inactive)
REMARK    1  A    between atoms: C_2  and  O_3 
REMARK    2  A    between atoms: C_4  and  O_5 
REMARK    3  A    between atoms: C_6  and  O_7 
ROOT
HETATM    1  C   UNK N   1      28.945  17.942   6.972  0.00  0.00     0.074 C 
HETATM    2  C   UNK N   1      28.068  19.198   6.863  0.00  0.00     0.154 C 
HETATM    3  C   UNK N   1      27.048  19.135   5.675  0.00  0.00     0.180 C 
HETATM    4  C   UNK N   1      26.972  17.730   5.039  0.00  0.00     0.183 C 
HETATM    5  C   UNK N   1      28.694  16.883   3.365  0.00  0.00     0.011 A 
HETATM    6  C   UNK N   1      30.003  16.535   3.044  0.00  0.00     0.013 A 
HETATM    7  C   UNK N   1      32.320  16.298   3.625  0.00  0.00     0.013 A 
HETATM    8  C   UNK N   1      33.370  16.417   4.530  0.00  0.00     0.013 A 
HETATM    9  C   UNK N   1      34.218  17.026   6.698  0.00  0.00     0.012 A 
HETATM   10  C   UNK N   1      34.018  17.514   7.988  0.00  0.00     0.001 A 
HETATM   11  C   UNK N   1      32.737  17.870   8.408  0.00  0.00     0.001 A 
HETATM   12  C   UNK N   1      31.655  17.737   7.535  0.00  0.00     0.013 A 
HETATM   13  C   UNK N   1      29.388  17.448   5.626  0.00  0.00    -0.035 A 
HETATM   14  C   UNK N   1      28.380  17.322   4.652  0.00  0.00    -0.020 A 
HETATM   15  C   UNK N   1      31.021  16.650   3.996  0.00  0.00    -0.025 A 
HETATM   16  C   UNK N   1      30.742  17.123   5.304  0.00  0.00    -0.008 A 
HETATM   17  C   UNK N   1      31.828  17.253   6.231  0.00  0.00    -0.014 A 
HETATM   18  C   UNK N   1      33.140  16.894   5.814  0.00  0.00    -0.025 A 
ENDROOT
BRANCH   2  19
HETATM   19  O   UNK N   1      27.410  19.360   8.083  0.00  0.00    -0.393 OA
HETATM   20  H   UNK N   1      26.571  19.820   8.249  0.00  0.00     0.210 HD
ENDBRANCH   2  19
BRANCH   3  21
HETATM   21  O   UNK N   1      25.778  19.556   6.082  0.00  0.00    -0.390 OA
HETATM   22  H   UNK N   1      25.544  20.498   6.081  0.00  0.00     0.210 HD
ENDBRANCH   3  21
BRANCH   4  23
HETATM   23  O   UNK N   1      26.118  17.739   3.929  0.00  0.00    -0.388 OA
HETATM   24  H   UNK N   1      25.436  17.061   3.804  0.00  0.00     0.210 HD
ENDBRANCH   4  23
TORSDOF 3
ENDMDL
MODEL 4
REMARK VINA RESULT:      -7.0     11.691     13.304
REMARK  3 active torsions:
REMARK  status: ('A' for Active; 'I' for Inactive)
REMARK    1  A    between atoms: C_2  and  O_3 
REMARK    2  A    between atoms: C_4  and  O_5 
REMARK    3  A    between atoms: C_6  and  O_7 
ROOT
HETATM    1  C   UNK N   1      28.265  17.902   7.209  0.00  0.00     0.074 C 
HETATM    2  C   UNK N   1      28.229  17.403   8.661  0.00  0.00     0.154 C 
HETATM    3  C   UNK N   1      29.654  17.250   9.295  0.00  0.00     0.180 C 
HETATM    4  C   UNK N   1      30.759  17.872   8.415  0.00  0.00     0.183 C 
HETATM    5  C   UNK N   1      31.734  16.686   6.385  0.00  0.00     0.011 A 
HETATM    6  C   UNK N   1      31.582  16.123   5.121  0.00  0.00     0.013 A 
HETATM    7  C   UNK N   1      30.225  15.525   3.233  0.00  0.00     0.013 A 
HETATM    8  C   UNK N   1      28.997  15.467   2.583  0.00  0.00     0.013 A 
HETATM    9  C   UNK N   1      26.629  15.889   2.520  0.00  0.00     0.012 A 
HETATM   10  C   UNK N   1      25.467  16.387   3.107  0.00  0.00     0.001 A 
HETATM   11  C   UNK N   1      25.523  16.987   4.365  0.00  0.00     0.001 A 
HETATM   12  C   UNK N   1      26.744  17.089   5.035  0.00  0.00     0.013 A 
HETATM   13  C   UNK N   1      29.373  17.263   6.424  0.00  0.00    -0.035 A 
HETATM   14  C   UNK N   1      30.643  17.268   7.031  0.00  0.00    -0.020 A 
HETATM   15  C   UNK N   1      30.331  16.109   4.498  0.00  0.00    -0.025 A 
HETATM   16  C   UNK N   1      29.193  16.664   5.139  0.00  0.00    -0.008 A 
HETATM   17  C   UNK N   1      27.928  16.593   4.469  0.00  0.00    -0.014 A 
HETATM   18  C   UNK N   1      27.857  15.983   3.186  0.00  0.00    -0.025 A 
ENDROOT
BRANCH   2  19
HETATM   19  O   UNK N   1      27.445  18.296   9.394  0.00  0.00    -0.393 OA
HETATM   20  H   UNK N   1      26.484  18.274   9.524  0.00  0.00     0.210 HD
ENDBRANCH   2  19
BRANCH   3  21
HETATM   21  O   UNK N   1      29.690  17.793  10.584  0.00  0.00    -0.390 OA
HETATM   22  H   UNK N   1      30.382  18.424  10.836  0.00  0.00     0.210 HD
ENDBRANCH   3  21
BRANCH   4  23
HETATM   23  O   UNK N   1      32.021  17.637   8.973  0.00  0.00    -0.388 OA
HETATM   24  H   UNK N   1      32.826  17.631   8.432  0.00  0.00     0.210 HD
ENDBRANCH   4  23
TORSDOF 3
ENDMDL
MODEL 5
REMARK VINA RESULT:      -6.8     11.377     13.201
REMARK  3 active torsions:
REMARK  status: ('A' for Active; 'I' for Inactive)
REMARK    1  A    between atoms: C_2  and  O_3 
REMARK    2  A    between atoms: C_4  and  O_5 
REMARK    3  A    between atoms: C_6  and  O_7 
ROOT
HETATM    1  C   UNK N   1      30.451  17.191   7.416  0.00  0.00     0.074 C 
HETATM    2  C   UNK N   1      31.330  16.474   8.452  0.00  0.00     0.154 C 
HETATM    3  C   UNK N   1      32.864  16.683   8.209  0.00  0.00     0.180 C 
HETATM    4  C   UNK N   1      33.148  17.764   7.144  0.00  0.00     0.183 C 
HETATM    5  C   UNK N   1      33.000  17.304   4.644  0.00  0.00     0.011 A 
HETATM    6  C   UNK N   1      32.264  16.940   3.520  0.00  0.00     0.013 A 
HETATM    7  C   UNK N   1      30.211  16.259   2.479  0.00  0.00     0.013 A 
HETATM    8  C   UNK N   1      28.864  15.919   2.545  0.00  0.00     0.013 A 
HETATM    9  C   UNK N   1      26.844  15.564   3.803  0.00  0.00     0.012 A 
HETATM   10  C   UNK N   1      26.149  15.559   5.012  0.00  0.00     0.001 A 
HETATM   11  C   UNK N   1      26.798  15.929   6.190  0.00  0.00     0.001 A 
HETATM   12  C   UNK N   1      28.143  16.305   6.157  0.00  0.00     0.013 A 
HETATM   13  C   UNK N   1      31.015  17.080   6.030  0.00  0.00    -0.035 A 
HETATM   14  C   UNK N   1      32.381  17.391   5.891  0.00  0.00    -0.020 A 
HETATM   15  C   UNK N   1      30.906  16.628   3.633  0.00  0.00    -0.025 A 
HETATM   16  C   UNK N   1      30.251  16.676   4.891  0.00  0.00    -0.008 A 
HETATM   17  C   UNK N   1      28.866  16.315   4.956  0.00  0.00    -0.014 A 
HETATM   18  C   UNK N   1      28.193  15.935   3.761  0.00  0.00    -0.025 A 
ENDROOT
BRANCH   2  19
HETATM   19  O   UNK N   1      30.953  16.935   9.715  0.00  0.00    -0.393 OA
HETATM   20  H   UNK N   1      30.537  16.430  10.431  0.00  0.00     0.210 HD
ENDBRANCH   2  19
BRANCH   3  21
HETATM   21  O   UNK N   1      33.523  16.989   9.404  0.00  0.00    -0.390 OA
HETATM   22  H   UNK N   1      34.195  16.390   9.766  0.00  0.00     0.210 HD
ENDBRANCH   3  21
BRANCH   4  23
HETATM   23  O   UNK N   1      34.523  17.857   6.894  0.00  0.00    -0.388 OA
HETATM   24  H   UNK N   1      35.105  17.082   6.941  0.00  0.00     0.210 HD
ENDBRANCH   4  23
TORSDOF 3
ENDMDL
MODEL 6
REMARK VINA RESULT:      -6.8     23.196     26.608
REMARK  3 active torsions:
REMARK  status: ('A' for Active; 'I' for Inactive)
REMARK    1  A    between atoms: C_2  and  O_3 
REMARK    2  A    between atoms: C_4  and  O_5 
REMARK    3  A    between atoms: C_6  and  O_7 
ROOT
HETATM    1  C   UNK N   1      35.378  10.168  15.312  0.00  0.00     0.074 C 
HETATM    2  C   UNK N   1      34.391  10.335  14.147  0.00  0.00     0.154 C 
HETATM    3  C   UNK N   1      34.341  11.797  13.586  0.00  0.00     0.180 C 
HETATM    4  C   UNK N   1      35.472  12.683  14.153  0.00  0.00     0.183 C 
HETATM    5  C   UNK N   1      35.355  13.757  16.458  0.00  0.00     0.011 A 
HETATM    6  C   UNK N   1      35.272  13.648  17.843  0.00  0.00     0.013 A 
HETATM    7  C   UNK N   1      35.114  12.332  19.844  0.00  0.00     0.013 A 
HETATM    8  C   UNK N   1      35.022  11.106  20.495  0.00  0.00     0.013 A 
HETATM    9  C   UNK N   1      34.896   8.703  20.444  0.00  0.00     0.012 A 
HETATM   10  C   UNK N   1      34.872   7.502  19.737  0.00  0.00     0.001 A 
HETATM   11  C   UNK N   1      34.970   7.509  18.346  0.00  0.00     0.001 A 
HETATM   12  C   UNK N   1      35.092   8.721  17.662  0.00  0.00     0.013 A 
HETATM   13  C   UNK N   1      35.334  11.334  16.255  0.00  0.00    -0.035 A 
HETATM   14  C   UNK N   1      35.402  12.610  15.665  0.00  0.00    -0.020 A 
HETATM   15  C   UNK N   1      35.205  12.392  18.452  0.00  0.00    -0.025 A 
HETATM   16  C   UNK N   1      35.220  11.205  17.674  0.00  0.00    -0.008 A 
HETATM   17  C   UNK N   1      35.115   9.944  18.347  0.00  0.00    -0.014 A 
HETATM   18  C   UNK N   1      35.014   9.923  19.766  0.00  0.00    -0.025 A 
ENDROOT
BRANCH   2  19
HETATM   19  O   UNK N   1      34.757   9.427  13.152  0.00  0.00    -0.393 OA
HETATM   20  H   UNK N   1      34.189   8.785  12.697  0.00  0.00     0.210 HD
ENDBRANCH   2  19
BRANCH   3  21
HETATM   21  O   UNK N   1      34.372  11.799  12.188  0.00  0.00    -0.390 OA
HETATM   22  H   UNK N   1      33.598  12.081  11.675  0.00  0.00     0.210 HD
ENDBRANCH   3  21
BRANCH   4  23
HETATM   23  O   UNK N   1      35.339  14.000  13.696  0.00  0.00    -0.388 OA
HETATM   24  H   UNK N   1      35.991  14.685  13.915  0.00  0.00     0.210 HD
ENDBRANCH   4  23
TORSDOF 3
ENDMDL
MODEL 7
REMARK VINA RESULT:      -6.8     11.958     14.937
REMARK  3 active torsions:
REMARK  status: ('A' for Active; 'I' for Inactive)
REMARK    1  A    between atoms: C_2  and  O_3 
REMARK    2  A    between atoms: C_4  and  O_5 
REMARK    3  A    between atoms: C_6  and  O_7 
ROOT
HETATM    1  C   UNK N   1      30.139  17.049   8.461  0.00  0.00     0.074 C 
HETATM    2  C   UNK N   1      29.503  18.362   8.938  0.00  0.00     0.154 C 
HETATM    3  C   UNK N   1      28.485  18.963   7.909  0.00  0.00     0.180 C 
HETATM    4  C   UNK N   1      28.155  17.979   6.766  0.00  0.00     0.183 C 
HETATM    5  C   UNK N   1      29.691  17.629   4.765  0.00  0.00     0.011 A 
HETATM    6  C   UNK N   1      30.915  17.237   4.231  0.00  0.00     0.013 A 
HETATM    7  C   UNK N   1      33.153  16.407   4.485  0.00  0.00     0.013 A 
HETATM    8  C   UNK N   1      34.209  15.968   5.276  0.00  0.00     0.013 A 
HETATM    9  C   UNK N   1      35.160  15.481   7.433  0.00  0.00     0.012 A 
HETATM   10  C   UNK N   1      35.055  15.418   8.822  0.00  0.00     0.001 A 
HETATM   11  C   UNK N   1      33.860  15.772   9.447  0.00  0.00     0.001 A 
HETATM   12  C   UNK N   1      32.769  16.190   8.682  0.00  0.00     0.013 A 
HETATM   13  C   UNK N   1      30.482  17.089   7.000  0.00  0.00    -0.035 A 
HETATM   14  C   UNK N   1      29.465  17.543   6.139  0.00  0.00    -0.020 A 
HETATM   15  C   UNK N   1      31.939  16.781   5.066  0.00  0.00    -0.025 A 
HETATM   16  C   UNK N   1      31.754  16.710   6.471  0.00  0.00    -0.008 A 
HETATM   17  C   UNK N   1      32.848  16.267   7.283  0.00  0.00    -0.014 A 
HETATM   18  C   UNK N   1      34.073  15.903   6.658  0.00  0.00    -0.025 A 
ENDROOT
BRANCH   2  19
HETATM   19  O   UNK N   1      28.889  18.111  10.166  0.00  0.00    -0.393 OA
HETATM   20  H   UNK N   1      28.106  18.547  10.538  0.00  0.00     0.210 HD
ENDBRANCH   2  19
BRANCH   3  21
HETATM   21  O   UNK N   1      27.313  19.379   8.549  0.00  0.00    -0.390 OA
HETATM   22  H   UNK N   1      26.456  19.326   8.097  0.00  0.00     0.210 HD
ENDBRANCH   3  21
BRANCH   4  23
HETATM   23  O   UNK N   1      27.313  18.584   5.825  0.00  0.00    -0.388 OA
HETATM   24  H   UNK N   1      27.181  19.544   5.800  0.00  0.00     0.210 HD
ENDBRANCH   4  23
TORSDOF 3
ENDMDL
MODEL 8
REMARK VINA RESULT:      -6.7     12.776     14.733
REMARK  3 active torsions:
REMARK  status: ('A' for Active; 'I' for Inactive)
REMARK    1  A    between atoms: C_2  and  O_3 
REMARK    2  A    between atoms: C_4  and  O_5 
REMARK    3  A    between atoms: C_6  and  O_7 
ROOT
HETATM    1  C   UNK N   1      29.294  17.189   6.384  0.00  0.00     0.074 C 
HETATM    2  C   UNK N   1      28.284  16.787   7.468  0.00  0.00     0.154 C 
HETATM    3  C   UNK N   1      28.579  17.445   8.860  0.00  0.00     0.180 C 
HETATM    4  C   UNK N   1      29.660  18.544   8.772  0.00  0.00     0.183 C 
HETATM    5  C   UNK N   1      32.150  18.023   8.694  0.00  0.00     0.011 A 
HETATM    6  C   UNK N   1      33.247  17.436   8.069  0.00  0.00     0.013 A 
HETATM    7  C   UNK N   1      34.214  16.151   6.287  0.00  0.00     0.013 A 
HETATM    8  C   UNK N   1      34.102  15.421   5.108  0.00  0.00     0.013 A 
HETATM    9  C   UNK N   1      32.775  14.493   3.328  0.00  0.00     0.012 A 
HETATM   10  C   UNK N   1      31.543  14.298   2.705  0.00  0.00     0.001 A 
HETATM   11  C   UNK N   1      30.390  14.864   3.247  0.00  0.00     0.001 A 
HETATM   12  C   UNK N   1      30.470  15.627   4.414  0.00  0.00     0.013 A 
HETATM   13  C   UNK N   1      30.697  17.231   6.912  0.00  0.00    -0.035 A 
HETATM   14  C   UNK N   1      30.884  17.938   8.116  0.00  0.00    -0.020 A 
HETATM   15  C   UNK N   1      33.087  16.731   6.872  0.00  0.00    -0.025 A 
HETATM   16  C   UNK N   1      31.808  16.598   6.272  0.00  0.00    -0.008 A 
HETATM   17  C   UNK N   1      31.695  15.837   5.064  0.00  0.00    -0.014 A 
HETATM   18  C   UNK N   1      32.864  15.253   4.501  0.00  0.00    -0.025 A 
ENDROOT
BRANCH   2  19
HETATM   19  O   UNK N   1      27.012  17.132   7.008  0.00  0.00    -0.393 OA
HETATM   20  H   UNK N   1      26.567  16.820   6.204  0.00  0.00     0.210 HD
ENDBRANCH   2  19
BRANCH   3  21
HETATM   21  O   UNK N   1      27.409  17.954   9.432  0.00  0.00    -0.390 OA
HETATM   22  H   UNK N   1      27.389  18.848   9.808  0.00  0.00     0.210 HD
ENDBRANCH   3  21
BRANCH   4  23
HETATM   23  O   UNK N   1      29.956  19.043  10.046  0.00  0.00    -0.388 OA
HETATM   24  H   UNK N   1      29.636  18.610  10.853  0.00  0.00     0.210 HD
ENDBRANCH   4  23
TORSDOF 3
ENDMDL
MODEL 9
REMARK VINA RESULT:      -6.5     24.105     26.705
REMARK  3 active torsions:
REMARK  status: ('A' for Active; 'I' for Inactive)
REMARK    1  A    between atoms: C_2  and  O_3 
REMARK    2  A    between atoms: C_4  and  O_5 
REMARK    3  A    between atoms: C_6  and  O_7 
ROOT
HETATM    1  C   UNK N   1      36.138   9.530  17.616  0.00  0.00     0.074 C 
HETATM    2  C   UNK N   1      36.897   9.264  18.925  0.00  0.00     0.154 C 
HETATM    3  C   UNK N   1      36.412  10.165  20.112  0.00  0.00     0.180 C 
HETATM    4  C   UNK N   1      35.116  10.934  19.775  0.00  0.00     0.183 C 
HETATM    5  C   UNK N   1      35.103  13.069  18.389  0.00  0.00     0.011 A 
HETATM    6  C   UNK N   1      35.353  13.741  17.195  0.00  0.00     0.013 A 
HETATM    7  C   UNK N   1      36.129  13.778  14.924  0.00  0.00     0.013 A 
HETATM    8  C   UNK N   1      36.679  13.149  13.812  0.00  0.00     0.013 A 
HETATM    9  C   UNK N   1      37.575  11.196  12.730  0.00  0.00     0.012 A 
HETATM   10  C   UNK N   1      37.919   9.845  12.750  0.00  0.00     0.001 A 
HETATM   11  C   UNK N   1      37.687   9.084  13.896  0.00  0.00     0.001 A 
HETATM   12  C   UNK N   1      37.110   9.675  15.021  0.00  0.00     0.013 A 
HETATM   13  C   UNK N   1      35.893  10.994  17.397  0.00  0.00    -0.035 A 
HETATM   14  C   UNK N   1      35.354  11.700  18.489  0.00  0.00    -0.020 A 
HETATM   15  C   UNK N   1      35.886  13.060  16.096  0.00  0.00    -0.025 A 
HETATM   16  C   UNK N   1      36.182  11.675  16.174  0.00  0.00    -0.008 A 
HETATM   17  C   UNK N   1      36.758  11.033  15.030  0.00  0.00    -0.014 A 
HETATM   18  C   UNK N   1      37.000  11.798  13.855  0.00  0.00    -0.025 A 
ENDROOT
BRANCH   2  19
HETATM   19  O   UNK N   1      36.751   7.910  19.229  0.00  0.00    -0.393 OA
HETATM   20  H   UNK N   1      36.082   7.498  19.799  0.00  0.00     0.210 HD
ENDBRANCH   2  19
BRANCH   3  21
HETATM   21  O   UNK N   1      36.244   9.411  21.277  0.00  0.00    -0.390 OA
HETATM   22  H   UNK N   1      35.522   9.607  21.895  0.00  0.00     0.210 HD
ENDBRANCH   3  21
BRANCH   4  23
HETATM   23  O   UNK N   1      34.766  11.791  20.825  0.00  0.00    -0.388 OA
HETATM   24  H   UNK N   1      34.522  11.453  21.701  0.00  0.00     0.210 HD
ENDBRANCH   4  23
TORSDOF 3
ENDMDL
