MODEL 1
REMARK VINA RESULT:      -7.3      0.000      0.000
REMARK  9 active torsions:
REMARK  status: ('A' for Active; 'I' for Inactive)
REMARK    1  A    between atoms: C_1  and  C_2 
REMARK    2  A    between atoms: C_1  and  C_13 
REMARK    3  A    between atoms: C_7  and  O_8 
REMARK    4  A    between atoms: O_8  and  P_9 
REMARK    5  A    between atoms: P_9  and  O_11 
REMARK    6  A    between atoms: P_9  and  O_12 
REMARK    7  A    between atoms: C_18  and  O_19 
REMARK    8  A    between atoms: O_19  and  P_20 
REMARK    9  A    between atoms: P_20  and  O_22 
ROOT
HETATM    1  P   UNK N   1      19.898  18.279   2.259  0.00  0.00     0.396 P 
HETATM    2  O   UNK N   1      19.994  16.734   2.370  0.00  0.00    -0.631 OA
HETATM    3  O   UNK N   1      20.480  18.736   0.688  0.00  0.00    -0.307 OA
HETATM    4  H   UNK N   1      20.651  18.989  -0.232  0.00  0.00     0.222 HD
ENDROOT
BRANCH   1   5
HETATM    5  O   UNK N   1      20.862  18.930   3.528  0.00  0.00    -0.255 OA
BRANCH   5   6
HETATM    6  C   UNK N   1      22.163  19.276   3.399  0.00  0.00     0.081 A 
HETATM    7  C   UNK N   1      22.559  20.476   2.779  0.00  0.00     0.038 A 
HETATM    8  C   UNK N   1      23.914  20.822   2.713  0.00  0.00     0.010 A 
HETATM    9  C   UNK N   1      24.883  19.961   3.239  0.00  0.00    -0.054 A 
HETATM   10  C   UNK N   1      24.486  18.753   3.831  0.00  0.00     0.010 A 
HETATM   11  C   UNK N   1      23.135  18.421   3.920  0.00  0.00     0.038 A 
BRANCH   9  12
HETATM   12  C   UNK N   1      26.328  20.366   3.235  0.00  0.00     0.077 C 
BRANCH  12  13
HETATM   13  C   UNK N   1      26.950  20.138   4.582  0.00  0.00    -0.054 A 
HETATM   14  C   UNK N   1      26.633  20.977   5.659  0.00  0.00     0.010 A 
HETATM   15  C   UNK N   1      27.125  20.697   6.934  0.00  0.00     0.038 A 
HETATM   16  C   UNK N   1      27.955  19.594   7.144  0.00  0.00     0.081 A 
HETATM   17  C   UNK N   1      28.289  18.764   6.061  0.00  0.00     0.038 A 
HETATM   18  C   UNK N   1      27.777  19.030   4.786  0.00  0.00     0.010 A 
BRANCH  16  19
HETATM   19  O   UNK N   1      28.403  19.353   8.397  0.00  0.00    -0.255 OA
BRANCH  19  20
HETATM   20  P   UNK N   1      28.701  17.785   9.039  0.00  0.00     0.396 P 
HETATM   21  O   UNK N   1      29.699  17.063   8.093  0.00  0.00    -0.631 OA
BRANCH  20  22
HETATM   22  O   UNK N   1      27.233  16.860   9.042  0.00  0.00    -0.307 OA
HETATM   23  H   UNK N   1      26.699  16.578   8.284  0.00  0.00     0.222 HD
ENDBRANCH  20  22
BRANCH  20  24
HETATM   24  O   UNK N   1      29.408  17.849  10.623  0.00  0.00    -0.307 OA
HETATM   25  H   UNK N   1      29.161  18.552  11.244  0.00  0.00     0.222 HD
ENDBRANCH  20  24
ENDBRANCH  19  20
ENDBRANCH  16  19
ENDBRANCH  12  13
ENDBRANCH   9  12
ENDBRANCH   5   6
ENDBRANCH   1   5
BRANCH   1  26
HETATM   26  O   UNK N   1      18.231  18.709   2.474  0.00  0.00    -0.307 OA
HETATM   27  H   UNK N   1      17.713  18.391   3.230  0.00  0.00     0.222 HD
ENDBRANCH   1  26
TORSDOF 9
ENDMDL
MODEL 2
REMARK VINA RESULT:      -6.9      6.496     12.451
REMARK  9 active torsions:
REMARK  status: ('A' for Active; 'I' for Inactive)
REMARK    1  A    between atoms: C_1  and  C_2 
REMARK    2  A    between atoms: C_1  and  C_13 
REMARK    3  A    between atoms: C_7  and  O_8 
REMARK    4  A    between atoms: O_8  and  P_9 
REMARK    5  A    between atoms: P_9  and  O_11 
REMARK    6  A    between atoms: P_9  and  O_12 
REMARK    7  A    between atoms: C_18  and  O_19 
REMARK    8  A    between atoms: O_19  and  P_20 
REMARK    9  A    between atoms: P_20  and  O_22 
ROOT
HETATM    1  P   UNK N   1      36.344  13.707  13.148  0.00  0.00     0.396 P 
HETATM    2  O   UNK N   1      36.118  12.407  13.965  0.00  0.00    -0.631 OA
HETATM    3  O   UNK N   1      36.883  14.938  14.246  0.00  0.00    -0.307 OA
HETATM    4  H   UNK N   1      37.332  15.584  14.814  0.00  0.00     0.222 HD
ENDROOT
BRANCH   1   5
HETATM    5  O   UNK N   1      34.839  14.101  12.411  0.00  0.00    -0.255 OA
BRANCH   5   6
HETATM    6  C   UNK N   1      34.708  14.867  11.304  0.00  0.00     0.081 A 
HETATM    7  C   UNK N   1      33.974  14.440  10.182  0.00  0.00     0.038 A 
HETATM    8  C   UNK N   1      33.819  15.285   9.077  0.00  0.00     0.010 A 
HETATM    9  C   UNK N   1      34.417  16.550   9.074  0.00  0.00    -0.054 A 
HETATM   10  C   UNK N   1      35.170  16.961  10.183  0.00  0.00     0.010 A 
HETATM   11  C   UNK N   1      35.303  16.130  11.293  0.00  0.00     0.038 A 
BRANCH   9  12
HETATM   12  C   UNK N   1      34.188  17.485   7.921  0.00  0.00     0.077 C 
BRANCH  12  13
HETATM   13  C   UNK N   1      32.732  17.542   7.562  0.00  0.00    -0.054 A 
HETATM   14  C   UNK N   1      32.299  17.135   6.293  0.00  0.00     0.010 A 
HETATM   15  C   UNK N   1      30.937  17.084   6.000  0.00  0.00     0.038 A 
HETATM   16  C   UNK N   1      29.993  17.460   6.959  0.00  0.00     0.081 A 
HETATM   17  C   UNK N   1      30.427  17.888   8.225  0.00  0.00     0.038 A 
HETATM   18  C   UNK N   1      31.793  17.916   8.528  0.00  0.00     0.010 A 
BRANCH  16  19
HETATM   19  O   UNK N   1      28.682  17.387   6.638  0.00  0.00    -0.255 OA
BRANCH  19  20
HETATM   20  P   UNK N   1      27.793  18.651   5.883  0.00  0.00     0.396 P 
HETATM   21  O   UNK N   1      27.746  19.855   6.862  0.00  0.00    -0.631 OA
BRANCH  20  22
HETATM   22  O   UNK N   1      26.156  18.142   5.614  0.00  0.00    -0.307 OA
HETATM   23  H   UNK N   1      25.807  17.238   5.569  0.00  0.00     0.222 HD
ENDBRANCH  20  22
BRANCH  20  24
HETATM   24  O   UNK N   1      28.536  19.184   4.407  0.00  0.00    -0.307 OA
HETATM   25  H   UNK N   1      28.735  20.124   4.268  0.00  0.00     0.222 HD
ENDBRANCH  20  24
ENDBRANCH  19  20
ENDBRANCH  16  19
ENDBRANCH  12  13
ENDBRANCH   9  12
ENDBRANCH   5   6
ENDBRANCH   1   5
BRANCH   1  26
HETATM   26  O   UNK N   1      37.542  13.355  11.942  0.00  0.00    -0.307 OA
HETATM   27  H   UNK N   1      38.136  12.592  12.017  0.00  0.00     0.222 HD
ENDBRANCH   1  26
TORSDOF 9
ENDMDL
MODEL 3
REMARK VINA RESULT:      -6.8      1.307      2.113
REMARK  9 active torsions:
REMARK  status: ('A' for Active; 'I' for Inactive)
REMARK    1  A    between atoms: C_1  and  C_2 
REMARK    2  A    between atoms: C_1  and  C_13 
REMARK    3  A    between atoms: C_7  and  O_8 
REMARK    4  A    between atoms: O_8  and  P_9 
REMARK    5  A    between atoms: P_9  and  O_11 
REMARK    6  A    between atoms: P_9  and  O_12 
REMARK    7  A    between atoms: C_18  and  O_19 
REMARK    8  A    between atoms: O_19  and  P_20 
REMARK    9  A    between atoms: P_20  and  O_22 
ROOT
HETATM    1  P   UNK N   1      20.231  18.588   2.171  0.00  0.00     0.396 P 
HETATM    2  O   UNK N   1      20.620  17.096   1.997  0.00  0.00    -0.631 OA
HETATM    3  O   UNK N   1      20.611  19.411   0.691  0.00  0.00    -0.307 OA
HETATM    4  H   UNK N   1      20.669  19.847  -0.173  0.00  0.00     0.222 HD
ENDROOT
BRANCH   1   5
HETATM    5  O   UNK N   1      21.140  19.187   3.504  0.00  0.00    -0.255 OA
BRANCH   5   6
HETATM    6  C   UNK N   1      22.473  19.411   3.480  0.00  0.00     0.081 A 
HETATM    7  C   UNK N   1      23.037  20.494   2.781  0.00  0.00     0.038 A 
HETATM    8  C   UNK N   1      24.418  20.722   2.825  0.00  0.00     0.010 A 
HETATM    9  C   UNK N   1      25.247  19.855   3.545  0.00  0.00    -0.054 A 
HETATM   10  C   UNK N   1      24.685  18.760   4.218  0.00  0.00     0.010 A 
HETATM   11  C   UNK N   1      23.307  18.550   4.195  0.00  0.00     0.038 A 
BRANCH   9  12
HETATM   12  C   UNK N   1      26.717  20.141   3.654  0.00  0.00     0.077 C 
BRANCH  12  13
HETATM   13  C   UNK N   1      27.365  19.229   4.654  0.00  0.00    -0.054 A 
HETATM   14  C   UNK N   1      27.939  18.019   4.241  0.00  0.00     0.010 A 
HETATM   15  C   UNK N   1      28.638  17.228   5.152  0.00  0.00     0.038 A 
HETATM   16  C   UNK N   1      28.751  17.620   6.487  0.00  0.00     0.081 A 
HETATM   17  C   UNK N   1      28.158  18.823   6.907  0.00  0.00     0.038 A 
HETATM   18  C   UNK N   1      27.477  19.630   5.988  0.00  0.00     0.010 A 
BRANCH  16  19
HETATM   19  O   UNK N   1      29.444  16.828   7.337  0.00  0.00    -0.255 OA
BRANCH  19  20
HETATM   20  P   UNK N   1      31.033  17.164   7.903  0.00  0.00     0.396 P 
HETATM   21  O   UNK N   1      31.565  15.893   8.617  0.00  0.00    -0.631 OA
BRANCH  20  22
HETATM   22  O   UNK N   1      30.982  18.435   9.084  0.00  0.00    -0.307 OA
HETATM   23  H   UNK N   1      30.212  18.784   9.558  0.00  0.00     0.222 HD
ENDBRANCH  20  22
BRANCH  20  24
HETATM   24  O   UNK N   1      32.122  17.553   6.608  0.00  0.00    -0.307 OA
HETATM   25  H   UNK N   1      32.874  18.147   6.759  0.00  0.00     0.222 HD
ENDBRANCH  20  24
ENDBRANCH  19  20
ENDBRANCH  16  19
ENDBRANCH  12  13
ENDBRANCH   9  12
ENDBRANCH   5   6
ENDBRANCH   1   5
BRANCH   1  26
HETATM   26  O   UNK N   1      18.532  18.641   2.516  0.00  0.00    -0.307 OA
HETATM   27  H   UNK N   1      18.112  18.013   3.124  0.00  0.00     0.222 HD
ENDBRANCH   1  26
TORSDOF 9
ENDMDL
MODEL 4
REMARK VINA RESULT:      -6.8      6.519      9.389
REMARK  9 active torsions:
REMARK  status: ('A' for Active; 'I' for Inactive)
REMARK    1  A    between atoms: C_1  and  C_2 
REMARK    2  A    between atoms: C_1  and  C_13 
REMARK    3  A    between atoms: C_7  and  O_8 
REMARK    4  A    between atoms: O_8  and  P_9 
REMARK    5  A    between atoms: P_9  and  O_11 
REMARK    6  A    between atoms: P_9  and  O_12 
REMARK    7  A    between atoms: C_18  and  O_19 
REMARK    8  A    between atoms: O_19  and  P_20 
REMARK    9  A    between atoms: P_20  and  O_22 
ROOT
HETATM    1  P   UNK N   1      27.788  18.608   5.891  0.00  0.00     0.396 P 
HETATM    2  O   UNK N   1      27.848  19.877   6.781  0.00  0.00    -0.631 OA
HETATM    3  O   UNK N   1      26.117  18.186   5.678  0.00  0.00    -0.307 OA
HETATM    4  H   UNK N   1      25.195  18.034   5.424  0.00  0.00     0.222 HD
ENDROOT
BRANCH   1   5
HETATM    5  O   UNK N   1      28.673  17.381   6.711  0.00  0.00    -0.255 OA
BRANCH   5   6
HETATM    6  C   UNK N   1      29.981  17.474   7.042  0.00  0.00     0.081 A 
HETATM    7  C   UNK N   1      30.402  17.933   8.304  0.00  0.00     0.038 A 
HETATM    8  C   UNK N   1      31.764  17.965   8.626  0.00  0.00     0.010 A 
HETATM    9  C   UNK N   1      32.715  17.564   7.681  0.00  0.00    -0.054 A 
HETATM   10  C   UNK N   1      32.293  17.133   6.415  0.00  0.00     0.010 A 
HETATM   11  C   UNK N   1      30.936  17.077   6.104  0.00  0.00     0.038 A 
BRANCH   9  12
HETATM   12  C   UNK N   1      34.169  17.527   8.051  0.00  0.00     0.077 C 
BRANCH  12  13
HETATM   13  C   UNK N   1      34.409  16.562   9.175  0.00  0.00    -0.054 A 
HETATM   14  C   UNK N   1      35.245  16.914  10.244  0.00  0.00     0.010 A 
HETATM   15  C   UNK N   1      35.378  16.061  11.340  0.00  0.00     0.038 A 
HETATM   16  C   UNK N   1      34.700  14.841  11.372  0.00  0.00     0.081 A 
HETATM   17  C   UNK N   1      33.877  14.478  10.291  0.00  0.00     0.038 A 
HETATM   18  C   UNK N   1      33.724  15.344   9.202  0.00  0.00     0.010 A 
BRANCH  16  19
HETATM   19  O   UNK N   1      34.848  14.047  12.457  0.00  0.00    -0.255 OA
BRANCH  19  20
HETATM   20  P   UNK N   1      36.356  13.694  13.205  0.00  0.00     0.396 P 
HETATM   21  O   UNK N   1      36.148  12.479  14.149  0.00  0.00    -0.631 OA
BRANCH  20  22
HETATM   22  O   UNK N   1      36.852  15.034  14.192  0.00  0.00    -0.307 OA
HETATM   23  H   UNK N   1      37.752  15.341  14.378  0.00  0.00     0.222 HD
ENDBRANCH  20  22
BRANCH  20  24
HETATM   24  O   UNK N   1      37.581  13.277  12.048  0.00  0.00    -0.307 OA
HETATM   25  H   UNK N   1      37.565  13.659  11.156  0.00  0.00     0.222 HD
ENDBRANCH  20  24
ENDBRANCH  19  20
ENDBRANCH  16  19
ENDBRANCH  12  13
ENDBRANCH   9  12
ENDBRANCH   5   6
ENDBRANCH   1   5
BRANCH   1  26
HETATM   26  O   UNK N   1      28.546  19.003   4.380  0.00  0.00    -0.307 OA
HETATM   27  H   UNK N   1      28.492  18.415   3.611  0.00  0.00     0.222 HD
ENDBRANCH   1  26
TORSDOF 9
ENDMDL
MODEL 5
REMARK VINA RESULT:      -6.3     15.744     19.149
REMARK  9 active torsions:
REMARK  status: ('A' for Active; 'I' for Inactive)
REMARK    1  A    between atoms: C_1  and  C_2 
REMARK    2  A    between atoms: C_1  and  C_13 
REMARK    3  A    between atoms: C_7  and  O_8 
REMARK    4  A    between atoms: O_8  and  P_9 
REMARK    5  A    between atoms: P_9  and  O_11 
REMARK    6  A    between atoms: P_9  and  O_12 
REMARK    7  A    between atoms: C_18  and  O_19 
REMARK    8  A    between atoms: O_19  and  P_20 
REMARK    9  A    between atoms: P_20  and  O_22 
ROOT
HETATM    1  P   UNK N   1      36.234  14.097  13.616  0.00  0.00     0.396 P 
HETATM    2  O   UNK N   1      35.710  14.948  12.429  0.00  0.00    -0.631 OA
HETATM    3  O   UNK N   1      37.268  12.862  12.968  0.00  0.00    -0.307 OA
HETATM    4  H   UNK N   1      37.965  12.274  12.640  0.00  0.00     0.222 HD
ENDROOT
BRANCH   1   5
HETATM    5  O   UNK N   1      34.854  13.444  14.410  0.00  0.00    -0.255 OA
BRANCH   5   6
HETATM    6  C   UNK N   1      34.888  12.392  15.259  0.00  0.00     0.081 A 
HETATM    7  C   UNK N   1      34.358  11.135  14.914  0.00  0.00     0.038 A 
HETATM    8  C   UNK N   1      34.461  10.057  15.803  0.00  0.00     0.010 A 
HETATM    9  C   UNK N   1      35.067  10.236  17.051  0.00  0.00    -0.054 A 
HETATM   10  C   UNK N   1      35.569  11.497  17.402  0.00  0.00     0.010 A 
HETATM   11  C   UNK N   1      35.490  12.562  16.507  0.00  0.00     0.038 A 
BRANCH   9  12
HETATM   12  C   UNK N   1      35.244   9.064  17.972  0.00  0.00     0.077 C 
BRANCH  12  13
HETATM   13  C   UNK N   1      34.403   9.223  19.205  0.00  0.00    -0.054 A 
HETATM   14  C   UNK N   1      34.768  10.142  20.198  0.00  0.00     0.010 A 
HETATM   15  C   UNK N   1      33.928  10.368  21.287  0.00  0.00     0.038 A 
HETATM   16  C   UNK N   1      32.728   9.665  21.412  0.00  0.00     0.081 A 
HETATM   17  C   UNK N   1      32.370   8.728  20.427  0.00  0.00     0.038 A 
HETATM   18  C   UNK N   1      33.201   8.518  19.321  0.00  0.00     0.010 A 
BRANCH  16  19
HETATM   19  O   UNK N   1      31.937   9.920  22.479  0.00  0.00    -0.255 OA
BRANCH  19  20
HETATM   20  P   UNK N   1      32.397   9.662  24.116  0.00  0.00     0.396 P 
HETATM   21  O   UNK N   1      31.282   8.825  24.799  0.00  0.00    -0.631 OA
BRANCH  20  22
HETATM   22  O   UNK N   1      32.486  11.181  24.950  0.00  0.00    -0.307 OA
HETATM   23  H   UNK N   1      33.237  11.559  25.432  0.00  0.00     0.222 HD
ENDBRANCH  20  22
BRANCH  20  24
HETATM   24  O   UNK N   1      33.889   8.785  24.247  0.00  0.00    -0.307 OA
HETATM   25  H   UNK N   1      34.371   8.757  25.088  0.00  0.00     0.222 HD
ENDBRANCH  20  24
ENDBRANCH  19  20
ENDBRANCH  16  19
ENDBRANCH  12  13
ENDBRANCH   9  12
ENDBRANCH   5   6
ENDBRANCH   1   5
BRANCH   1  26
HETATM   26  O   UNK N   1      37.099  15.166  14.674  0.00  0.00    -0.307 OA
HETATM   27  H   UNK N   1      37.706  15.843  14.335  0.00  0.00     0.222 HD
ENDBRANCH   1  26
TORSDOF 9
ENDMDL
MODEL 6
REMARK VINA RESULT:      -6.3      7.581     12.841
REMARK  9 active torsions:
REMARK  status: ('A' for Active; 'I' for Inactive)
REMARK    1  A    between atoms: C_1  and  C_2 
REMARK    2  A    between atoms: C_1  and  C_13 
REMARK    3  A    between atoms: C_7  and  O_8 
REMARK    4  A    between atoms: O_8  and  P_9 
REMARK    5  A    between atoms: P_9  and  O_11 
REMARK    6  A    between atoms: P_9  and  O_12 
REMARK    7  A    between atoms: C_18  and  O_19 
REMARK    8  A    between atoms: O_19  and  P_20 
REMARK    9  A    between atoms: P_20  and  O_22 
ROOT
HETATM    1  P   UNK N   1      36.232  13.615  13.192  0.00  0.00     0.396 P 
HETATM    2  O   UNK N   1      34.756  13.336  13.584  0.00  0.00    -0.631 OA
HETATM    3  O   UNK N   1      36.416  15.330  13.004  0.00  0.00    -0.307 OA
HETATM    4  H   UNK N   1      36.571  16.286  13.050  0.00  0.00     0.222 HD
ENDROOT
BRANCH   1   5
HETATM    5  O   UNK N   1      36.528  12.760  11.728  0.00  0.00    -0.255 OA
BRANCH   5   6
HETATM    6  C   UNK N   1      35.994  13.090  10.530  0.00  0.00     0.081 A 
HETATM    7  C   UNK N   1      34.672  12.755  10.184  0.00  0.00     0.038 A 
HETATM    8  C   UNK N   1      34.139  13.161   8.954  0.00  0.00     0.010 A 
HETATM    9  C   UNK N   1      34.932  13.879   8.052  0.00  0.00    -0.054 A 
HETATM   10  C   UNK N   1      36.258  14.186   8.388  0.00  0.00     0.010 A 
HETATM   11  C   UNK N   1      36.779  13.805   9.623  0.00  0.00     0.038 A 
BRANCH   9  12
HETATM   12  C   UNK N   1      34.339  14.378   6.766  0.00  0.00     0.077 C 
BRANCH  12  13
HETATM   13  C   UNK N   1      33.237  15.360   7.032  0.00  0.00    -0.054 A 
HETATM   14  C   UNK N   1      31.904  15.018   6.770  0.00  0.00     0.010 A 
HETATM   15  C   UNK N   1      30.873  15.889   7.123  0.00  0.00     0.038 A 
HETATM   16  C   UNK N   1      31.161  17.120   7.717  0.00  0.00     0.081 A 
HETATM   17  C   UNK N   1      32.499  17.473   7.963  0.00  0.00     0.038 A 
HETATM   18  C   UNK N   1      33.532  16.589   7.631  0.00  0.00     0.010 A 
BRANCH  16  19
HETATM   19  O   UNK N   1      30.133  17.932   8.052  0.00  0.00    -0.255 OA
BRANCH  19  20
HETATM   20  P   UNK N   1      29.316  17.895   9.565  0.00  0.00     0.396 P 
HETATM   21  O   UNK N   1      29.726  19.164  10.361  0.00  0.00    -0.631 OA
BRANCH  20  22
HETATM   22  O   UNK N   1      29.839  16.519  10.484  0.00  0.00    -0.307 OA
HETATM   23  H   UNK N   1      29.736  16.357  11.435  0.00  0.00     0.222 HD
ENDBRANCH  20  22
BRANCH  20  24
HETATM   24  O   UNK N   1      27.590  17.908   9.379  0.00  0.00    -0.307 OA
HETATM   25  H   UNK N   1      27.185  17.664   8.531  0.00  0.00     0.222 HD
ENDBRANCH  20  24
ENDBRANCH  19  20
ENDBRANCH  16  19
ENDBRANCH  12  13
ENDBRANCH   9  12
ENDBRANCH   5   6
ENDBRANCH   1   5
BRANCH   1  26
HETATM   26  O   UNK N   1      37.230  13.000  14.472  0.00  0.00    -0.307 OA
HETATM   27  H   UNK N   1      37.237  12.059  14.709  0.00  0.00     0.222 HD
ENDBRANCH   1  26
TORSDOF 9
ENDMDL
MODEL 7
REMARK VINA RESULT:      -6.1     10.802     12.181
REMARK  9 active torsions:
REMARK  status: ('A' for Active; 'I' for Inactive)
REMARK    1  A    between atoms: C_1  and  C_2 
REMARK    2  A    between atoms: C_1  and  C_13 
REMARK    3  A    between atoms: C_7  and  O_8 
REMARK    4  A    between atoms: O_8  and  P_9 
REMARK    5  A    between atoms: P_9  and  O_11 
REMARK    6  A    between atoms: P_9  and  O_12 
REMARK    7  A    between atoms: C_18  and  O_19 
REMARK    8  A    between atoms: O_19  and  P_20 
REMARK    9  A    between atoms: P_20  and  O_22 
ROOT
HETATM    1  P   UNK N   1      26.295  22.414  -9.904  0.00  0.00     0.396 P 
HETATM    2  O   UNK N   1      27.730  22.992  -9.788  0.00  0.00    -0.631 OA
HETATM    3  O   UNK N   1      25.909  22.285 -11.591  0.00  0.00    -0.307 OA
HETATM    4  H   UNK N   1      25.742  22.062 -12.520  0.00  0.00     0.222 HD
ENDROOT
BRANCH   1   5
HETATM    5  O   UNK N   1      25.250  23.502  -9.076  0.00  0.00    -0.255 OA
BRANCH   5   6
HETATM    6  C   UNK N   1      25.486  23.996  -7.839  0.00  0.00     0.081 A 
HETATM    7  C   UNK N   1      25.567  23.167  -6.705  0.00  0.00     0.038 A 
HETATM    8  C   UNK N   1      25.866  23.712  -5.451  0.00  0.00     0.010 A 
HETATM    9  C   UNK N   1      26.059  25.091  -5.316  0.00  0.00    -0.054 A 
HETATM   10  C   UNK N   1      25.951  25.918  -6.443  0.00  0.00     0.010 A 
HETATM   11  C   UNK N   1      25.679  25.372  -7.696  0.00  0.00     0.038 A 
BRANCH   9  12
HETATM   12  C   UNK N   1      26.454  25.666  -3.986  0.00  0.00     0.077 C 
BRANCH  12  13
HETATM   13  C   UNK N   1      27.683  24.989  -3.456  0.00  0.00    -0.054 A 
HETATM   14  C   UNK N   1      27.574  23.971  -2.499  0.00  0.00     0.010 A 
HETATM   15  C   UNK N   1      28.708  23.269  -2.091  0.00  0.00     0.038 A 
HETATM   16  C   UNK N   1      29.963  23.589  -2.612  0.00  0.00     0.081 A 
HETATM   17  C   UNK N   1      30.076  24.623  -3.557  0.00  0.00     0.038 A 
HETATM   18  C   UNK N   1      28.936  25.312  -3.985  0.00  0.00     0.010 A 
BRANCH  16  19
HETATM   19  O   UNK N   1      31.036  22.877  -2.197  0.00  0.00    -0.255 OA
BRANCH  19  20
HETATM   20  P   UNK N   1      31.815  21.659  -3.127  0.00  0.00     0.396 P 
HETATM   21  O   UNK N   1      32.316  22.310  -4.445  0.00  0.00    -0.631 OA
BRANCH  20  22
HETATM   22  O   UNK N   1      30.672  20.428  -3.563  0.00  0.00    -0.307 OA
HETATM   23  H   UNK N   1      30.456  20.094  -4.447  0.00  0.00     0.222 HD
ENDBRANCH  20  22
BRANCH  20  24
HETATM   24  O   UNK N   1      33.186  20.982  -2.304  0.00  0.00    -0.307 OA
HETATM   25  H   UNK N   1      33.665  21.500  -1.638  0.00  0.00     0.222 HD
ENDBRANCH  20  24
ENDBRANCH  19  20
ENDBRANCH  16  19
ENDBRANCH  12  13
ENDBRANCH   9  12
ENDBRANCH   5   6
ENDBRANCH   1   5
BRANCH   1  26
HETATM   26  O   UNK N   1      26.300  20.862  -9.128  0.00  0.00    -0.307 OA
HETATM   27  H   UNK N   1      25.571  20.571  -8.558  0.00  0.00     0.222 HD
ENDBRANCH   1  26
TORSDOF 9
ENDMDL
MODEL 8
REMARK VINA RESULT:      -6.0      4.811     10.492
REMARK  9 active torsions:
REMARK  status: ('A' for Active; 'I' for Inactive)
REMARK    1  A    between atoms: C_1  and  C_2 
REMARK    2  A    between atoms: C_1  and  C_13 
REMARK    3  A    between atoms: C_7  and  O_8 
REMARK    4  A    between atoms: O_8  and  P_9 
REMARK    5  A    between atoms: P_9  and  O_11 
REMARK    6  A    between atoms: P_9  and  O_12 
REMARK    7  A    between atoms: C_18  and  O_19 
REMARK    8  A    between atoms: O_19  and  P_20 
REMARK    9  A    between atoms: P_20  and  O_22 
ROOT
HETATM    1  P   UNK N   1      34.972  15.939  10.015  0.00  0.00     0.396 P 
HETATM    2  O   UNK N   1      36.122  16.733  10.690  0.00  0.00    -0.631 OA
HETATM    3  O   UNK N   1      35.687  14.723   9.004  0.00  0.00    -0.307 OA
HETATM    4  H   UNK N   1      36.066  13.946   8.565  0.00  0.00     0.222 HD
ENDROOT
BRANCH   1   5
HETATM    5  O   UNK N   1      34.043  17.075   9.115  0.00  0.00    -0.255 OA
BRANCH   5   6
HETATM    6  C   UNK N   1      33.539  16.842   7.882  0.00  0.00     0.081 A 
HETATM    7  C   UNK N   1      32.634  15.795   7.630  0.00  0.00     0.038 A 
HETATM    8  C   UNK N   1      32.094  15.620   6.349  0.00  0.00     0.010 A 
HETATM    9  C   UNK N   1      32.475  16.473   5.308  0.00  0.00    -0.054 A 
HETATM   10  C   UNK N   1      33.398  17.499   5.557  0.00  0.00     0.010 A 
HETATM   11  C   UNK N   1      33.915  17.688   6.837  0.00  0.00     0.038 A 
BRANCH   9  12
HETATM   12  C   UNK N   1      31.840  16.334   3.955  0.00  0.00     0.077 C 
BRANCH  12  13
HETATM   13  C   UNK N   1      30.413  16.797   3.984  0.00  0.00    -0.054 A 
HETATM   14  C   UNK N   1      29.464  16.221   3.129  0.00  0.00     0.010 A 
HETATM   15  C   UNK N   1      28.119  16.574   3.236  0.00  0.00     0.038 A 
HETATM   16  C   UNK N   1      27.709  17.520   4.178  0.00  0.00     0.081 A 
HETATM   17  C   UNK N   1      28.663  18.113   5.023  0.00  0.00     0.038 A 
HETATM   18  C   UNK N   1      30.010  17.741   4.932  0.00  0.00     0.010 A 
BRANCH  16  19
HETATM   19  O   UNK N   1      26.395  17.828   4.256  0.00  0.00    -0.255 OA
BRANCH  19  20
HETATM   20  P   UNK N   1      25.776  19.425   4.411  0.00  0.00     0.396 P 
HETATM   21  O   UNK N   1      24.295  19.411   3.946  0.00  0.00    -0.631 OA
BRANCH  20  22
HETATM   22  O   UNK N   1      26.639  20.497   3.354  0.00  0.00    -0.307 OA
HETATM   23  H   UNK N   1      27.412  21.046   3.555  0.00  0.00     0.222 HD
ENDBRANCH  20  22
BRANCH  20  24
HETATM   24  O   UNK N   1      25.822  19.988   6.052  0.00  0.00    -0.307 OA
HETATM   25  H   UNK N   1      25.330  19.522   6.747  0.00  0.00     0.222 HD
ENDBRANCH  20  24
ENDBRANCH  19  20
ENDBRANCH  16  19
ENDBRANCH  12  13
ENDBRANCH   9  12
ENDBRANCH   5   6
ENDBRANCH   1   5
BRANCH   1  26
HETATM   26  O   UNK N   1      34.017  15.237  11.284  0.00  0.00    -0.307 OA
HETATM   27  H   UNK N   1      34.285  15.287  12.214  0.00  0.00     0.222 HD
ENDBRANCH   1  26
TORSDOF 9
ENDMDL
MODEL 9
REMARK VINA RESULT:      -6.0      2.702      8.109
REMARK  9 active torsions:
REMARK  status: ('A' for Active; 'I' for Inactive)
REMARK    1  A    between atoms: C_1  and  C_2 
REMARK    2  A    between atoms: C_1  and  C_13 
REMARK    3  A    between atoms: C_7  and  O_8 
REMARK    4  A    between atoms: O_8  and  P_9 
REMARK    5  A    between atoms: P_9  and  O_11 
REMARK    6  A    between atoms: P_9  and  O_12 
REMARK    7  A    between atoms: C_18  and  O_19 
REMARK    8  A    between atoms: O_19  and  P_20 
REMARK    9  A    between atoms: P_20  and  O_22 
ROOT
HETATM    1  P   UNK N   1      29.112  17.802   9.355  0.00  0.00     0.396 P 
HETATM    2  O   UNK N   1      29.992  19.073   9.489  0.00  0.00    -0.631 OA
HETATM    3  O   UNK N   1      29.497  16.748  10.679  0.00  0.00    -0.307 OA
HETATM    4  H   UNK N   1      29.586  16.226  11.491  0.00  0.00     0.222 HD
ENDROOT
BRANCH   1   5
HETATM    5  O   UNK N   1      29.484  17.097   7.829  0.00  0.00    -0.255 OA
BRANCH   5   6
HETATM    6  C   UNK N   1      28.664  17.127   6.754  0.00  0.00     0.081 A 
HETATM    7  C   UNK N   1      27.588  16.232   6.609  0.00  0.00     0.038 A 
HETATM    8  C   UNK N   1      26.730  16.330   5.506  0.00  0.00     0.010 A 
HETATM    9  C   UNK N   1      26.958  17.305   4.529  0.00  0.00    -0.054 A 
HETATM   10  C   UNK N   1      28.048  18.178   4.662  0.00  0.00     0.010 A 
HETATM   11  C   UNK N   1      28.885  18.096   5.773  0.00  0.00     0.038 A 
BRANCH   9  12
HETATM   12  C   UNK N   1      25.996  17.459   3.386  0.00  0.00     0.077 C 
BRANCH  12  13
HETATM   13  C   UNK N   1      24.578  17.352   3.864  0.00  0.00    -0.054 A 
HETATM   14  C   UNK N   1      23.867  16.154   3.709  0.00  0.00     0.010 A 
HETATM   15  C   UNK N   1      22.590  16.022   4.253  0.00  0.00     0.038 A 
HETATM   16  C   UNK N   1      21.999  17.087   4.936  0.00  0.00     0.081 A 
HETATM   17  C   UNK N   1      22.703  18.295   5.074  0.00  0.00     0.038 A 
HETATM   18  C   UNK N   1      23.994  18.421   4.549  0.00  0.00     0.010 A 
BRANCH  16  19
HETATM   19  O   UNK N   1      20.762  16.915   5.456  0.00  0.00    -0.255 OA
BRANCH  19  20
HETATM   20  P   UNK N   1      20.434  16.679   7.128  0.00  0.00     0.396 P 
HETATM   21  O   UNK N   1      20.621  18.041   7.849  0.00  0.00    -0.631 OA
BRANCH  20  22
HETATM   22  O   UNK N   1      21.588  15.574   7.805  0.00  0.00    -0.307 OA
HETATM   23  H   UNK N   1      21.420  14.758   8.301  0.00  0.00     0.222 HD
ENDBRANCH  20  22
BRANCH  20  24
HETATM   24  O   UNK N   1      18.808  16.139   7.406  0.00  0.00    -0.307 OA
HETATM   25  H   UNK N   1      18.382  16.283   8.267  0.00  0.00     0.222 HD
ENDBRANCH  20  24
ENDBRANCH  19  20
ENDBRANCH  16  19
ENDBRANCH  12  13
ENDBRANCH   9  12
ENDBRANCH   5   6
ENDBRANCH   1   5
BRANCH   1  26
HETATM   26  O   UNK N   1      27.455  18.314   9.404  0.00  0.00    -0.307 OA
HETATM   27  H   UNK N   1      26.908  18.361   8.605  0.00  0.00     0.222 HD
ENDBRANCH   1  26
TORSDOF 9
ENDMDL
