MODEL 1
REMARK VINA RESULT:      -6.6      0.000      0.000
REMARK  4 active torsions:
REMARK  status: ('A' for Active; 'I' for Inactive)
REMARK       I    between atoms: C_1  and  N_14 
REMARK    1  A    between atoms: C_6  and  C_7 
REMARK    2  A    between atoms: C_7  and  N_8 
REMARK       I    between atoms: N_8  and  C_15 
REMARK    3  A    between atoms: C_15  and  O_21 
REMARK    4  A    between atoms: C_18  and  O_21 
ROOT
HETATM    1  C   UNK N   1      36.113  14.423  12.097  0.00  0.00     0.680 A 
HETATM    2  N   UNK N   1      36.394  15.705  11.695  0.00  0.00    -0.155 N 
HETATM    3  C   UNK N   1      35.617  16.333  10.753  0.00  0.00     0.274 A 
HETATM    4  O   UNK N   1      35.872  17.471  10.399  0.00  0.00    -0.267 OA
HETATM    5  C   UNK N   1      34.542  15.634  10.219  0.00  0.00     0.086 A 
HETATM    6  C   UNK N   1      33.593  15.955   9.286  0.00  0.00    -0.005 A 
HETATM    7  C   UNK N   1      32.769  14.835   9.163  0.00  0.00     0.099 A 
HETATM    8  N   UNK N   1      33.209  13.858  10.004  0.00  0.00    -0.350 N 
HETATM    9  C   UNK N   1      34.284  14.372  10.631  0.00  0.00     0.137 A 
HETATM   10  N   UNK N   1      35.048  13.747  11.561  0.00  0.00    -0.176 N 
ATOM     11  HN  UNK N   1      34.834  12.794  11.856  1.00  0.00     0.186 HD
HETATM   12  N   UNK N   1      36.926  13.803  13.064  0.00  0.00    -0.234 N 
HETATM   13  H   UNK N   1      37.162  16.179  12.087  0.00  0.00     0.187 HD
HETATM   14  H   UNK N   1      32.820  12.962  10.129  0.00  0.00     0.166 HD
HETATM   15  H   UNK N   1      37.701  14.281  13.436  0.00  0.00     0.174 HD
HETATM   16  H   UNK N   1      36.718  12.889  13.369  0.00  0.00     0.174 HD
ENDROOT
BRANCH   6  17
HETATM   17  C   UNK N   1      33.530  17.272   8.587  0.00  0.00     0.166 C 
BRANCH  17  18
HETATM   18  N   UNK N   1      32.625  17.319   7.465  0.00  0.00    -0.333 N 
HETATM   19  C   UNK N   1      33.123  17.531   6.221  0.00  0.00     0.361 C 
HETATM   20  O   UNK N   1      34.330  17.671   6.068  0.00  0.00    -0.238 OA
HETATM   21  H   UNK N   1      31.656  17.200   7.600  0.00  0.00     0.165 HD
BRANCH  19  22
HETATM   22  O   UNK N   1      32.279  17.551   5.150  0.00  0.00    -0.294 OA
BRANCH  22  23
HETATM   23  C   UNK N   1      31.996  16.510   4.265  0.00  0.00     0.061 C 
HETATM   24  C   UNK N   1      30.520  16.540   3.921  0.00  0.00     0.046 C 
HETATM   25  C   UNK N   1      32.785  16.735   2.994  0.00  0.00     0.046 C 
HETATM   26  C   UNK N   1      32.350  15.116   4.772  0.00  0.00     0.046 C 
ENDBRANCH  22  23
ENDBRANCH  19  22
ENDBRANCH  17  18
ENDBRANCH   6  17
TORSDOF 4
ENDMDL
MODEL 2
REMARK VINA RESULT:      -6.5      2.165      6.946
REMARK  4 active torsions:
REMARK  status: ('A' for Active; 'I' for Inactive)
REMARK       I    between atoms: C_1  and  N_14 
REMARK    1  A    between atoms: C_6  and  C_7 
REMARK    2  A    between atoms: C_7  and  N_8 
REMARK       I    between atoms: N_8  and  C_15 
REMARK    3  A    between atoms: C_15  and  O_21 
REMARK    4  A    between atoms: C_18  and  O_21 
ROOT
HETATM    1  C   UNK N   1      31.324  17.146   4.077  0.00  0.00     0.680 A 
HETATM    2  N   UNK N   1      32.653  17.346   4.352  0.00  0.00    -0.155 N 
HETATM    3  C   UNK N   1      33.102  17.410   5.649  0.00  0.00     0.274 A 
HETATM    4  O   UNK N   1      34.283  17.588   5.888  0.00  0.00    -0.267 OA
HETATM    5  C   UNK N   1      32.171  17.268   6.671  0.00  0.00     0.086 A 
HETATM    6  C   UNK N   1      32.277  17.281   8.035  0.00  0.00    -0.005 A 
HETATM    7  C   UNK N   1      30.987  17.086   8.531  0.00  0.00     0.099 A 
HETATM    8  N   UNK N   1      30.119  16.957   7.490  0.00  0.00    -0.350 N 
HETATM    9  C   UNK N   1      30.866  17.071   6.375  0.00  0.00     0.137 A 
HETATM   10  N   UNK N   1      30.418  17.007   5.096  0.00  0.00    -0.176 N 
ATOM     11  HN  UNK N   1      29.429  16.858   4.898  1.00  0.00     0.186 HD
HETATM   12  N   UNK N   1      30.892  17.085   2.739  0.00  0.00    -0.234 N 
HETATM   13  H   UNK N   1      33.294  17.444   3.611  0.00  0.00     0.187 HD
HETATM   14  H   UNK N   1      29.147  16.810   7.541  0.00  0.00     0.166 HD
HETATM   15  H   UNK N   1      31.538  17.203   2.007  0.00  0.00     0.174 HD
HETATM   16  H   UNK N   1      29.942  16.924   2.536  0.00  0.00     0.174 HD
ENDROOT
BRANCH   6  17
HETATM   17  C   UNK N   1      33.565  17.473   8.765  0.00  0.00     0.166 C 
BRANCH  17  18
HETATM   18  N   UNK N   1      33.856  16.464   9.754  0.00  0.00    -0.333 N 
HETATM   19  C   UNK N   1      34.982  16.578  10.503  0.00  0.00     0.361 C 
HETATM   20  O   UNK N   1      35.726  17.535  10.335  0.00  0.00    -0.238 OA
HETATM   21  H   UNK N   1      33.247  15.701   9.883  0.00  0.00     0.165 HD
BRANCH  19  22
HETATM   22  O   UNK N   1      35.254  15.644  11.459  0.00  0.00    -0.294 OA
BRANCH  22  23
HETATM   23  C   UNK N   1      35.885  14.410  11.294  0.00  0.00     0.061 C 
HETATM   24  C   UNK N   1      36.417  13.943  12.633  0.00  0.00     0.046 C 
HETATM   25  C   UNK N   1      34.857  13.409  10.815  0.00  0.00     0.046 C 
HETATM   26  C   UNK N   1      37.027  14.398  10.283  0.00  0.00     0.046 C 
ENDBRANCH  22  23
ENDBRANCH  19  22
ENDBRANCH  17  18
ENDBRANCH   6  17
TORSDOF 4
ENDMDL
MODEL 3
REMARK VINA RESULT:      -6.4      3.425      7.937
REMARK  4 active torsions:
REMARK  status: ('A' for Active; 'I' for Inactive)
REMARK       I    between atoms: C_1  and  N_14 
REMARK    1  A    between atoms: C_6  and  C_7 
REMARK    2  A    between atoms: C_7  and  N_8 
REMARK       I    between atoms: N_8  and  C_15 
REMARK    3  A    between atoms: C_15  and  O_21 
REMARK    4  A    between atoms: C_18  and  O_21 
ROOT
HETATM    1  C   UNK N   1      33.415  16.805   9.180  0.00  0.00     0.680 A 
HETATM    2  N   UNK N   1      34.586  17.159   9.802  0.00  0.00    -0.155 N 
HETATM    3  C   UNK N   1      35.407  16.206  10.352  0.00  0.00     0.274 A 
HETATM    4  O   UNK N   1      36.445  16.526  10.904  0.00  0.00    -0.267 OA
HETATM    5  C   UNK N   1      35.018  14.876  10.262  0.00  0.00     0.086 A 
HETATM    6  C   UNK N   1      35.586  13.707  10.693  0.00  0.00    -0.005 A 
HETATM    7  C   UNK N   1      34.719  12.683  10.307  0.00  0.00     0.099 A 
HETATM    8  N   UNK N   1      33.650  13.220   9.656  0.00  0.00    -0.350 N 
HETATM    9  C   UNK N   1      33.859  14.550   9.644  0.00  0.00     0.137 A 
HETATM   10  N   UNK N   1      33.045  15.488   9.099  0.00  0.00    -0.176 N 
ATOM     11  HN  UNK N   1      32.176  15.218   8.638  1.00  0.00     0.186 HD
HETATM   12  N   UNK N   1      32.592  17.802   8.625  0.00  0.00    -0.234 N 
HETATM   13  H   UNK N   1      34.840  18.109   9.854  0.00  0.00     0.187 HD
HETATM   14  H   UNK N   1      32.884  12.735   9.273  0.00  0.00     0.166 HD
HETATM   15  H   UNK N   1      32.848  18.749   8.699  0.00  0.00     0.174 HD
HETATM   16  H   UNK N   1      31.759  17.552   8.162  0.00  0.00     0.174 HD
ENDROOT
BRANCH   6  17
HETATM   17  C   UNK N   1      36.884  13.638  11.426  0.00  0.00     0.166 C 
BRANCH  17  18
HETATM   18  N   UNK N   1      36.783  13.808  12.854  0.00  0.00    -0.333 N 
HETATM   19  C   UNK N   1      36.784  12.710  13.653  0.00  0.00     0.361 C 
HETATM   20  O   UNK N   1      36.878  11.597  13.151  0.00  0.00    -0.238 OA
HETATM   21  H   UNK N   1      36.713  14.708  13.246  0.00  0.00     0.165 HD
BRANCH  19  22
HETATM   22  O   UNK N   1      36.716  12.860  15.006  0.00  0.00    -0.294 OA
BRANCH  22  23
HETATM   23  C   UNK N   1      35.723  12.392  15.869  0.00  0.00     0.061 C 
HETATM   24  C   UNK N   1      36.190  11.098  16.504  0.00  0.00     0.046 C 
HETATM   25  C   UNK N   1      35.523  13.415  16.966  0.00  0.00     0.046 C 
HETATM   26  C   UNK N   1      34.363  12.155  15.222  0.00  0.00     0.046 C 
ENDBRANCH  22  23
ENDBRANCH  19  22
ENDBRANCH  17  18
ENDBRANCH   6  17
TORSDOF 4
ENDMDL
MODEL 4
REMARK VINA RESULT:      -6.2     13.262     15.662
REMARK  4 active torsions:
REMARK  status: ('A' for Active; 'I' for Inactive)
REMARK       I    between atoms: C_1  and  N_14 
REMARK    1  A    between atoms: C_6  and  C_7 
REMARK    2  A    between atoms: C_7  and  N_8 
REMARK       I    between atoms: N_8  and  C_15 
REMARK    3  A    between atoms: C_15  and  O_21 
REMARK    4  A    between atoms: C_18  and  O_21 
ROOT
HETATM    1  C   UNK N   1      33.284  20.040  -4.024  0.00  0.00     0.680 A 
HETATM    2  N   UNK N   1      32.927  20.850  -2.976  0.00  0.00    -0.155 N 
HETATM    3  C   UNK N   1      31.804  21.638  -3.046  0.00  0.00     0.274 A 
HETATM    4  O   UNK N   1      31.491  22.356  -2.112  0.00  0.00    -0.267 OA
HETATM    5  C   UNK N   1      31.044  21.592  -4.208  0.00  0.00     0.086 A 
HETATM    6  C   UNK N   1      29.899  22.232  -4.598  0.00  0.00    -0.005 A 
HETATM    7  C   UNK N   1      29.611  21.774  -5.885  0.00  0.00     0.099 A 
HETATM    8  N   UNK N   1      30.561  20.875  -6.265  0.00  0.00    -0.350 N 
HETATM    9  C   UNK N   1      31.416  20.786  -5.228  0.00  0.00     0.137 A 
HETATM   10  N   UNK N   1      32.524  20.005  -5.164  0.00  0.00    -0.176 N 
ATOM     11  HN  UNK N   1      32.784  19.405  -5.946  1.00  0.00     0.186 HD
HETATM   12  N   UNK N   1      34.440  19.243  -3.925  0.00  0.00    -0.234 N 
HETATM   13  H   UNK N   1      33.482  20.866  -2.163  0.00  0.00     0.187 HD
HETATM   14  H   UNK N   1      30.613  20.391  -7.121  0.00  0.00     0.166 HD
HETATM   15  H   UNK N   1      34.997  19.281  -3.115  0.00  0.00     0.174 HD
HETATM   16  H   UNK N   1      34.691  18.647  -4.668  0.00  0.00     0.174 HD
ENDROOT
BRANCH   6  17
HETATM   17  C   UNK N   1      29.166  23.214  -3.745  0.00  0.00     0.166 C 
BRANCH  17  18
HETATM   18  N   UNK N   1      28.181  24.004  -4.442  0.00  0.00    -0.333 N 
HETATM   19  C   UNK N   1      27.046  24.367  -3.794  0.00  0.00     0.361 C 
HETATM   20  O   UNK N   1      26.878  24.027  -2.629  0.00  0.00    -0.238 OA
HETATM   21  H   UNK N   1      28.330  24.276  -5.376  0.00  0.00     0.165 HD
BRANCH  19  22
HETATM   22  O   UNK N   1      26.119  25.136  -4.434  0.00  0.00    -0.294 OA
BRANCH  22  23
HETATM   23  C   UNK N   1      26.118  26.524  -4.585  0.00  0.00     0.061 C 
HETATM   24  C   UNK N   1      27.395  26.948  -5.280  0.00  0.00     0.046 C 
HETATM   25  C   UNK N   1      24.948  26.907  -5.465  0.00  0.00     0.046 C 
HETATM   26  C   UNK N   1      25.982  27.315  -3.288  0.00  0.00     0.046 C 
ENDBRANCH  22  23
ENDBRANCH  19  22
ENDBRANCH  17  18
ENDBRANCH   6  17
TORSDOF 4
ENDMDL
MODEL 5
REMARK VINA RESULT:      -6.1      3.499      5.612
REMARK  4 active torsions:
REMARK  status: ('A' for Active; 'I' for Inactive)
REMARK       I    between atoms: C_1  and  N_14 
REMARK    1  A    between atoms: C_6  and  C_7 
REMARK    2  A    between atoms: C_7  and  N_8 
REMARK       I    between atoms: N_8  and  C_15 
REMARK    3  A    between atoms: C_15  and  O_21 
REMARK    4  A    between atoms: C_18  and  O_21 
ROOT
HETATM    1  C   UNK N   1      33.783  17.281   8.811  0.00  0.00     0.680 A 
HETATM    2  N   UNK N   1      32.460  16.973   9.003  0.00  0.00    -0.155 N 
HETATM    3  C   UNK N   1      31.597  16.884   7.938  0.00  0.00     0.274 A 
HETATM    4  O   UNK N   1      30.423  16.610   8.114  0.00  0.00    -0.267 OA
HETATM    5  C   UNK N   1      32.101  17.116   6.665  0.00  0.00     0.086 A 
HETATM    6  C   UNK N   1      31.531  17.110   5.421  0.00  0.00    -0.005 A 
HETATM    7  C   UNK N   1      32.550  17.420   4.519  0.00  0.00     0.099 A 
HETATM    8  N   UNK N   1      33.713  17.610   5.203  0.00  0.00    -0.350 N 
HETATM    9  C   UNK N   1      33.410  17.419   6.501  0.00  0.00     0.137 A 
HETATM   10  N   UNK N   1      34.267  17.508   7.549  0.00  0.00    -0.176 N 
ATOM     11  HN  UNK N   1      35.249  17.737   7.400  1.00  0.00     0.186 HD
HETATM   12  N   UNK N   1      34.646  17.367   9.920  0.00  0.00    -0.234 N 
HETATM   13  H   UNK N   1      32.126  16.813   9.915  0.00  0.00     0.187 HD
HETATM   14  H   UNK N   1      34.593  17.838   4.825  0.00  0.00     0.166 HD
HETATM   15  H   UNK N   1      34.296  17.223  10.828  0.00  0.00     0.174 HD
HETATM   16  H   UNK N   1      35.600  17.571   9.786  0.00  0.00     0.174 HD
ENDROOT
BRANCH   6  17
HETATM   17  C   UNK N   1      30.089  16.816   5.172  0.00  0.00     0.166 C 
BRANCH  17  18
HETATM   18  N   UNK N   1      29.385  17.828   4.423  0.00  0.00    -0.333 N 
HETATM   19  C   UNK N   1      28.595  18.711   5.084  0.00  0.00     0.361 C 
HETATM   20  O   UNK N   1      28.496  18.641   6.303  0.00  0.00    -0.238 OA
HETATM   21  H   UNK N   1      29.476  17.877   3.444  0.00  0.00     0.165 HD
BRANCH  19  22
HETATM   22  O   UNK N   1      27.946  19.688   4.389  0.00  0.00    -0.294 OA
BRANCH  22  23
HETATM   23  C   UNK N   1      26.572  19.926   4.329  0.00  0.00     0.061 C 
HETATM   24  C   UNK N   1      26.248  20.633   3.029  0.00  0.00     0.046 C 
HETATM   25  C   UNK N   1      25.856  18.593   4.337  0.00  0.00     0.046 C 
HETATM   26  C   UNK N   1      26.007  20.746   5.484  0.00  0.00     0.046 C 
ENDBRANCH  22  23
ENDBRANCH  19  22
ENDBRANCH  17  18
ENDBRANCH   6  17
TORSDOF 4
ENDMDL
MODEL 6
REMARK VINA RESULT:      -6.1     11.056     12.850
REMARK  4 active torsions:
REMARK  status: ('A' for Active; 'I' for Inactive)
REMARK       I    between atoms: C_1  and  N_14 
REMARK    1  A    between atoms: C_6  and  C_7 
REMARK    2  A    between atoms: C_7  and  N_8 
REMARK       I    between atoms: N_8  and  C_15 
REMARK    3  A    between atoms: C_15  and  O_21 
REMARK    4  A    between atoms: C_18  and  O_21 
ROOT
HETATM    1  C   UNK N   1      22.958  11.984  11.816  0.00  0.00     0.680 A 
HETATM    2  N   UNK N   1      21.783  12.102  11.118  0.00  0.00    -0.155 N 
HETATM    3  C   UNK N   1      21.766  12.636   9.853  0.00  0.00     0.274 A 
HETATM    4  O   UNK N   1      20.719  12.739   9.237  0.00  0.00    -0.267 OA
HETATM    5  C   UNK N   1      22.971  13.054   9.302  0.00  0.00     0.086 A 
HETATM    6  C   UNK N   1      23.301  13.616   8.099  0.00  0.00    -0.005 A 
HETATM    7  C   UNK N   1      24.683  13.816   8.124  0.00  0.00     0.099 A 
HETATM    8  N   UNK N   1      25.178  13.384   9.316  0.00  0.00    -0.350 N 
HETATM    9  C   UNK N   1      24.118  12.927  10.010  0.00  0.00     0.137 A 
HETATM   10  N   UNK N   1      24.140  12.400  11.259  0.00  0.00    -0.176 N 
ATOM     11  HN  UNK N   1      25.016  12.315  11.773  1.00  0.00     0.186 HD
HETATM   12  N   UNK N   1      22.946  11.434  13.111  0.00  0.00    -0.234 N 
HETATM   13  H   UNK N   1      20.941  11.800  11.529  0.00  0.00     0.187 HD
HETATM   14  H   UNK N   1      26.118  13.401   9.611  0.00  0.00     0.166 HD
HETATM   15  H   UNK N   1      22.097  11.152  13.519  0.00  0.00     0.174 HD
HETATM   16  H   UNK N   1      23.790  11.331  13.609  0.00  0.00     0.174 HD
ENDROOT
BRANCH   6  17
HETATM   17  C   UNK N   1      22.309  13.920   7.026  0.00  0.00     0.166 C 
BRANCH  17  18
HETATM   18  N   UNK N   1      21.462  15.057   7.290  0.00  0.00    -0.333 N 
HETATM   19  C   UNK N   1      20.177  15.040   6.852  0.00  0.00     0.361 C 
HETATM   20  O   UNK N   1      19.756  14.061   6.250  0.00  0.00    -0.238 OA
HETATM   21  H   UNK N   1      21.811  15.836   7.780  0.00  0.00     0.165 HD
BRANCH  19  22
HETATM   22  O   UNK N   1      19.360  16.098   7.119  0.00  0.00    -0.294 OA
BRANCH  22  23
HETATM   23  C   UNK N   1      18.999  16.607   8.368  0.00  0.00     0.061 C 
HETATM   24  C   UNK N   1      19.303  15.570   9.430  0.00  0.00     0.046 C 
HETATM   25  C   UNK N   1      19.839  17.833   8.645  0.00  0.00     0.046 C 
HETATM   26  C   UNK N   1      17.538  17.025   8.498  0.00  0.00     0.046 C 
ENDBRANCH  22  23
ENDBRANCH  19  22
ENDBRANCH  17  18
ENDBRANCH   6  17
TORSDOF 4
ENDMDL
MODEL 7
REMARK VINA RESULT:      -6.1      8.617     12.687
REMARK  4 active torsions:
REMARK  status: ('A' for Active; 'I' for Inactive)
REMARK       I    between atoms: C_1  and  N_14 
REMARK    1  A    between atoms: C_6  and  C_7 
REMARK    2  A    between atoms: C_7  and  N_8 
REMARK       I    between atoms: N_8  and  C_15 
REMARK    3  A    between atoms: C_15  and  O_21 
REMARK    4  A    between atoms: C_18  and  O_21 
ROOT
HETATM    1  C   UNK N   1      19.962  18.925   2.738  0.00  0.00     0.680 A 
HETATM    2  N   UNK N   1      20.605  20.120   2.530  0.00  0.00    -0.155 N 
HETATM    3  C   UNK N   1      21.925  20.279   2.876  0.00  0.00     0.274 A 
HETATM    4  O   UNK N   1      22.490  21.342   2.690  0.00  0.00    -0.267 OA
HETATM    5  C   UNK N   1      22.588  19.197   3.442  0.00  0.00     0.086 A 
HETATM    6  C   UNK N   1      23.869  19.021   3.890  0.00  0.00    -0.005 A 
HETATM    7  C   UNK N   1      23.945  17.707   4.356  0.00  0.00     0.099 A 
HETATM    8  N   UNK N   1      22.736  17.101   4.193  0.00  0.00    -0.350 N 
HETATM    9  C   UNK N   1      21.934  18.029   3.636  0.00  0.00     0.137 A 
HETATM   10  N   UNK N   1      20.630  17.867   3.297  0.00  0.00    -0.176 N 
ATOM     11  HN  UNK N   1      20.158  16.977   3.454  1.00  0.00     0.186 HD
HETATM   12  N   UNK N   1      18.609  18.790   2.375  0.00  0.00    -0.234 N 
HETATM   13  H   UNK N   1      20.113  20.872   2.128  0.00  0.00     0.187 HD
HETATM   14  H   UNK N   1      22.497  16.176   4.432  0.00  0.00     0.166 HD
HETATM   15  H   UNK N   1      18.124  19.555   1.991  0.00  0.00     0.174 HD
HETATM   16  H   UNK N   1      18.148  17.930   2.506  0.00  0.00     0.174 HD
ENDROOT
BRANCH   6  17
HETATM   17  C   UNK N   1      24.916  20.083   3.848  0.00  0.00     0.166 C 
BRANCH  17  18
HETATM   18  N   UNK N   1      26.252  19.629   4.142  0.00  0.00    -0.333 N 
HETATM   19  C   UNK N   1      26.790  19.899   5.358  0.00  0.00     0.361 C 
HETATM   20  O   UNK N   1      26.133  20.516   6.187  0.00  0.00    -0.238 OA
HETATM   21  H   UNK N   1      26.769  19.130   3.469  0.00  0.00     0.165 HD
BRANCH  19  22
HETATM   22  O   UNK N   1      28.043  19.451   5.657  0.00  0.00    -0.294 OA
BRANCH  22  23
HETATM   23  C   UNK N   1      28.410  18.191   6.133  0.00  0.00     0.061 C 
HETATM   24  C   UNK N   1      29.563  17.665   5.302  0.00  0.00     0.046 C 
HETATM   25  C   UNK N   1      28.882  18.340   7.562  0.00  0.00     0.046 C 
HETATM   26  C   UNK N   1      27.295  17.151   6.134  0.00  0.00     0.046 C 
ENDBRANCH  22  23
ENDBRANCH  19  22
ENDBRANCH  17  18
ENDBRANCH   6  17
TORSDOF 4
ENDMDL
MODEL 8
REMARK VINA RESULT:      -6.1      3.340      6.980
REMARK  4 active torsions:
REMARK  status: ('A' for Active; 'I' for Inactive)
REMARK       I    between atoms: C_1  and  N_14 
REMARK    1  A    between atoms: C_6  and  C_7 
REMARK    2  A    between atoms: C_7  and  N_8 
REMARK       I    between atoms: N_8  and  C_15 
REMARK    3  A    between atoms: C_15  and  O_21 
REMARK    4  A    between atoms: C_18  and  O_21 
ROOT
HETATM    1  C   UNK N   1      27.617  16.459   6.404  0.00  0.00     0.680 A 
HETATM    2  N   UNK N   1      28.899  16.309   5.938  0.00  0.00    -0.155 N 
HETATM    3  C   UNK N   1      29.964  16.836   6.627  0.00  0.00     0.274 A 
HETATM    4  O   UNK N   1      31.101  16.701   6.209  0.00  0.00    -0.267 OA
HETATM    5  C   UNK N   1      29.705  17.525   7.805  0.00  0.00     0.086 A 
HETATM    6  C   UNK N   1      30.513  18.159   8.711  0.00  0.00    -0.005 A 
HETATM    7  C   UNK N   1      29.669  18.672   9.698  0.00  0.00     0.099 A 
HETATM    8  N   UNK N   1      28.380  18.355   9.397  0.00  0.00    -0.350 N 
HETATM    9  C   UNK N   1      28.433  17.659   8.244  0.00  0.00     0.137 A 
HETATM   10  N   UNK N   1      27.378  17.140   7.568  0.00  0.00    -0.176 N 
ATOM     11  HN  UNK N   1      26.427  17.255   7.919  1.00  0.00     0.186 HD
HETATM   12  N   UNK N   1      26.544  15.909   5.677  0.00  0.00    -0.234 N 
HETATM   13  H   UNK N   1      29.058  15.818   5.100  0.00  0.00     0.187 HD
HETATM   14  H   UNK N   1      27.574  18.585   9.915  0.00  0.00     0.166 HD
HETATM   15  H   UNK N   1      26.713  15.435   4.832  0.00  0.00     0.174 HD
HETATM   16  H   UNK N   1      25.624  15.998   6.016  0.00  0.00     0.174 HD
ENDROOT
BRANCH   6  17
HETATM   17  C   UNK N   1      31.998  18.236   8.585  0.00  0.00     0.166 C 
BRANCH  17  18
HETATM   18  N   UNK N   1      32.698  17.023   8.931  0.00  0.00    -0.333 N 
HETATM   19  C   UNK N   1      33.951  16.823   8.451  0.00  0.00     0.361 C 
HETATM   20  O   UNK N   1      34.470  17.675   7.740  0.00  0.00    -0.238 OA
HETATM   21  H   UNK N   1      32.272  16.348   9.507  0.00  0.00     0.165 HD
BRANCH  19  22
HETATM   22  O   UNK N   1      34.633  15.693   8.793  0.00  0.00    -0.294 OA
BRANCH  22  23
HETATM   23  C   UNK N   1      35.245  15.399  10.012  0.00  0.00     0.061 C 
HETATM   24  C   UNK N   1      35.491  16.690  10.766  0.00  0.00     0.046 C 
HETATM   25  C   UNK N   1      34.298  14.546  10.828  0.00  0.00     0.046 C 
HETATM   26  C   UNK N   1      36.561  14.635   9.909  0.00  0.00     0.046 C 
ENDBRANCH  22  23
ENDBRANCH  19  22
ENDBRANCH  17  18
ENDBRANCH   6  17
TORSDOF 4
ENDMDL
MODEL 9
REMARK VINA RESULT:      -6.0      3.218      7.699
REMARK  4 active torsions:
REMARK  status: ('A' for Active; 'I' for Inactive)
REMARK       I    between atoms: C_1  and  N_14 
REMARK    1  A    between atoms: C_6  and  C_7 
REMARK    2  A    between atoms: C_7  and  N_8 
REMARK       I    between atoms: N_8  and  C_15 
REMARK    3  A    between atoms: C_15  and  O_21 
REMARK    4  A    between atoms: C_18  and  O_21 
ROOT
HETATM    1  C   UNK N   1      34.378  16.118   6.517  0.00  0.00     0.680 A 
HETATM    2  N   UNK N   1      34.920  14.873   6.715  0.00  0.00    -0.155 N 
HETATM    3  C   UNK N   1      35.379  14.494   7.953  0.00  0.00     0.274 A 
HETATM    4  O   UNK N   1      35.860  13.387   8.123  0.00  0.00    -0.267 OA
HETATM    5  C   UNK N   1      35.278  15.406   8.995  0.00  0.00     0.086 A 
HETATM    6  C   UNK N   1      35.630  15.352  10.317  0.00  0.00    -0.005 A 
HETATM    7  C   UNK N   1      35.280  16.587  10.867  0.00  0.00     0.099 A 
HETATM    8  N   UNK N   1      34.728  17.370   9.900  0.00  0.00    -0.350 N 
HETATM    9  C   UNK N   1      34.740  16.627   8.776  0.00  0.00     0.137 A 
HETATM   10  N   UNK N   1      34.286  17.007   7.556  0.00  0.00    -0.176 N 
ATOM     11  HN  UNK N   1      33.884  17.933   7.415  1.00  0.00     0.186 HD
HETATM   12  N   UNK N   1      33.917  16.481   5.237  0.00  0.00    -0.234 N 
HETATM   13  H   UNK N   1      34.981  14.244   5.960  0.00  0.00     0.187 HD
HETATM   14  H   UNK N   1      34.388  18.289  10.001  0.00  0.00     0.166 HD
HETATM   15  H   UNK N   1      34.000  15.850   4.487  0.00  0.00     0.174 HD
HETATM   16  H   UNK N   1      33.511  17.367   5.094  0.00  0.00     0.174 HD
ENDROOT
BRANCH   6  17
HETATM   17  C   UNK N   1      36.261  14.162  10.960  0.00  0.00     0.166 C 
BRANCH  17  18
HETATM   18  N   UNK N   1      35.382  13.395  11.808  0.00  0.00    -0.333 N 
HETATM   19  C   UNK N   1      35.383  13.628  13.145  0.00  0.00     0.361 C 
HETATM   20  O   UNK N   1      36.122  14.488  13.608  0.00  0.00    -0.238 OA
HETATM   21  H   UNK N   1      34.789  12.710  11.422  0.00  0.00     0.165 HD
BRANCH  19  22
HETATM   22  O   UNK N   1      34.537  12.928  13.953  0.00  0.00    -0.294 OA
BRANCH  22  23
HETATM   23  C   UNK N   1      34.866  11.941  14.884  0.00  0.00     0.061 C 
HETATM   24  C   UNK N   1      34.884  12.554  16.269  0.00  0.00     0.046 C 
HETATM   25  C   UNK N   1      33.792  10.876  14.849  0.00  0.00     0.046 C 
HETATM   26  C   UNK N   1      36.199  11.242  14.641  0.00  0.00     0.046 C 
ENDBRANCH  22  23
ENDBRANCH  19  22
ENDBRANCH  17  18
ENDBRANCH   6  17
TORSDOF 4
ENDMDL
