REMARK  4 active torsions:
REMARK  status: ('A' for Active; 'I' for Inactive)
REMARK    1  A    between atoms: C_2  and  C_3 
REMARK       I    between atoms: C_3  and  N_9 
REMARK    2  A    between atoms: O_8  and  B_15 
REMARK    3  A    between atoms: C_11  and  B_15 
REMARK    4  A    between atoms: O_14  and  B_15 
ROOT
HETATM    1  C   UNK N   1      -0.556  -0.422   0.216  0.00  0.00     0.242 C 
HETATM    2  O   UNK N   1      -1.165  -1.470   0.355  0.00  0.00    -0.271 OA
HETATM    3  N   UNK N   1       0.815  -0.421   0.169  0.00  0.00    -0.349 N 
HETATM    4  C   UNK N   1       1.561   0.797   0.015  0.00  0.00     0.125 C 
HETATM    5  C   UNK N   1       1.641  -1.591   0.412  0.00  0.00     0.113 C 
HETATM    6  C   UNK N   1       3.067  -1.083   0.254  0.00  0.00     0.022 C 
HETATM    7  C   UNK N   1       2.995   0.433   0.345  0.00  0.00     0.021 C 
ENDROOT
BRANCH   1   8
HETATM    8  C   UNK N   1      -1.334   0.884   0.170  0.00  0.00     0.169 C 
HETATM    9  N   UNK N   1      -1.091   1.641  -1.046  0.00  0.00    -0.409 N 
HETATM   10  C   UNK N   1      -2.193   2.599  -1.099  0.00  0.00     0.114 C 
HETATM   11  H   UNK N   1      -0.325   1.529  -1.711  0.00  0.00     0.154 HD
HETATM   12  C   UNK N   1      -3.343   2.035  -0.276  0.00  0.00     0.022 C 
HETATM   13  C   UNK N   1      -2.834   0.709   0.236  0.00  0.00     0.036 C 
ENDBRANCH   1   8
BRANCH   5  14
HETATM   14  B   UNK N   1       1.415  -2.849  -0.569  0.00  0.00     0.515 B 
BRANCH  14  15
HETATM   15  O   UNK N   1       2.525  -3.365  -1.369  0.00  0.00    -0.436 OA
HETATM   16  H   UNK N   1       2.597  -4.173  -1.900  0.00  0.00     0.184 HD
ENDBRANCH  14  15
BRANCH  14  17
HETATM   17  O   UNK N   1       0.173  -3.613  -0.509  0.00  0.00    -0.436 OA
HETATM   18  H   UNK N   1      -0.680  -3.151  -0.469  0.00  0.00     0.184 HD
ENDBRANCH  14  17
ENDBRANCH   5  14
TORSDOF 4
