MODEL 1
REMARK VINA RESULT:      -5.8      0.000      0.000
REMARK  3 active torsions:
REMARK  status: ('A' for Active; 'I' for Inactive)
REMARK    1  A    between atoms: C_2  and  C_7 
REMARK    2  A    between atoms: C_3  and  S_13 
REMARK    3  A    between atoms: S_13  and  O_14 
ROOT
HETATM    1  C   UNK N   1      26.539  26.850  -3.590  0.00  0.00     0.014 A 
HETATM    2  C   UNK N   1      26.867  25.667  -4.282  0.00  0.00    -0.004 A 
HETATM    3  C   UNK N   1      26.161  25.381  -5.501  0.00  0.00     0.070 A 
HETATM    4  C   UNK N   1      25.195  26.296  -5.956  0.00  0.00     0.024 A 
HETATM    5  C   UNK N   1      24.899  27.455  -5.244  0.00  0.00     0.002 A 
HETATM    6  C   UNK N   1      25.569  27.731  -4.060  0.00  0.00     0.001 A 
ENDROOT
BRANCH   2   7
HETATM    7  C   UNK N   1      27.938  24.802  -3.675  0.00  0.00    -0.025 A 
HETATM    8  C   UNK N   1      29.284  25.025  -4.029  0.00  0.00     0.012 A 
HETATM    9  C   UNK N   1      30.312  24.253  -3.480  0.00  0.00     0.001 A 
HETATM   10  C   UNK N   1      30.012  23.245  -2.564  0.00  0.00     0.000 A 
HETATM   11  C   UNK N   1      28.686  23.004  -2.205  0.00  0.00     0.001 A 
HETATM   12  C   UNK N   1      27.661  23.776  -2.759  0.00  0.00     0.012 A 
ENDBRANCH   2   7
BRANCH   3  13
HETATM   13  S   UNK N   1      26.463  23.913  -6.529  0.00  0.00     0.188 S 
HETATM   14  O   UNK N   1      25.369  23.090  -5.831  0.00  0.00    -0.223 OA
BRANCH  13  15
HETATM   15  O   UNK N   1      25.369  24.361  -7.778  0.00  0.00    -0.302 OA
HETATM   16  H   UNK N   1      25.337  23.918  -8.641  0.00  0.00     0.230 HD
ENDBRANCH  13  15
ENDBRANCH   3  13
TORSDOF 3
ENDMDL
MODEL 2
REMARK VINA RESULT:      -5.7     13.448     15.310
REMARK  3 active torsions:
REMARK  status: ('A' for Active; 'I' for Inactive)
REMARK    1  A    between atoms: C_2  and  C_7 
REMARK    2  A    between atoms: C_3  and  S_13 
REMARK    3  A    between atoms: S_13  and  O_14 
ROOT
HETATM    1  C   UNK N   1      30.752  17.221   5.741  0.00  0.00     0.014 A 
HETATM    2  C   UNK N   1      30.661  17.209   7.148  0.00  0.00    -0.004 A 
HETATM    3  C   UNK N   1      29.384  17.496   7.742  0.00  0.00     0.070 A 
HETATM    4  C   UNK N   1      28.287  17.754   6.901  0.00  0.00     0.024 A 
HETATM    5  C   UNK N   1      28.417  17.757   5.515  0.00  0.00     0.002 A 
HETATM    6  C   UNK N   1      29.650  17.493   4.935  0.00  0.00     0.001 A 
ENDROOT
BRANCH   2   7
HETATM    7  C   UNK N   1      31.922  16.894   7.906  0.00  0.00    -0.025 A 
HETATM    8  C   UNK N   1      32.927  17.878   8.007  0.00  0.00     0.012 A 
HETATM    9  C   UNK N   1      34.108  17.632   8.711  0.00  0.00     0.001 A 
HETATM   10  C   UNK N   1      34.305  16.398   9.331  0.00  0.00     0.000 A 
HETATM   11  C   UNK N   1      33.326  15.410   9.238  0.00  0.00     0.001 A 
HETATM   12  C   UNK N   1      32.147  15.658   8.529  0.00  0.00     0.012 A 
ENDBRANCH   2   7
BRANCH   3  13
HETATM   13  S   UNK N   1      29.078  17.509   9.533  0.00  0.00     0.188 S 
HETATM   14  O   UNK N   1      29.711  18.896   9.720  0.00  0.00    -0.223 OA
BRANCH  13  15
HETATM   15  O   UNK N   1      27.510  18.207   9.426  0.00  0.00    -0.302 OA
HETATM   16  H   UNK N   1      26.711  17.693   9.230  0.00  0.00     0.230 HD
ENDBRANCH  13  15
ENDBRANCH   3  13
TORSDOF 3
ENDMDL
MODEL 3
REMARK VINA RESULT:      -5.7     22.789     24.351
REMARK  3 active torsions:
REMARK  status: ('A' for Active; 'I' for Inactive)
REMARK    1  A    between atoms: C_2  and  C_7 
REMARK    2  A    between atoms: C_3  and  S_13 
REMARK    3  A    between atoms: S_13  and  O_14 
ROOT
HETATM    1  C   UNK N   1      37.487  11.560  14.553  0.00  0.00     0.014 A 
HETATM    2  C   UNK N   1      36.877  12.813  14.343  0.00  0.00    -0.004 A 
HETATM    3  C   UNK N   1      36.601  13.210  12.990  0.00  0.00     0.070 A 
HETATM    4  C   UNK N   1      36.932  12.330  11.944  0.00  0.00     0.024 A 
HETATM    5  C   UNK N   1      37.534  11.099  12.191  0.00  0.00     0.002 A 
HETATM    6  C   UNK N   1      37.813  10.715  13.496  0.00  0.00     0.001 A 
ENDROOT
BRANCH   2   7
HETATM    7  C   UNK N   1      36.567  13.629  15.569  0.00  0.00    -0.025 A 
HETATM    8  C   UNK N   1      35.596  13.163  16.478  0.00  0.00     0.012 A 
HETATM    9  C   UNK N   1      35.285  13.883  17.634  0.00  0.00     0.001 A 
HETATM   10  C   UNK N   1      35.942  15.083  17.905  0.00  0.00     0.000 A 
HETATM   11  C   UNK N   1      36.902  15.565  17.015  0.00  0.00     0.001 A 
HETATM   12  C   UNK N   1      37.207  14.844  15.857  0.00  0.00     0.012 A 
ENDBRANCH   2   7
BRANCH   3  13
HETATM   13  S   UNK N   1      35.808  14.779  12.533  0.00  0.00     0.188 S 
HETATM   14  O   UNK N   1      36.343  14.734  11.094  0.00  0.00    -0.223 OA
BRANCH  13  15
HETATM   15  O   UNK N   1      34.321  14.072  12.034  0.00  0.00    -0.302 OA
HETATM   16  H   UNK N   1      34.224  13.130  11.826  0.00  0.00     0.230 HD
ENDBRANCH  13  15
ENDBRANCH   3  13
TORSDOF 3
ENDMDL
MODEL 4
REMARK VINA RESULT:      -5.6     23.378     25.608
REMARK  3 active torsions:
REMARK  status: ('A' for Active; 'I' for Inactive)
REMARK    1  A    between atoms: C_2  and  C_7 
REMARK    2  A    between atoms: C_3  and  S_13 
REMARK    3  A    between atoms: S_13  and  O_14 
ROOT
HETATM    1  C   UNK N   1      34.042  10.671  15.095  0.00  0.00     0.014 A 
HETATM    2  C   UNK N   1      34.852  11.760  15.475  0.00  0.00    -0.004 A 
HETATM    3  C   UNK N   1      35.410  12.580  14.435  0.00  0.00     0.070 A 
HETATM    4  C   UNK N   1      35.110  12.274  13.096  0.00  0.00     0.024 A 
HETATM    5  C   UNK N   1      34.305  11.189  12.760  0.00  0.00     0.002 A 
HETATM    6  C   UNK N   1      33.773  10.386  13.760  0.00  0.00     0.001 A 
ENDROOT
BRANCH   2   7
HETATM    7  C   UNK N   1      35.061  11.966  16.951  0.00  0.00    -0.025 A 
HETATM    8  C   UNK N   1      34.919  13.260  17.491  0.00  0.00     0.012 A 
HETATM    9  C   UNK N   1      35.093  13.495  18.858  0.00  0.00     0.001 A 
HETATM   10  C   UNK N   1      35.408  12.438  19.711  0.00  0.00     0.000 A 
HETATM   11  C   UNK N   1      35.559  11.151  19.196  0.00  0.00     0.001 A 
HETATM   12  C   UNK N   1      35.389  10.921  17.828  0.00  0.00     0.012 A 
ENDBRANCH   2   7
BRANCH   3  13
HETATM   13  S   UNK N   1      36.462  14.029  14.740  0.00  0.00     0.188 S 
HETATM   14  O   UNK N   1      37.713  13.177  15.003  0.00  0.00    -0.223 OA
BRANCH  13  15
HETATM   15  O   UNK N   1      36.920  14.247  13.096  0.00  0.00    -0.302 OA
HETATM   16  H   UNK N   1      37.519  13.646  12.627  0.00  0.00     0.230 HD
ENDBRANCH  13  15
ENDBRANCH   3  13
TORSDOF 3
ENDMDL
MODEL 5
REMARK VINA RESULT:      -5.5     13.880     15.095
REMARK  3 active torsions:
REMARK  status: ('A' for Active; 'I' for Inactive)
REMARK    1  A    between atoms: C_2  and  C_7 
REMARK    2  A    between atoms: C_3  and  S_13 
REMARK    3  A    between atoms: S_13  and  O_14 
ROOT
HETATM    1  C   UNK N   1      30.231  17.217   6.439  0.00  0.00     0.014 A 
HETATM    2  C   UNK N   1      31.611  16.932   6.456  0.00  0.00    -0.004 A 
HETATM    3  C   UNK N   1      32.353  17.265   7.641  0.00  0.00     0.070 A 
HETATM    4  C   UNK N   1      31.672  17.836   8.730  0.00  0.00     0.024 A 
HETATM    5  C   UNK N   1      30.307  18.103   8.676  0.00  0.00     0.002 A 
HETATM    6  C   UNK N   1      29.587  17.795   7.529  0.00  0.00     0.001 A 
ENDROOT
BRANCH   2   7
HETATM    7  C   UNK N   1      32.188  16.300   5.218  0.00  0.00    -0.025 A 
HETATM    8  C   UNK N   1      32.556  17.122   4.134  0.00  0.00     0.012 A 
HETATM    9  C   UNK N   1      33.106  16.578   2.970  0.00  0.00     0.001 A 
HETATM   10  C   UNK N   1      33.300  15.201   2.870  0.00  0.00     0.000 A 
HETATM   11  C   UNK N   1      32.937  14.369   3.929  0.00  0.00     0.001 A 
HETATM   12  C   UNK N   1      32.383  14.917   5.089  0.00  0.00     0.012 A 
ENDBRANCH   2   7
BRANCH   3  13
HETATM   13  S   UNK N   1      34.132  16.956   7.845  0.00  0.00     0.188 S 
HETATM   14  O   UNK N   1      34.523  18.347   7.324  0.00  0.00    -0.223 OA
BRANCH  13  15
HETATM   15  O   UNK N   1      34.209  17.511   9.471  0.00  0.00    -0.302 OA
HETATM   16  H   UNK N   1      33.890  18.383   9.751  0.00  0.00     0.230 HD
ENDBRANCH  13  15
ENDBRANCH   3  13
TORSDOF 3
ENDMDL
MODEL 6
REMARK VINA RESULT:      -5.4     14.050     14.640
REMARK  3 active torsions:
REMARK  status: ('A' for Active; 'I' for Inactive)
REMARK    1  A    between atoms: C_2  and  C_7 
REMARK    2  A    between atoms: C_3  and  S_13 
REMARK    3  A    between atoms: S_13  and  O_14 
ROOT
HETATM    1  C   UNK N   1      29.656  15.557   5.702  0.00  0.00     0.014 A 
HETATM    2  C   UNK N   1      29.854  16.627   6.597  0.00  0.00    -0.004 A 
HETATM    3  C   UNK N   1      28.693  17.233   7.190  0.00  0.00     0.070 A 
HETATM    4  C   UNK N   1      27.423  16.723   6.868  0.00  0.00     0.024 A 
HETATM    5  C   UNK N   1      27.268  15.664   5.978  0.00  0.00     0.002 A 
HETATM    6  C   UNK N   1      28.385  15.082   5.393  0.00  0.00     0.001 A 
ENDROOT
BRANCH   2   7
HETATM    7  C   UNK N   1      31.277  17.042   6.854  0.00  0.00    -0.025 A 
HETATM    8  C   UNK N   1      32.168  17.149   5.766  0.00  0.00     0.012 A 
HETATM    9  C   UNK N   1      33.496  17.542   5.958  0.00  0.00     0.001 A 
HETATM   10  C   UNK N   1      33.956  17.839   7.241  0.00  0.00     0.000 A 
HETATM   11  C   UNK N   1      33.092  17.734   8.330  0.00  0.00     0.001 A 
HETATM   12  C   UNK N   1      31.766  17.336   8.135  0.00  0.00     0.012 A 
ENDBRANCH   2   7
BRANCH   3  13
HETATM   13  S   UNK N   1      28.759  18.609   8.374  0.00  0.00     0.188 S 
HETATM   14  O   UNK N   1      27.806  19.485   7.545  0.00  0.00    -0.223 OA
BRANCH  13  15
HETATM   15  O   UNK N   1      27.451  18.054   9.343  0.00  0.00    -0.302 OA
HETATM   16  H   UNK N   1      26.919  18.638   9.905  0.00  0.00     0.230 HD
ENDBRANCH  13  15
ENDBRANCH   3  13
TORSDOF 3
ENDMDL
MODEL 7
REMARK VINA RESULT:      -5.3     24.474     26.773
REMARK  3 active torsions:
REMARK  status: ('A' for Active; 'I' for Inactive)
REMARK    1  A    between atoms: C_2  and  C_7 
REMARK    2  A    between atoms: C_3  and  S_13 
REMARK    3  A    between atoms: S_13  and  O_14 
ROOT
HETATM    1  C   UNK N   1      34.647   9.387  17.923  0.00  0.00     0.014 A 
HETATM    2  C   UNK N   1      34.899  10.427  17.005  0.00  0.00    -0.004 A 
HETATM    3  C   UNK N   1      35.207  11.729  17.530  0.00  0.00     0.070 A 
HETATM    4  C   UNK N   1      35.261  11.903  18.924  0.00  0.00     0.024 A 
HETATM    5  C   UNK N   1      35.005  10.851  19.799  0.00  0.00     0.002 A 
HETATM    6  C   UNK N   1      34.696   9.593  19.298  0.00  0.00     0.001 A 
ENDROOT
BRANCH   2   7
HETATM    7  C   UNK N   1      34.823  10.075  15.544  0.00  0.00    -0.025 A 
HETATM    8  C   UNK N   1      33.822  10.665  14.746  0.00  0.00     0.012 A 
HETATM    9  C   UNK N   1      33.722  10.375  13.383  0.00  0.00     0.001 A 
HETATM   10  C   UNK N   1      34.624   9.491  12.791  0.00  0.00     0.000 A 
HETATM   11  C   UNK N   1      35.618   8.892  13.564  0.00  0.00     0.001 A 
HETATM   12  C   UNK N   1      35.712   9.181  14.929  0.00  0.00     0.012 A 
ENDBRANCH   2   7
BRANCH   3  13
HETATM   13  S   UNK N   1      35.574  13.179  16.499  0.00  0.00     0.188 S 
HETATM   14  O   UNK N   1      34.090  13.489  16.251  0.00  0.00    -0.223 OA
BRANCH  13  15
HETATM   15  O   UNK N   1      35.621  14.300  17.803  0.00  0.00    -0.302 OA
HETATM   16  H   UNK N   1      36.422  14.484  18.317  0.00  0.00     0.230 HD
ENDBRANCH  13  15
ENDBRANCH   3  13
TORSDOF 3
ENDMDL
MODEL 8
REMARK VINA RESULT:      -5.3      2.619      3.035
REMARK  3 active torsions:
REMARK  status: ('A' for Active; 'I' for Inactive)
REMARK    1  A    between atoms: C_2  and  C_7 
REMARK    2  A    between atoms: C_3  and  S_13 
REMARK    3  A    between atoms: S_13  and  O_14 
ROOT
HETATM    1  C   UNK N   1      26.596  24.805  -5.958  0.00  0.00     0.014 A 
HETATM    2  C   UNK N   1      27.051  25.459  -4.796  0.00  0.00    -0.004 A 
HETATM    3  C   UNK N   1      26.581  26.793  -4.545  0.00  0.00     0.070 A 
HETATM    4  C   UNK N   1      25.679  27.377  -5.452  0.00  0.00     0.024 A 
HETATM    5  C   UNK N   1      25.252  26.699  -6.591  0.00  0.00     0.002 A 
HETATM    6  C   UNK N   1      25.712  25.414  -6.845  0.00  0.00     0.001 A 
ENDROOT
BRANCH   2   7
HETATM    7  C   UNK N   1      27.999  24.691  -3.914  0.00  0.00    -0.025 A 
HETATM    8  C   UNK N   1      29.388  24.843  -4.102  0.00  0.00     0.012 A 
HETATM    9  C   UNK N   1      30.304  24.157  -3.298  0.00  0.00     0.001 A 
HETATM   10  C   UNK N   1      29.846  23.310  -2.289  0.00  0.00     0.000 A 
HETATM   11  C   UNK N   1      28.476  23.142  -2.091  0.00  0.00     0.001 A 
HETATM   12  C   UNK N   1      27.564  23.825  -2.900  0.00  0.00     0.012 A 
ENDBRANCH   2   7
BRANCH   3  13
HETATM   13  S   UNK N   1      27.049  27.778  -3.092  0.00  0.00     0.188 S 
HETATM   14  O   UNK N   1      25.980  28.847  -3.361  0.00  0.00    -0.223 OA
BRANCH  13  15
HETATM   15  O   UNK N   1      26.002  26.964  -1.997  0.00  0.00    -0.302 OA
HETATM   16  H   UNK N   1      26.297  26.607  -1.145  0.00  0.00     0.230 HD
ENDBRANCH  13  15
ENDBRANCH   3  13
TORSDOF 3
ENDMDL
MODEL 9
REMARK VINA RESULT:      -5.2     12.234     14.191
REMARK  3 active torsions:
REMARK  status: ('A' for Active; 'I' for Inactive)
REMARK    1  A    between atoms: C_2  and  C_7 
REMARK    2  A    between atoms: C_3  and  S_13 
REMARK    3  A    between atoms: S_13  and  O_14 
ROOT
HETATM    1  C   UNK N   1      29.866  17.322   5.305  0.00  0.00     0.014 A 
HETATM    2  C   UNK N   1      29.036  17.926   6.271  0.00  0.00    -0.004 A 
HETATM    3  C   UNK N   1      29.366  17.737   7.657  0.00  0.00     0.070 A 
HETATM    4  C   UNK N   1      30.504  16.978   7.985  0.00  0.00     0.024 A 
HETATM    5  C   UNK N   1      31.299  16.396   7.002  0.00  0.00     0.002 A 
HETATM    6  C   UNK N   1      30.979  16.566   5.662  0.00  0.00     0.001 A 
ENDROOT
BRANCH   2   7
HETATM    7  C   UNK N   1      27.868  18.724   5.757  0.00  0.00    -0.025 A 
HETATM    8  C   UNK N   1      26.749  18.045   5.235  0.00  0.00     0.012 A 
HETATM    9  C   UNK N   1      25.638  18.746   4.757  0.00  0.00     0.001 A 
HETATM   10  C   UNK N   1      25.624  20.140   4.796  0.00  0.00     0.000 A 
HETATM   11  C   UNK N   1      26.724  20.831   5.304  0.00  0.00     0.001 A 
HETATM   12  C   UNK N   1      27.835  20.126   5.776  0.00  0.00     0.012 A 
ENDBRANCH   2   7
BRANCH   3  13
HETATM   13  S   UNK N   1      28.421  18.453   9.033  0.00  0.00     0.188 S 
HETATM   14  O   UNK N   1      27.848  17.094   9.463  0.00  0.00    -0.223 OA
BRANCH  13  15
HETATM   15  O   UNK N   1      29.687  18.318  10.189  0.00  0.00    -0.302 OA
HETATM   16  H   UNK N   1      29.812  18.946  10.917  0.00  0.00     0.230 HD
ENDBRANCH  13  15
ENDBRANCH   3  13
TORSDOF 3
ENDMDL
