REMARK  10 active torsions:
REMARK  status: ('A' for Active; 'I' for Inactive)
REMARK    1  A    between atoms: C_6  and  C_7 
REMARK    2  A    between atoms: C_7  and  C_8 
REMARK    3  A    between atoms: C_8  and  C_9 
REMARK    4  A    between atoms: C_8  and  C_12 
REMARK    5  A    between atoms: C_9  and  O_11 
REMARK    6  A    between atoms: C_12  and  C_13 
REMARK    7  A    between atoms: C_13  and  O_14 
REMARK    8  A    between atoms: C_13  and  O_15 
REMARK    9  A    between atoms: C_13  and  C_16 
REMARK   10  A    between atoms: C_16  and  N_17 
ROOT
HETATM    1  C   UNK N   1      -0.227  -0.176   0.101  0.00  0.00     0.093 C 
ENDROOT
BRANCH   1   2
HETATM    2  C   UNK N   1      -1.352  -0.972  -0.575  0.00  0.00     0.054 C 
BRANCH   2   3
HETATM    3  C   UNK N   1      -2.772  -0.573  -0.258  0.00  0.00    -0.057 A 
HETATM    4  C   UNK N   1      -3.785  -1.528  -0.412  0.00  0.00     0.007 A 
HETATM    5  C   UNK N   1      -5.119  -1.193  -0.161  0.00  0.00     0.001 A 
HETATM    6  C   UNK N   1      -5.452   0.104   0.239  0.00  0.00     0.000 A 
HETATM    7  C   UNK N   1      -4.449   1.065   0.391  0.00  0.00     0.001 A 
HETATM    8  C   UNK N   1      -3.115   0.728   0.142  0.00  0.00     0.007 A 
ENDBRANCH   2   3
ENDBRANCH   1   2
BRANCH   1   9
HETATM    9  C   UNK N   1      -0.207   1.255  -0.381  0.00  0.00     0.144 C 
HETATM   10  O   UNK N   1      -0.398   2.168   0.407  0.00  0.00    -0.650 OA
BRANCH   9  11
HETATM   11  O   UNK N   1       0.042   1.532  -1.675  0.00  0.00    -0.776 OA
HETATM   12  H   UNK N   1       0.295   1.479  -2.576  0.00  0.00     0.167 HD
ENDBRANCH   9  11
ENDBRANCH   1   9
BRANCH   1  13
HETATM   13  C   UNK N   1       1.101  -0.876  -0.250  0.00  0.00     0.085 C 
BRANCH  13  14
HETATM   14  C   UNK N   1       2.377  -0.186   0.177  0.00  0.00     0.182 C 
BRANCH  14  15
HETATM   15  O   UNK N   1       2.169   0.579   1.267  0.00  0.00    -0.364 OA
HETATM   16  H   UNK N   1       2.558   0.970   2.025  0.00  0.00     0.213 HD
ENDBRANCH  14  15
BRANCH  14  17
HETATM   17  O   UNK N   1       2.840   0.539  -0.864  0.00  0.00    -0.364 OA
HETATM   18  H   UNK N   1       3.436   0.513  -1.586  0.00  0.00     0.213 HD
ENDBRANCH  14  17
BRANCH  14  19
HETATM   19  C   UNK N   1       3.349  -1.283   0.541  0.00  0.00     0.269 C 
BRANCH  19  20
HETATM   20  N   UNK N   1       4.684  -1.041   0.039  0.00  0.00    -0.150 N 
HETATM   21  O   UNK N   1       5.324  -0.126   0.460  0.00  0.00    -0.536 OA
HETATM   22  O   UNK N   1       5.224  -1.875  -0.822  0.00  0.00    -0.536 OA
ENDBRANCH  19  20
ENDBRANCH  14  19
ENDBRANCH  13  14
ENDBRANCH   1  13
TORSDOF 10
