MODEL 1
REMARK VINA RESULT:      -6.1      0.000      0.000
REMARK  10 active torsions:
REMARK  status: ('A' for Active; 'I' for Inactive)
REMARK    1  A    between atoms: C_6  and  C_7 
REMARK    2  A    between atoms: C_7  and  C_8 
REMARK    3  A    between atoms: C_8  and  C_9 
REMARK    4  A    between atoms: C_8  and  C_12 
REMARK    5  A    between atoms: C_9  and  O_11 
REMARK    6  A    between atoms: C_12  and  C_13 
REMARK    7  A    between atoms: C_13  and  O_14 
REMARK    8  A    between atoms: C_13  and  O_15 
REMARK    9  A    between atoms: C_13  and  C_16 
REMARK   10  A    between atoms: C_16  and  N_17 
ROOT
HETATM    1  C   UNK N   1      33.101  16.956   8.507  0.00  0.00     0.093 C 
ENDROOT
BRANCH   1   2
HETATM    2  C   UNK N   1      32.051  17.344   7.456  0.00  0.00     0.054 C 
BRANCH   2   3
HETATM    3  C   UNK N   1      30.644  17.593   7.940  0.00  0.00    -0.057 A 
HETATM    4  C   UNK N   1      30.464  18.259   9.158  0.00  0.00     0.007 A 
HETATM    5  C   UNK N   1      29.178  18.482   9.661  0.00  0.00     0.001 A 
HETATM    6  C   UNK N   1      28.061  18.033   8.951  0.00  0.00     0.000 A 
HETATM    7  C   UNK N   1      28.231  17.363   7.737  0.00  0.00     0.001 A 
HETATM    8  C   UNK N   1      29.517  17.143   7.234  0.00  0.00     0.007 A 
ENDBRANCH   2   3
ENDBRANCH   1   2
BRANCH   1   9
HETATM    9  C   UNK N   1      34.367  17.760   8.333  0.00  0.00     0.144 C 
HETATM   10  O   UNK N   1      34.617  18.283   7.259  0.00  0.00    -0.650 OA
BRANCH   9  11
HETATM   11  O   UNK N   1      35.216  17.921   9.367  0.00  0.00    -0.776 OA
HETATM   12  H   UNK N   1      35.590  17.996  10.223  0.00  0.00     0.167 HD
ENDBRANCH   9  11
ENDBRANCH   1   9
BRANCH   1  13
HETATM   13  C   UNK N   1      33.393  15.453   8.325  0.00  0.00     0.085 C 
BRANCH  13  14
HETATM   14  C   UNK N   1      33.067  14.543   9.487  0.00  0.00     0.182 C 
BRANCH  14  15
HETATM   15  O   UNK N   1      32.403  13.447   9.069  0.00  0.00    -0.364 OA
HETATM   16  H   UNK N   1      32.323  12.515   9.139  0.00  0.00     0.213 HD
ENDBRANCH  14  15
BRANCH  14  17
HETATM   17  O   UNK N   1      32.354  15.245  10.394  0.00  0.00    -0.364 OA
HETATM   18  H   UNK N   1      31.943  16.074  10.541  0.00  0.00     0.213 HD
ENDBRANCH  14  17
BRANCH  14  19
HETATM   19  C   UNK N   1      34.391  14.107  10.068  0.00  0.00     0.269 C 
BRANCH  19  20
HETATM   20  N   UNK N   1      34.670  14.713  11.352  0.00  0.00    -0.150 N 
HETATM   21  O   UNK N   1      34.584  14.064  12.350  0.00  0.00    -0.536 OA
HETATM   22  O   UNK N   1      35.094  15.955  11.414  0.00  0.00    -0.536 OA
ENDBRANCH  19  20
ENDBRANCH  14  19
ENDBRANCH  13  14
ENDBRANCH   1  13
TORSDOF 10
ENDMDL
MODEL 2
REMARK VINA RESULT:      -6.1      1.305      1.688
REMARK  10 active torsions:
REMARK  status: ('A' for Active; 'I' for Inactive)
REMARK    1  A    between atoms: C_6  and  C_7 
REMARK    2  A    between atoms: C_7  and  C_8 
REMARK    3  A    between atoms: C_8  and  C_9 
REMARK    4  A    between atoms: C_8  and  C_12 
REMARK    5  A    between atoms: C_9  and  O_11 
REMARK    6  A    between atoms: C_12  and  C_13 
REMARK    7  A    between atoms: C_13  and  O_14 
REMARK    8  A    between atoms: C_13  and  O_15 
REMARK    9  A    between atoms: C_13  and  C_16 
REMARK   10  A    between atoms: C_16  and  N_17 
ROOT
HETATM    1  C   UNK N   1      33.418  17.195   8.597  0.00  0.00     0.093 C 
ENDROOT
BRANCH   1   2
HETATM    2  C   UNK N   1      32.228  16.734   7.744  0.00  0.00     0.054 C 
BRANCH   2   3
HETATM    3  C   UNK N   1      30.880  17.340   8.048  0.00  0.00    -0.057 A 
HETATM    4  C   UNK N   1      30.755  18.160   9.176  0.00  0.00     0.007 A 
HETATM    5  C   UNK N   1      29.517  18.716   9.514  0.00  0.00     0.001 A 
HETATM    6  C   UNK N   1      28.392  18.449   8.729  0.00  0.00     0.000 A 
HETATM    7  C   UNK N   1      28.506  17.628   7.604  0.00  0.00     0.001 A 
HETATM    8  C   UNK N   1      29.745  17.075   7.266  0.00  0.00     0.007 A 
ENDBRANCH   2   3
ENDBRANCH   1   2
BRANCH   1   9
HETATM    9  C   UNK N   1      34.303  18.147   7.828  0.00  0.00     0.144 C 
HETATM   10  O   UNK N   1      34.944  19.000   8.422  0.00  0.00    -0.650 OA
BRANCH   9  11
HETATM   11  O   UNK N   1      34.404  18.048   6.489  0.00  0.00    -0.776 OA
HETATM   12  H   UNK N   1      34.218  17.960   5.575  0.00  0.00     0.167 HD
ENDBRANCH   9  11
ENDBRANCH   1   9
BRANCH   1  13
HETATM   13  C   UNK N   1      34.210  15.934   8.995  0.00  0.00     0.085 C 
BRANCH  13  14
HETATM   14  C   UNK N   1      34.667  15.832  10.433  0.00  0.00     0.182 C 
BRANCH  14  15
HETATM   15  O   UNK N   1      33.762  15.171  11.180  0.00  0.00    -0.364 OA
HETATM   16  H   UNK N   1      33.290  14.369  11.296  0.00  0.00     0.213 HD
ENDBRANCH  14  15
BRANCH  14  17
HETATM   17  O   UNK N   1      34.889  17.079  10.900  0.00  0.00    -0.364 OA
HETATM   18  H   UNK N   1      34.747  17.985  10.708  0.00  0.00     0.213 HD
ENDBRANCH  14  17
BRANCH  14  19
HETATM   19  C   UNK N   1      35.948  15.031  10.413  0.00  0.00     0.269 C 
BRANCH  19  20
HETATM   20  N   UNK N   1      36.278  14.467  11.704  0.00  0.00    -0.150 N 
HETATM   21  O   UNK N   1      36.805  13.399  11.771  0.00  0.00    -0.536 OA
HETATM   22  O   UNK N   1      36.071  15.164  12.799  0.00  0.00    -0.536 OA
ENDBRANCH  19  20
ENDBRANCH  14  19
ENDBRANCH  13  14
ENDBRANCH   1  13
TORSDOF 10
ENDMDL
MODEL 3
REMARK VINA RESULT:      -5.8      2.967      4.822
REMARK  10 active torsions:
REMARK  status: ('A' for Active; 'I' for Inactive)
REMARK    1  A    between atoms: C_6  and  C_7 
REMARK    2  A    between atoms: C_7  and  C_8 
REMARK    3  A    between atoms: C_8  and  C_9 
REMARK    4  A    between atoms: C_8  and  C_12 
REMARK    5  A    between atoms: C_9  and  O_11 
REMARK    6  A    between atoms: C_12  and  C_13 
REMARK    7  A    between atoms: C_13  and  O_14 
REMARK    8  A    between atoms: C_13  and  O_15 
REMARK    9  A    between atoms: C_13  and  C_16 
REMARK   10  A    between atoms: C_16  and  N_17 
ROOT
HETATM    1  C   UNK N   1      29.260  17.914   8.507  0.00  0.00     0.093 C 
ENDROOT
BRANCH   1   2
HETATM    2  C   UNK N   1      28.497  19.220   8.245  0.00  0.00     0.054 C 
BRANCH   2   3
HETATM    3  C   UNK N   1      28.042  19.486   6.831  0.00  0.00    -0.057 A 
HETATM    4  C   UNK N   1      28.353  18.545   5.841  0.00  0.00     0.007 A 
HETATM    5  C   UNK N   1      27.980  18.766   4.511  0.00  0.00     0.001 A 
HETATM    6  C   UNK N   1      27.300  19.936   4.160  0.00  0.00     0.000 A 
HETATM    7  C   UNK N   1      26.990  20.882   5.140  0.00  0.00     0.001 A 
HETATM    8  C   UNK N   1      27.361  20.659   6.470  0.00  0.00     0.007 A 
ENDBRANCH   2   3
ENDBRANCH   1   2
BRANCH   1   9
HETATM    9  C   UNK N   1      28.685  17.176   9.693  0.00  0.00     0.144 C 
HETATM   10  O   UNK N   1      27.502  16.876   9.710  0.00  0.00    -0.650 OA
BRANCH   9  11
HETATM   11  O   UNK N   1      29.477  16.828  10.725  0.00  0.00    -0.776 OA
HETATM   12  H   UNK N   1      30.133  16.433  11.264  0.00  0.00     0.167 HD
ENDBRANCH   9  11
ENDBRANCH   1   9
BRANCH   1  13
HETATM   13  C   UNK N   1      30.730  18.292   8.776  0.00  0.00     0.085 C 
BRANCH  13  14
HETATM   14  C   UNK N   1      31.791  17.360   8.234  0.00  0.00     0.182 C 
BRANCH  14  15
HETATM   15  O   UNK N   1      31.432  16.870   7.031  0.00  0.00    -0.364 OA
HETATM   16  H   UNK N   1      31.271  16.096   6.526  0.00  0.00     0.213 HD
ENDBRANCH  14  15
BRANCH  14  17
HETATM   17  O   UNK N   1      31.996  16.376   9.136  0.00  0.00    -0.364 OA
HETATM   18  H   UNK N   1      31.976  15.446   9.245  0.00  0.00     0.213 HD
ENDBRANCH  14  17
BRANCH  14  19
HETATM   19  C   UNK N   1      33.037  18.195   8.058  0.00  0.00     0.269 C 
BRANCH  19  20
HETATM   20  N   UNK N   1      34.061  17.522   7.288  0.00  0.00    -0.150 N 
HETATM   21  O   UNK N   1      34.301  17.878   6.175  0.00  0.00    -0.536 OA
HETATM   22  O   UNK N   1      34.781  16.571   7.841  0.00  0.00    -0.536 OA
ENDBRANCH  19  20
ENDBRANCH  14  19
ENDBRANCH  13  14
ENDBRANCH   1  13
TORSDOF 10
ENDMDL
MODEL 4
REMARK VINA RESULT:      -5.6     10.826     12.768
REMARK  10 active torsions:
REMARK  status: ('A' for Active; 'I' for Inactive)
REMARK    1  A    between atoms: C_6  and  C_7 
REMARK    2  A    between atoms: C_7  and  C_8 
REMARK    3  A    between atoms: C_8  and  C_9 
REMARK    4  A    between atoms: C_8  and  C_12 
REMARK    5  A    between atoms: C_9  and  O_11 
REMARK    6  A    between atoms: C_12  and  C_13 
REMARK    7  A    between atoms: C_13  and  O_14 
REMARK    8  A    between atoms: C_13  and  O_15 
REMARK    9  A    between atoms: C_13  and  C_16 
REMARK   10  A    between atoms: C_16  and  N_17 
ROOT
HETATM    1  C   UNK N   1      20.801  16.093   7.885  0.00  0.00     0.093 C 
ENDROOT
BRANCH   1   2
HETATM    2  C   UNK N   1      20.674  14.563   7.869  0.00  0.00     0.054 C 
BRANCH   2   3
HETATM    3  C   UNK N   1      21.379  13.797   8.960  0.00  0.00    -0.057 A 
HETATM    4  C   UNK N   1      22.761  13.597   8.851  0.00  0.00     0.007 A 
HETATM    5  C   UNK N   1      23.450  12.864   9.822  0.00  0.00     0.001 A 
HETATM    6  C   UNK N   1      22.761  12.318  10.908  0.00  0.00     0.000 A 
HETATM    7  C   UNK N   1      21.381  12.508  11.023  0.00  0.00     0.001 A 
HETATM    8  C   UNK N   1      20.693  13.243  10.053  0.00  0.00     0.007 A 
ENDBRANCH   2   3
ENDBRANCH   1   2
BRANCH   1   9
HETATM    9  C   UNK N   1      19.769  16.715   8.795  0.00  0.00     0.144 C 
HETATM   10  O   UNK N   1      19.918  17.859   9.197  0.00  0.00    -0.650 OA
BRANCH   9  11
HETATM   11  O   UNK N   1      18.670  16.022   9.150  0.00  0.00    -0.776 OA
HETATM   12  H   UNK N   1      17.799  15.775   9.392  0.00  0.00     0.167 HD
ENDBRANCH   9  11
ENDBRANCH   1   9
BRANCH   1  13
HETATM   13  C   UNK N   1      20.600  16.582   6.437  0.00  0.00     0.085 C 
BRANCH  13  14
HETATM   14  C   UNK N   1      21.423  17.770   5.991  0.00  0.00     0.182 C 
BRANCH  14  15
HETATM   15  O   UNK N   1      22.740  17.492   6.050  0.00  0.00    -0.364 OA
HETATM   16  H   UNK N   1      23.537  17.408   5.562  0.00  0.00     0.213 HD
ENDBRANCH  14  15
BRANCH  14  17
HETATM   17  O   UNK N   1      21.099  18.829   6.765  0.00  0.00    -0.364 OA
HETATM   18  H   UNK N   1      21.455  19.449   7.370  0.00  0.00     0.213 HD
ENDBRANCH  14  17
BRANCH  14  19
HETATM   19  C   UNK N   1      21.051  18.025   4.550  0.00  0.00     0.269 C 
BRANCH  19  20
HETATM   20  N   UNK N   1      21.390  19.360   4.109  0.00  0.00    -0.150 N 
HETATM   21  O   UNK N   1      20.560  20.218   4.108  0.00  0.00    -0.536 OA
HETATM   22  O   UNK N   1      22.631  19.651   3.786  0.00  0.00    -0.536 OA
ENDBRANCH  19  20
ENDBRANCH  14  19
ENDBRANCH  13  14
ENDBRANCH   1  13
TORSDOF 10
ENDMDL
MODEL 5
REMARK VINA RESULT:      -5.5     14.058     15.941
REMARK  10 active torsions:
REMARK  status: ('A' for Active; 'I' for Inactive)
REMARK    1  A    between atoms: C_6  and  C_7 
REMARK    2  A    between atoms: C_7  and  C_8 
REMARK    3  A    between atoms: C_8  and  C_9 
REMARK    4  A    between atoms: C_8  and  C_12 
REMARK    5  A    between atoms: C_9  and  O_11 
REMARK    6  A    between atoms: C_12  and  C_13 
REMARK    7  A    between atoms: C_13  and  O_14 
REMARK    8  A    between atoms: C_13  and  O_15 
REMARK    9  A    between atoms: C_13  and  C_16 
REMARK   10  A    between atoms: C_16  and  N_17 
ROOT
HETATM    1  C   UNK N   1      28.504  23.955  -4.426  0.00  0.00     0.093 C 
ENDROOT
BRANCH   1   2
HETATM    2  C   UNK N   1      27.045  24.123  -3.978  0.00  0.00     0.054 C 
BRANCH   2   3
HETATM    3  C   UNK N   1      26.375  25.441  -4.278  0.00  0.00    -0.057 A 
HETATM    4  C   UNK N   1      26.483  26.475  -3.339  0.00  0.00     0.007 A 
HETATM    5  C   UNK N   1      25.851  27.703  -3.560  0.00  0.00     0.001 A 
HETATM    6  C   UNK N   1      25.097  27.903  -4.720  0.00  0.00     0.000 A 
HETATM    7  C   UNK N   1      24.978  26.876  -5.660  0.00  0.00     0.001 A 
HETATM    8  C   UNK N   1      25.613  25.650  -5.439  0.00  0.00     0.007 A 
ENDBRANCH   2   3
ENDBRANCH   1   2
BRANCH   1   9
HETATM    9  C   UNK N   1      28.582  23.373  -5.818  0.00  0.00     0.144 C 
HETATM   10  O   UNK N   1      29.643  23.375  -6.422  0.00  0.00    -0.650 OA
BRANCH   9  11
HETATM   11  O   UNK N   1      27.490  22.831  -6.389  0.00  0.00    -0.776 OA
HETATM   12  H   UNK N   1      26.765  22.276  -6.603  0.00  0.00     0.167 HD
ENDBRANCH   9  11
ENDBRANCH   1   9
BRANCH   1  13
HETATM   13  C   UNK N   1      29.185  23.013  -3.415  0.00  0.00     0.085 C 
BRANCH  13  14
HETATM   14  C   UNK N   1      30.468  23.498  -2.778  0.00  0.00     0.182 C 
BRANCH  14  15
HETATM   15  O   UNK N   1      30.566  23.068  -1.504  0.00  0.00    -0.364 OA
HETATM   16  H   UNK N   1      30.649  22.322  -0.942  0.00  0.00     0.213 HD
ENDBRANCH  14  15
BRANCH  14  17
HETATM   17  O   UNK N   1      30.502  24.846  -2.857  0.00  0.00    -0.364 OA
HETATM   18  H   UNK N   1      30.757  25.615  -2.388  0.00  0.00     0.213 HD
ENDBRANCH  14  17
BRANCH  14  19
HETATM   19  C   UNK N   1      31.594  22.886  -3.577  0.00  0.00     0.269 C 
BRANCH  19  20
HETATM   20  N   UNK N   1      31.942  21.555  -3.131  0.00  0.00    -0.150 N 
HETATM   21  O   UNK N   1      31.613  20.604  -3.773  0.00  0.00    -0.536 OA
HETATM   22  O   UNK N   1      32.689  21.394  -2.062  0.00  0.00    -0.536 OA
ENDBRANCH  19  20
ENDBRANCH  14  19
ENDBRANCH  13  14
ENDBRANCH   1  13
TORSDOF 10
ENDMDL
MODEL 6
REMARK VINA RESULT:      -5.5      4.600      7.966
REMARK  10 active torsions:
REMARK  status: ('A' for Active; 'I' for Inactive)
REMARK    1  A    between atoms: C_6  and  C_7 
REMARK    2  A    between atoms: C_7  and  C_8 
REMARK    3  A    between atoms: C_8  and  C_9 
REMARK    4  A    between atoms: C_8  and  C_12 
REMARK    5  A    between atoms: C_9  and  O_11 
REMARK    6  A    between atoms: C_12  and  C_13 
REMARK    7  A    between atoms: C_13  and  O_14 
REMARK    8  A    between atoms: C_13  and  O_15 
REMARK    9  A    between atoms: C_13  and  C_16 
REMARK   10  A    between atoms: C_16  and  N_17 
ROOT
HETATM    1  C   UNK N   1      35.241  12.907  13.269  0.00  0.00     0.093 C 
ENDROOT
BRANCH   1   2
HETATM    2  C   UNK N   1      36.468  12.923  14.191  0.00  0.00     0.054 C 
BRANCH   2   3
HETATM    3  C   UNK N   1      36.372  13.733  15.460  0.00  0.00    -0.057 A 
HETATM    4  C   UNK N   1      37.180  14.869  15.591  0.00  0.00     0.007 A 
HETATM    5  C   UNK N   1      37.148  15.631  16.763  0.00  0.00     0.001 A 
HETATM    6  C   UNK N   1      36.312  15.257  17.818  0.00  0.00     0.000 A 
HETATM    7  C   UNK N   1      35.505  14.122  17.699  0.00  0.00     0.001 A 
HETATM    8  C   UNK N   1      35.537  13.363  16.525  0.00  0.00     0.007 A 
ENDBRANCH   2   3
ENDBRANCH   1   2
BRANCH   1   9
HETATM    9  C   UNK N   1      34.601  11.540  13.239  0.00  0.00     0.144 C 
HETATM   10  O   UNK N   1      34.627  10.831  14.234  0.00  0.00    -0.650 OA
BRANCH   9  11
HETATM   11  O   UNK N   1      33.980  11.104  12.126  0.00  0.00    -0.776 OA
HETATM   12  H   UNK N   1      33.751  10.641  11.345  0.00  0.00     0.167 HD
ENDBRANCH   9  11
ENDBRANCH   1   9
BRANCH   1  13
HETATM   13  C   UNK N   1      35.726  13.299  11.859  0.00  0.00     0.085 C 
BRANCH  13  14
HETATM   14  C   UNK N   1      34.797  14.154  11.025  0.00  0.00     0.182 C 
BRANCH  14  15
HETATM   15  O   UNK N   1      33.931  14.828  11.807  0.00  0.00    -0.364 OA
HETATM   16  H   UNK N   1      33.452  14.827  12.613  0.00  0.00     0.213 HD
ENDBRANCH  14  15
BRANCH  14  17
HETATM   17  O   UNK N   1      34.159  13.356  10.142  0.00  0.00    -0.364 OA
HETATM   18  H   UNK N   1      33.804  13.334   9.276  0.00  0.00     0.213 HD
ENDBRANCH  14  17
BRANCH  14  19
HETATM   19  C   UNK N   1      35.673  15.154  10.308  0.00  0.00     0.269 C 
BRANCH  19  20
HETATM   20  N   UNK N   1      34.985  16.390  10.007  0.00  0.00    -0.150 N 
HETATM   21  O   UNK N   1      35.484  17.436  10.290  0.00  0.00    -0.536 OA
HETATM   22  O   UNK N   1      33.847  16.365   9.348  0.00  0.00    -0.536 OA
ENDBRANCH  19  20
ENDBRANCH  14  19
ENDBRANCH  13  14
ENDBRANCH   1  13
TORSDOF 10
ENDMDL
MODEL 7
REMARK VINA RESULT:      -5.5      5.652      8.820
REMARK  10 active torsions:
REMARK  status: ('A' for Active; 'I' for Inactive)
REMARK    1  A    between atoms: C_6  and  C_7 
REMARK    2  A    between atoms: C_7  and  C_8 
REMARK    3  A    between atoms: C_8  and  C_9 
REMARK    4  A    between atoms: C_8  and  C_12 
REMARK    5  A    between atoms: C_9  and  O_11 
REMARK    6  A    between atoms: C_12  and  C_13 
REMARK    7  A    between atoms: C_13  and  O_14 
REMARK    8  A    between atoms: C_13  and  O_15 
REMARK    9  A    between atoms: C_13  and  C_16 
REMARK   10  A    between atoms: C_16  and  N_17 
ROOT
HETATM    1  C   UNK N   1      34.997  12.191  14.038  0.00  0.00     0.093 C 
ENDROOT
BRANCH   1   2
HETATM    2  C   UNK N   1      36.063  11.856  15.091  0.00  0.00     0.054 C 
BRANCH   2   3
HETATM    3  C   UNK N   1      35.723  12.131  16.535  0.00  0.00    -0.057 A 
HETATM    4  C   UNK N   1      35.472  13.454  16.922  0.00  0.00     0.007 A 
HETATM    5  C   UNK N   1      35.185  13.759  18.256  0.00  0.00     0.001 A 
HETATM    6  C   UNK N   1      35.155  12.744  19.216  0.00  0.00     0.000 A 
HETATM    7  C   UNK N   1      35.409  11.422  18.841  0.00  0.00     0.001 A 
HETATM    8  C   UNK N   1      35.693  11.118  17.506  0.00  0.00     0.007 A 
ENDBRANCH   2   3
ENDBRANCH   1   2
BRANCH   1   9
HETATM    9  C   UNK N   1      34.072  11.020  13.808  0.00  0.00     0.144 C 
HETATM   10  O   UNK N   1      34.252  10.278  12.856  0.00  0.00    -0.650 OA
BRANCH   9  11
HETATM   11  O   UNK N   1      33.059  10.777  14.661  0.00  0.00    -0.776 OA
HETATM   12  H   UNK N   1      32.515  10.424  15.339  0.00  0.00     0.167 HD
ENDBRANCH   9  11
ENDBRANCH   1   9
BRANCH   1  13
HETATM   13  C   UNK N   1      35.740  12.549  12.736  0.00  0.00     0.085 C 
BRANCH  13  14
HETATM   14  C   UNK N   1      35.701  13.996  12.296  0.00  0.00     0.182 C 
BRANCH  14  15
HETATM   15  O   UNK N   1      36.315  14.789  13.196  0.00  0.00    -0.364 OA
HETATM   16  H   UNK N   1      36.271  15.590  13.680  0.00  0.00     0.213 HD
ENDBRANCH  14  15
BRANCH  14  17
HETATM   17  O   UNK N   1      34.412  14.352  12.110  0.00  0.00    -0.364 OA
HETATM   18  H   UNK N   1      33.813  15.065  12.205  0.00  0.00     0.213 HD
ENDBRANCH  14  17
BRANCH  14  19
HETATM   19  C   UNK N   1      36.469  14.063  10.997  0.00  0.00     0.269 C 
BRANCH  19  20
HETATM   20  N   UNK N   1      36.211  15.277  10.254  0.00  0.00    -0.150 N 
HETATM   21  O   UNK N   1      36.517  16.335  10.713  0.00  0.00    -0.536 OA
HETATM   22  O   UNK N   1      35.714  15.210   9.039  0.00  0.00    -0.536 OA
ENDBRANCH  19  20
ENDBRANCH  14  19
ENDBRANCH  13  14
ENDBRANCH   1  13
TORSDOF 10
ENDMDL
MODEL 8
REMARK VINA RESULT:      -5.4     10.199     12.186
REMARK  10 active torsions:
REMARK  status: ('A' for Active; 'I' for Inactive)
REMARK    1  A    between atoms: C_6  and  C_7 
REMARK    2  A    between atoms: C_7  and  C_8 
REMARK    3  A    between atoms: C_8  and  C_9 
REMARK    4  A    between atoms: C_8  and  C_12 
REMARK    5  A    between atoms: C_9  and  O_11 
REMARK    6  A    between atoms: C_12  and  C_13 
REMARK    7  A    between atoms: C_13  and  O_14 
REMARK    8  A    between atoms: C_13  and  O_15 
REMARK    9  A    between atoms: C_13  and  C_16 
REMARK   10  A    between atoms: C_16  and  N_17 
ROOT
HETATM    1  C   UNK N   1      21.145  14.535   8.244  0.00  0.00     0.093 C 
ENDROOT
BRANCH   1   2
HETATM    2  C   UNK N   1      21.292  13.049   8.602  0.00  0.00     0.054 C 
BRANCH   2   3
HETATM    3  C   UNK N   1      22.358  12.679   9.604  0.00  0.00    -0.057 A 
HETATM    4  C   UNK N   1      21.959  12.259  10.879  0.00  0.00     0.007 A 
HETATM    5  C   UNK N   1      22.913  11.937  11.850  0.00  0.00     0.001 A 
HETATM    6  C   UNK N   1      24.275  12.040  11.554  0.00  0.00     0.000 A 
HETATM    7  C   UNK N   1      24.682  12.463  10.286  0.00  0.00     0.001 A 
HETATM    8  C   UNK N   1      23.727  12.782   9.316  0.00  0.00     0.007 A 
ENDBRANCH   2   3
ENDBRANCH   1   2
BRANCH   1   9
HETATM    9  C   UNK N   1      20.013  15.171   9.015  0.00  0.00     0.144 C 
HETATM   10  O   UNK N   1      19.268  14.478   9.690  0.00  0.00    -0.650 OA
BRANCH   9  11
HETATM   11  O   UNK N   1      19.834  16.505   8.980  0.00  0.00    -0.776 OA
HETATM   12  H   UNK N   1      19.745  17.396   8.703  0.00  0.00     0.167 HD
ENDBRANCH   9  11
ENDBRANCH   1   9
BRANCH   1  13
HETATM   13  C   UNK N   1      20.869  14.613   6.729  0.00  0.00     0.085 C 
BRANCH  13  14
HETATM   14  C   UNK N   1      21.748  15.536   5.916  0.00  0.00     0.182 C 
BRANCH  14  15
HETATM   15  O   UNK N   1      22.083  14.969   4.740  0.00  0.00    -0.364 OA
HETATM   16  H   UNK N   1      21.928  14.952   3.816  0.00  0.00     0.213 HD
ENDBRANCH  14  15
BRANCH  14  17
HETATM   17  O   UNK N   1      22.837  15.847   6.651  0.00  0.00    -0.364 OA
HETATM   18  H   UNK N   1      23.374  15.543   7.356  0.00  0.00     0.213 HD
ENDBRANCH  14  17
BRANCH  14  19
HETATM   19  C   UNK N   1      20.922  16.768   5.634  0.00  0.00     0.269 C 
BRANCH  19  20
HETATM   20  N   UNK N   1      21.539  17.982   6.120  0.00  0.00    -0.150 N 
HETATM   21  O   UNK N   1      21.146  18.493   7.124  0.00  0.00    -0.536 OA
HETATM   22  O   UNK N   1      22.586  18.481   5.500  0.00  0.00    -0.536 OA
ENDBRANCH  19  20
ENDBRANCH  14  19
ENDBRANCH  13  14
ENDBRANCH   1  13
TORSDOF 10
ENDMDL
MODEL 9
REMARK VINA RESULT:      -5.4     15.602     17.608
REMARK  10 active torsions:
REMARK  status: ('A' for Active; 'I' for Inactive)
REMARK    1  A    between atoms: C_6  and  C_7 
REMARK    2  A    between atoms: C_7  and  C_8 
REMARK    3  A    between atoms: C_8  and  C_9 
REMARK    4  A    between atoms: C_8  and  C_12 
REMARK    5  A    between atoms: C_9  and  O_11 
REMARK    6  A    between atoms: C_12  and  C_13 
REMARK    7  A    between atoms: C_13  and  O_14 
REMARK    8  A    between atoms: C_13  and  O_15 
REMARK    9  A    between atoms: C_13  and  C_16 
REMARK   10  A    between atoms: C_16  and  N_17 
ROOT
HETATM    1  C   UNK N   1      26.546  24.895  -5.803  0.00  0.00     0.093 C 
ENDROOT
BRANCH   1   2
HETATM    2  C   UNK N   1      25.530  25.984  -5.433  0.00  0.00     0.054 C 
BRANCH   2   3
HETATM    3  C   UNK N   1      26.062  27.371  -5.170  0.00  0.00    -0.057 A 
HETATM    4  C   UNK N   1      27.004  27.905  -6.060  0.00  0.00     0.007 A 
HETATM    5  C   UNK N   1      27.548  29.173  -5.838  0.00  0.00     0.001 A 
HETATM    6  C   UNK N   1      27.161  29.915  -4.719  0.00  0.00     0.000 A 
HETATM    7  C   UNK N   1      26.226  29.389  -3.823  0.00  0.00     0.001 A 
HETATM    8  C   UNK N   1      25.680  28.122  -4.048  0.00  0.00     0.007 A 
ENDBRANCH   2   3
ENDBRANCH   1   2
BRANCH   1   9
HETATM    9  C   UNK N   1      25.933  23.868  -6.725  0.00  0.00     0.144 C 
HETATM   10  O   UNK N   1      26.075  22.678  -6.494  0.00  0.00    -0.650 OA
BRANCH   9  11
HETATM   11  O   UNK N   1      25.211  24.259  -7.792  0.00  0.00    -0.776 OA
HETATM   12  H   UNK N   1      24.855  24.742  -8.513  0.00  0.00     0.167 HD
ENDBRANCH   9  11
ENDBRANCH   1   9
BRANCH   1  13
HETATM   13  C   UNK N   1      27.000  24.229  -4.489  0.00  0.00     0.085 C 
BRANCH  13  14
HETATM   14  C   UNK N   1      28.487  24.043  -4.289  0.00  0.00     0.182 C 
BRANCH  14  15
HETATM   15  O   UNK N   1      29.142  25.213  -4.425  0.00  0.00    -0.364 OA
HETATM   16  H   UNK N   1      29.777  25.693  -4.920  0.00  0.00     0.213 HD
ENDBRANCH  14  15
BRANCH  14  17
HETATM   17  O   UNK N   1      28.925  23.118  -5.170  0.00  0.00    -0.364 OA
HETATM   18  H   UNK N   1      29.683  22.836  -5.642  0.00  0.00     0.213 HD
ENDBRANCH  14  17
BRANCH  14  19
HETATM   19  C   UNK N   1      28.665  23.558  -2.870  0.00  0.00     0.269 C 
BRANCH  19  20
HETATM   20  N   UNK N   1      30.053  23.367  -2.510  0.00  0.00    -0.150 N 
HETATM   21  O   UNK N   1      30.343  23.032  -1.402  0.00  0.00    -0.536 OA
HETATM   22  O   UNK N   1      30.991  23.485  -3.424  0.00  0.00    -0.536 OA
ENDBRANCH  19  20
ENDBRANCH  14  19
ENDBRANCH  13  14
ENDBRANCH   1  13
TORSDOF 10
ENDMDL
