REMARK  4 active torsions:
REMARK  status: ('A' for Active; 'I' for Inactive)
REMARK    1  A    between atoms: O_1  and  C_2 
REMARK    2  A    between atoms: C_7  and  C_8 
REMARK    3  A    between atoms: C_8  and  C_14 
REMARK    4  A    between atoms: C_17  and  O_18 
ROOT
HETATM    1  C   UNK N   1       0.498  -0.713   0.101  0.00  0.00     0.014 C 
HETATM    2  C   UNK N   1       0.845  -1.618   1.307  0.00  0.00     0.019 C 
HETATM    3  C   UNK N   1       2.351  -1.821   1.464  0.00  0.00     0.001 C 
HETATM    4  C   UNK N   1       1.149  -1.327  -1.161  0.00  0.00     0.019 C 
HETATM    5  C   UNK N   1       2.652  -1.565  -0.997  0.00  0.00     0.001 C 
HETATM    6  C   UNK N   1       2.917  -2.463   0.205  0.00  0.00     0.000 C 
ENDROOT
BRANCH   1   7
HETATM    7  C   UNK N   1       0.944   0.720   0.384  0.00  0.00    -0.045 A 
HETATM    8  C   UNK N   1       0.399   1.406   1.486  0.00  0.00     0.011 A 
HETATM    9  C   UNK N   1       0.720   2.743   1.721  0.00  0.00     0.037 A 
HETATM   10  C   UNK N   1       1.586   3.416   0.857  0.00  0.00     0.065 A 
HETATM   11  C   UNK N   1       2.144   2.745  -0.235  0.00  0.00     0.037 A 
HETATM   12  C   UNK N   1       1.823   1.406  -0.473  0.00  0.00     0.011 A 
BRANCH  10  13
HETATM   13  O   UNK N   1       1.878   4.707   1.073  0.00  0.00    -0.361 OA
HETATM   14  H   UNK N   1       2.761   4.981   1.225  0.00  0.00     0.217 HD
ENDBRANCH  10  13
ENDBRANCH   1   7
BRANCH   1  15
HETATM   15  C   UNK N   1      -1.006  -0.654  -0.134  0.00  0.00    -0.045 A 
HETATM   16  C   UNK N   1      -1.913  -1.319   0.710  0.00  0.00     0.011 A 
HETATM   17  C   UNK N   1      -3.292  -1.189   0.511  0.00  0.00     0.037 A 
HETATM   18  C   UNK N   1      -3.774  -0.394  -0.530  0.00  0.00     0.065 A 
HETATM   19  C   UNK N   1      -2.887   0.262  -1.382  0.00  0.00     0.037 A 
HETATM   20  C   UNK N   1      -1.510   0.134  -1.186  0.00  0.00     0.011 A 
BRANCH  18  21
HETATM   21  O   UNK N   1      -5.100  -0.257  -0.710  0.00  0.00    -0.361 OA
HETATM   22  H   UNK N   1      -5.479   0.590  -0.836  0.00  0.00     0.217 HD
ENDBRANCH  18  21
ENDBRANCH   1  15
TORSDOF 4
