MODEL 1
REMARK VINA RESULT:      -7.2      0.000      0.000
REMARK  4 active torsions:
REMARK  status: ('A' for Active; 'I' for Inactive)
REMARK    1  A    between atoms: O_1  and  C_2 
REMARK    2  A    between atoms: C_7  and  C_8 
REMARK    3  A    between atoms: C_8  and  C_14 
REMARK    4  A    between atoms: C_17  and  O_18 
ROOT
HETATM    1  C   UNK N   1      31.776  16.660   6.512  0.00  0.00     0.014 C 
HETATM    2  C   UNK N   1      31.637  15.170   6.122  0.00  0.00     0.019 C 
HETATM    3  C   UNK N   1      32.800  14.686   5.257  0.00  0.00     0.001 C 
HETATM    4  C   UNK N   1      31.931  17.483   5.211  0.00  0.00     0.019 C 
HETATM    5  C   UNK N   1      33.074  16.982   4.324  0.00  0.00     0.001 C 
HETATM    6  C   UNK N   1      32.869  15.512   3.980  0.00  0.00     0.000 C 
ENDROOT
BRANCH   1   7
HETATM    7  C   UNK N   1      32.939  16.834   7.488  0.00  0.00    -0.045 A 
HETATM    8  C   UNK N   1      33.151  15.863   8.485  0.00  0.00     0.011 A 
HETATM    9  C   UNK N   1      34.149  16.036   9.444  0.00  0.00     0.037 A 
HETATM   10  C   UNK N   1      34.947  17.181   9.424  0.00  0.00     0.065 A 
HETATM   11  C   UNK N   1      34.756  18.148   8.433  0.00  0.00     0.037 A 
HETATM   12  C   UNK N   1      33.756  17.978   7.472  0.00  0.00     0.011 A 
BRANCH  10  13
HETATM   13  O   UNK N   1      35.894  17.355  10.358  0.00  0.00    -0.361 OA
HETATM   14  H   UNK N   1      36.797  17.202  10.161  0.00  0.00     0.217 HD
ENDBRANCH  10  13
ENDBRANCH   1   7
BRANCH   1  15
HETATM   15  C   UNK N   1      30.533  17.163   7.235  0.00  0.00    -0.045 A 
HETATM   16  C   UNK N   1      29.240  16.791   6.828  0.00  0.00     0.011 A 
HETATM   17  C   UNK N   1      28.120  17.212   7.554  0.00  0.00     0.037 A 
HETATM   18  C   UNK N   1      28.284  18.005   8.690  0.00  0.00     0.065 A 
HETATM   19  C   UNK N   1      29.559  18.392   9.099  0.00  0.00     0.037 A 
HETATM   20  C   UNK N   1      30.679  17.974   8.377  0.00  0.00     0.011 A 
BRANCH  18  21
HETATM   21  O   UNK N   1      27.208  18.396   9.396  0.00  0.00    -0.361 OA
HETATM   22  H   UNK N   1      26.422  18.661   8.961  0.00  0.00     0.217 HD
ENDBRANCH  18  21
ENDBRANCH   1  15
TORSDOF 4
ENDMDL
MODEL 2
REMARK VINA RESULT:      -7.2     13.977     15.646
REMARK  4 active torsions:
REMARK  status: ('A' for Active; 'I' for Inactive)
REMARK    1  A    between atoms: O_1  and  C_2 
REMARK    2  A    between atoms: C_7  and  C_8 
REMARK    3  A    between atoms: C_8  and  C_14 
REMARK    4  A    between atoms: C_17  and  O_18 
ROOT
HETATM    1  C   UNK N   1      27.114  25.370  -5.277  0.00  0.00     0.014 C 
HETATM    2  C   UNK N   1      25.776  24.593  -5.310  0.00  0.00     0.019 C 
HETATM    3  C   UNK N   1      25.936  23.188  -5.886  0.00  0.00     0.001 C 
HETATM    4  C   UNK N   1      27.696  25.379  -6.711  0.00  0.00     0.019 C 
HETATM    5  C   UNK N   1      27.826  23.975  -7.307  0.00  0.00     0.001 C 
HETATM    6  C   UNK N   1      26.474  23.274  -7.308  0.00  0.00     0.000 C 
ENDROOT
BRANCH   1   7
HETATM    7  C   UNK N   1      28.048  24.748  -4.241  0.00  0.00    -0.045 A 
HETATM    8  C   UNK N   1      29.438  24.931  -4.370  0.00  0.00     0.011 A 
HETATM    9  C   UNK N   1      30.322  24.305  -3.490  0.00  0.00     0.037 A 
HETATM   10  C   UNK N   1      29.831  23.485  -2.473  0.00  0.00     0.065 A 
HETATM   11  C   UNK N   1      28.453  23.303  -2.325  0.00  0.00     0.037 A 
HETATM   12  C   UNK N   1      27.566  23.928  -3.206  0.00  0.00     0.011 A 
BRANCH  10  13
HETATM   13  O   UNK N   1      30.683  22.868  -1.640  0.00  0.00    -0.361 OA
HETATM   14  H   UNK N   1      31.585  22.760  -1.869  0.00  0.00     0.217 HD
ENDBRANCH  10  13
ENDBRANCH   1   7
BRANCH   1  15
HETATM   15  C   UNK N   1      26.905  26.817  -4.851  0.00  0.00    -0.045 A 
HETATM   16  C   UNK N   1      27.401  27.891  -5.612  0.00  0.00     0.011 A 
HETATM   17  C   UNK N   1      27.133  29.211  -5.233  0.00  0.00     0.037 A 
HETATM   18  C   UNK N   1      26.369  29.468  -4.094  0.00  0.00     0.065 A 
HETATM   19  C   UNK N   1      25.881  28.414  -3.323  0.00  0.00     0.037 A 
HETATM   20  C   UNK N   1      26.146  27.095  -3.699  0.00  0.00     0.011 A 
BRANCH  18  21
HETATM   21  O   UNK N   1      26.099  30.737  -3.740  0.00  0.00    -0.361 OA
HETATM   22  H   UNK N   1      25.495  30.921  -3.049  0.00  0.00     0.217 HD
ENDBRANCH  18  21
ENDBRANCH   1  15
TORSDOF 4
ENDMDL
MODEL 3
REMARK VINA RESULT:      -7.0      2.821      3.690
REMARK  4 active torsions:
REMARK  status: ('A' for Active; 'I' for Inactive)
REMARK    1  A    between atoms: O_1  and  C_2 
REMARK    2  A    between atoms: C_7  and  C_8 
REMARK    3  A    between atoms: C_8  and  C_14 
REMARK    4  A    between atoms: C_17  and  O_18 
ROOT
HETATM    1  C   UNK N   1      29.113  17.077   4.963  0.00  0.00     0.014 C 
HETATM    2  C   UNK N   1      28.471  15.870   5.688  0.00  0.00     0.019 C 
HETATM    3  C   UNK N   1      28.970  14.534   5.141  0.00  0.00     0.001 C 
HETATM    4  C   UNK N   1      28.849  16.920   3.447  0.00  0.00     0.019 C 
HETATM    5  C   UNK N   1      29.316  15.569   2.900  0.00  0.00     0.001 C 
HETATM    6  C   UNK N   1      28.643  14.431   3.657  0.00  0.00     0.000 C 
ENDROOT
BRANCH   1   7
HETATM    7  C   UNK N   1      30.595  17.166   5.320  0.00  0.00    -0.045 A 
HETATM    8  C   UNK N   1      30.992  16.996   6.660  0.00  0.00     0.011 A 
HETATM    9  C   UNK N   1      32.326  17.157   7.033  0.00  0.00     0.037 A 
HETATM   10  C   UNK N   1      33.283  17.496   6.074  0.00  0.00     0.065 A 
HETATM   11  C   UNK N   1      32.906  17.657   4.738  0.00  0.00     0.037 A 
HETATM   12  C   UNK N   1      31.570  17.497   4.363  0.00  0.00     0.011 A 
BRANCH  10  13
HETATM   13  O   UNK N   1      34.562  17.670   6.438  0.00  0.00    -0.361 OA
HETATM   14  H   UNK N   1      35.016  18.464   6.234  0.00  0.00     0.217 HD
ENDBRANCH  10  13
ENDBRANCH   1   7
BRANCH   1  15
HETATM   15  C   UNK N   1      28.485  18.391   5.410  0.00  0.00    -0.045 A 
HETATM   16  C   UNK N   1      28.138  19.395   4.490  0.00  0.00     0.011 A 
HETATM   17  C   UNK N   1      27.498  20.562   4.923  0.00  0.00     0.037 A 
HETATM   18  C   UNK N   1      27.200  20.733   6.275  0.00  0.00     0.065 A 
HETATM   19  C   UNK N   1      27.549  19.751   7.201  0.00  0.00     0.037 A 
HETATM   20  C   UNK N   1      28.188  18.585   6.772  0.00  0.00     0.011 A 
BRANCH  18  21
HETATM   21  O   UNK N   1      26.571  21.848   6.688  0.00  0.00    -0.361 OA
HETATM   22  H   UNK N   1      25.858  21.797   7.292  0.00  0.00     0.217 HD
ENDBRANCH  18  21
ENDBRANCH   1  15
TORSDOF 4
ENDMDL
MODEL 4
REMARK VINA RESULT:      -6.9      2.815      6.146
REMARK  4 active torsions:
REMARK  status: ('A' for Active; 'I' for Inactive)
REMARK    1  A    between atoms: O_1  and  C_2 
REMARK    2  A    between atoms: C_7  and  C_8 
REMARK    3  A    between atoms: C_8  and  C_14 
REMARK    4  A    between atoms: C_17  and  O_18 
ROOT
HETATM    1  C   UNK N   1      29.085  17.052   5.133  0.00  0.00     0.014 C 
HETATM    2  C   UNK N   1      28.820  16.770   3.634  0.00  0.00     0.019 C 
HETATM    3  C   UNK N   1      27.345  16.495   3.349  0.00  0.00     0.001 C 
HETATM    4  C   UNK N   1      28.535  15.859   5.949  0.00  0.00     0.019 C 
HETATM    5  C   UNK N   1      27.066  15.556   5.641  0.00  0.00     0.001 C 
HETATM    6  C   UNK N   1      26.883  15.287   4.152  0.00  0.00     0.000 C 
ENDROOT
BRANCH   1   7
HETATM    7  C   UNK N   1      28.470  18.395   5.523  0.00  0.00    -0.045 A 
HETATM    8  C   UNK N   1      28.137  18.635   6.870  0.00  0.00     0.011 A 
HETATM    9  C   UNK N   1      27.496  19.816   7.244  0.00  0.00     0.037 A 
HETATM   10  C   UNK N   1      27.174  20.772   6.280  0.00  0.00     0.065 A 
HETATM   11  C   UNK N   1      27.508  20.554   4.940  0.00  0.00     0.037 A 
HETATM   12  C   UNK N   1      28.150  19.371   4.562  0.00  0.00     0.011 A 
BRANCH  10  13
HETATM   13  O   UNK N   1      26.540  21.898   6.639  0.00  0.00    -0.361 OA
HETATM   14  H   UNK N   1      27.017  22.689   6.798  0.00  0.00     0.217 HD
ENDBRANCH  10  13
ENDBRANCH   1   7
BRANCH   1  15
HETATM   15  C   UNK N   1      30.576  17.165   5.422  0.00  0.00    -0.045 A 
HETATM   16  C   UNK N   1      31.498  17.520   4.421  0.00  0.00     0.011 A 
HETATM   17  C   UNK N   1      32.853  17.685   4.732  0.00  0.00     0.037 A 
HETATM   18  C   UNK N   1      33.295  17.496   6.043  0.00  0.00     0.065 A 
HETATM   19  C   UNK N   1      32.394  17.132   7.043  0.00  0.00     0.037 A 
HETATM   20  C   UNK N   1      31.042  16.968   6.735  0.00  0.00     0.011 A 
BRANCH  18  21
HETATM   21  O   UNK N   1      34.594  17.670   6.344  0.00  0.00    -0.361 OA
HETATM   22  H   UNK N   1      35.152  18.166   5.778  0.00  0.00     0.217 HD
ENDBRANCH  18  21
ENDBRANCH   1  15
TORSDOF 4
ENDMDL
MODEL 5
REMARK VINA RESULT:      -6.9      1.125      5.010
REMARK  4 active torsions:
REMARK  status: ('A' for Active; 'I' for Inactive)
REMARK    1  A    between atoms: O_1  and  C_2 
REMARK    2  A    between atoms: C_7  and  C_8 
REMARK    3  A    between atoms: C_8  and  C_14 
REMARK    4  A    between atoms: C_17  and  O_18 
ROOT
HETATM    1  C   UNK N   1      32.774  16.527   7.331  0.00  0.00     0.014 C 
HETATM    2  C   UNK N   1      33.583  17.512   6.454  0.00  0.00     0.019 C 
HETATM    3  C   UNK N   1      32.970  17.692   5.067  0.00  0.00     0.001 C 
HETATM    4  C   UNK N   1      32.648  15.192   6.559  0.00  0.00     0.019 C 
HETATM    5  C   UNK N   1      32.066  15.370   5.155  0.00  0.00     0.001 C 
HETATM    6  C   UNK N   1      32.914  16.349   4.352  0.00  0.00     0.000 C 
ENDROOT
BRANCH   1   7
HETATM    7  C   UNK N   1      31.428  17.148   7.700  0.00  0.00    -0.045 A 
HETATM    8  C   UNK N   1      31.385  18.173   8.665  0.00  0.00     0.011 A 
HETATM    9  C   UNK N   1      30.165  18.701   9.087  0.00  0.00     0.037 A 
HETATM   10  C   UNK N   1      28.970  18.211   8.555  0.00  0.00     0.065 A 
HETATM   11  C   UNK N   1      28.998  17.202   7.588  0.00  0.00     0.037 A 
HETATM   12  C   UNK N   1      30.219  16.671   7.165  0.00  0.00     0.011 A 
BRANCH  10  13
HETATM   13  O   UNK N   1      27.797  18.706   8.977  0.00  0.00    -0.361 OA
HETATM   14  H   UNK N   1      27.764  19.358   9.649  0.00  0.00     0.217 HD
ENDBRANCH  10  13
ENDBRANCH   1   7
BRANCH   1  15
HETATM   15  C   UNK N   1      33.487  16.238   8.646  0.00  0.00    -0.045 A 
HETATM   16  C   UNK N   1      33.161  15.121   9.434  0.00  0.00     0.011 A 
HETATM   17  C   UNK N   1      33.881  14.843  10.601  0.00  0.00     0.037 A 
HETATM   18  C   UNK N   1      34.931  15.677  10.988  0.00  0.00     0.065 A 
HETATM   19  C   UNK N   1      35.258  16.796  10.223  0.00  0.00     0.037 A 
HETATM   20  C   UNK N   1      34.541  17.076   9.057  0.00  0.00     0.011 A 
BRANCH  18  21
HETATM   21  O   UNK N   1      35.632  15.400  12.102  0.00  0.00    -0.361 OA
HETATM   22  H   UNK N   1      35.722  14.517  12.401  0.00  0.00     0.217 HD
ENDBRANCH  18  21
ENDBRANCH   1  15
TORSDOF 4
ENDMDL
MODEL 6
REMARK VINA RESULT:      -6.8      2.101      3.938
REMARK  4 active torsions:
REMARK  status: ('A' for Active; 'I' for Inactive)
REMARK    1  A    between atoms: O_1  and  C_2 
REMARK    2  A    between atoms: C_7  and  C_8 
REMARK    3  A    between atoms: C_8  and  C_14 
REMARK    4  A    between atoms: C_17  and  O_18 
ROOT
HETATM    1  C   UNK N   1      32.351  16.515   8.015  0.00  0.00     0.014 C 
HETATM    2  C   UNK N   1      33.476  17.315   8.714  0.00  0.00     0.019 C 
HETATM    3  C   UNK N   1      34.784  16.529   8.789  0.00  0.00     0.001 C 
HETATM    4  C   UNK N   1      32.191  15.166   8.756  0.00  0.00     0.019 C 
HETATM    5  C   UNK N   1      33.506  14.390   8.865  0.00  0.00     0.001 C 
HETATM    6  C   UNK N   1      34.563  15.237   9.563  0.00  0.00     0.000 C 
ENDROOT
BRANCH   1   7
HETATM    7  C   UNK N   1      32.670  16.363   6.529  0.00  0.00    -0.045 A 
HETATM    8  C   UNK N   1      32.998  17.505   5.775  0.00  0.00     0.011 A 
HETATM    9  C   UNK N   1      33.209  17.412   4.399  0.00  0.00     0.037 A 
HETATM   10  C   UNK N   1      33.092  16.178   3.756  0.00  0.00     0.065 A 
HETATM   11  C   UNK N   1      32.779  15.033   4.493  0.00  0.00     0.037 A 
HETATM   12  C   UNK N   1      32.565  15.124   5.871  0.00  0.00     0.011 A 
BRANCH  10  13
HETATM   13  O   UNK N   1      33.277  16.094   2.430  0.00  0.00    -0.361 OA
HETATM   14  H   UNK N   1      32.771  16.618   1.840  0.00  0.00     0.217 HD
ENDBRANCH  10  13
ENDBRANCH   1   7
BRANCH   1  15
HETATM   15  C   UNK N   1      31.018  17.248   8.093  0.00  0.00    -0.045 A 
HETATM   16  C   UNK N   1      29.911  16.855   7.320  0.00  0.00     0.011 A 
HETATM   17  C   UNK N   1      28.679  17.503   7.465  0.00  0.00     0.037 A 
HETATM   18  C   UNK N   1      28.544  18.546   8.382  0.00  0.00     0.065 A 
HETATM   19  C   UNK N   1      29.636  18.955   9.147  0.00  0.00     0.037 A 
HETATM   20  C   UNK N   1      30.867  18.310   9.004  0.00  0.00     0.011 A 
BRANCH  18  21
HETATM   21  O   UNK N   1      27.356  19.158   8.532  0.00  0.00    -0.361 OA
HETATM   22  H   UNK N   1      27.026  19.356   9.385  0.00  0.00     0.217 HD
ENDBRANCH  18  21
ENDBRANCH   1  15
TORSDOF 4
ENDMDL
MODEL 7
REMARK VINA RESULT:      -6.8     14.336     16.463
REMARK  4 active torsions:
REMARK  status: ('A' for Active; 'I' for Inactive)
REMARK    1  A    between atoms: O_1  and  C_2 
REMARK    2  A    between atoms: C_7  and  C_8 
REMARK    3  A    between atoms: C_8  and  C_14 
REMARK    4  A    between atoms: C_17  and  O_18 
ROOT
HETATM    1  C   UNK N   1      27.730  25.622  -5.653  0.00  0.00     0.014 C 
HETATM    2  C   UNK N   1      28.569  25.884  -6.926  0.00  0.00     0.019 C 
HETATM    3  C   UNK N   1      27.735  26.486  -8.056  0.00  0.00     0.001 C 
HETATM    4  C   UNK N   1      26.530  24.729  -6.047  0.00  0.00     0.019 C 
HETATM    5  C   UNK N   1      25.711  25.310  -7.201  0.00  0.00     0.001 C 
HETATM    6  C   UNK N   1      26.600  25.539  -8.417  0.00  0.00     0.000 C 
ENDROOT
BRANCH   1   7
HETATM    7  C   UNK N   1      27.321  26.951  -5.020  0.00  0.00    -0.045 A 
HETATM    8  C   UNK N   1      26.120  27.026  -4.291  0.00  0.00     0.011 A 
HETATM    9  C   UNK N   1      25.676  28.243  -3.774  0.00  0.00     0.037 A 
HETATM   10  C   UNK N   1      26.423  29.404  -3.981  0.00  0.00     0.065 A 
HETATM   11  C   UNK N   1      27.624  29.344  -4.694  0.00  0.00     0.037 A 
HETATM   12  C   UNK N   1      28.070  28.126  -5.214  0.00  0.00     0.011 A 
BRANCH  10  13
HETATM   13  O   UNK N   1      25.985  30.577  -3.501  0.00  0.00    -0.361 OA
HETATM   14  H   UNK N   1      25.099  30.678  -3.213  0.00  0.00     0.217 HD
ENDBRANCH  10  13
ENDBRANCH   1   7
BRANCH   1  15
HETATM   15  C   UNK N   1      28.538  24.877  -4.599  0.00  0.00    -0.045 A 
HETATM   16  C   UNK N   1      29.926  25.060  -4.465  0.00  0.00     0.011 A 
HETATM   17  C   UNK N   1      30.631  24.416  -3.442  0.00  0.00     0.037 A 
HETATM   18  C   UNK N   1      29.955  23.586  -2.546  0.00  0.00     0.065 A 
HETATM   19  C   UNK N   1      28.581  23.386  -2.673  0.00  0.00     0.037 A 
HETATM   20  C   UNK N   1      27.875  24.028  -3.693  0.00  0.00     0.011 A 
BRANCH  18  21
HETATM   21  O   UNK N   1      30.631  22.980  -1.554  0.00  0.00    -0.361 OA
HETATM   22  H   UNK N   1      30.175  22.599  -0.830  0.00  0.00     0.217 HD
ENDBRANCH  18  21
ENDBRANCH   1  15
TORSDOF 4
ENDMDL
MODEL 8
REMARK VINA RESULT:      -6.7     14.220     16.594
REMARK  4 active torsions:
REMARK  status: ('A' for Active; 'I' for Inactive)
REMARK    1  A    between atoms: O_1  and  C_2 
REMARK    2  A    between atoms: C_7  and  C_8 
REMARK    3  A    between atoms: C_8  and  C_14 
REMARK    4  A    between atoms: C_17  and  O_18 
ROOT
HETATM    1  C   UNK N   1      27.110  24.728  -5.651  0.00  0.00     0.014 C 
HETATM    2  C   UNK N   1      25.972  25.273  -4.755  0.00  0.00     0.019 C 
HETATM    3  C   UNK N   1      25.061  26.244  -5.504  0.00  0.00     0.001 C 
HETATM    4  C   UNK N   1      27.881  25.936  -6.233  0.00  0.00     0.019 C 
HETATM    5  C   UNK N   1      26.968  26.930  -6.955  0.00  0.00     0.001 C 
HETATM    6  C   UNK N   1      25.876  27.424  -6.014  0.00  0.00     0.000 C 
ENDROOT
BRANCH   1   7
HETATM    7  C   UNK N   1      26.530  23.800  -6.716  0.00  0.00    -0.045 A 
HETATM    8  C   UNK N   1      25.630  22.788  -6.333  0.00  0.00     0.011 A 
HETATM    9  C   UNK N   1      25.150  21.871  -7.268  0.00  0.00     0.037 A 
HETATM   10  C   UNK N   1      25.566  21.948  -8.599  0.00  0.00     0.065 A 
HETATM   11  C   UNK N   1      26.451  22.954  -8.997  0.00  0.00     0.037 A 
HETATM   12  C   UNK N   1      26.933  23.873  -8.062  0.00  0.00     0.011 A 
BRANCH  10  13
HETATM   13  O   UNK N   1      25.119  21.053  -9.492  0.00  0.00    -0.361 OA
HETATM   14  H   UNK N   1      25.703  20.434  -9.885  0.00  0.00     0.217 HD
ENDBRANCH  10  13
ENDBRANCH   1   7
BRANCH   1  15
HETATM   15  C   UNK N   1      28.097  23.891  -4.846  0.00  0.00    -0.045 A 
HETATM   16  C   UNK N   1      29.059  23.080  -5.472  0.00  0.00     0.011 A 
HETATM   17  C   UNK N   1      29.998  22.377  -4.708  0.00  0.00     0.037 A 
HETATM   18  C   UNK N   1      29.982  22.482  -3.316  0.00  0.00     0.065 A 
HETATM   19  C   UNK N   1      29.027  23.273  -2.681  0.00  0.00     0.037 A 
HETATM   20  C   UNK N   1      28.088  23.976  -3.441  0.00  0.00     0.011 A 
BRANCH  18  21
HETATM   21  O   UNK N   1      30.896  21.819  -2.584  0.00  0.00    -0.361 OA
HETATM   22  H   UNK N   1      31.807  21.876  -2.793  0.00  0.00     0.217 HD
ENDBRANCH  18  21
ENDBRANCH   1  15
TORSDOF 4
ENDMDL
MODEL 9
REMARK VINA RESULT:      -6.7     14.565     16.486
REMARK  4 active torsions:
REMARK  status: ('A' for Active; 'I' for Inactive)
REMARK    1  A    between atoms: O_1  and  C_2 
REMARK    2  A    between atoms: C_7  and  C_8 
REMARK    3  A    between atoms: C_8  and  C_14 
REMARK    4  A    between atoms: C_17  and  O_18 
ROOT
HETATM    1  C   UNK N   1      26.524  25.466  -5.875  0.00  0.00     0.014 C 
HETATM    2  C   UNK N   1      27.294  26.580  -6.623  0.00  0.00     0.019 C 
HETATM    3  C   UNK N   1      27.629  27.762  -5.714  0.00  0.00     0.001 C 
HETATM    4  C   UNK N   1      25.265  26.099  -5.237  0.00  0.00     0.019 C 
HETATM    5  C   UNK N   1      25.591  27.305  -4.353  0.00  0.00     0.001 C 
HETATM    6  C   UNK N   1      26.346  28.359  -5.154  0.00  0.00     0.000 C 
ENDROOT
BRANCH   1   7
HETATM    7  C   UNK N   1      27.447  24.787  -4.865  0.00  0.00    -0.045 A 
HETATM    8  C   UNK N   1      26.935  24.411  -3.609  0.00  0.00     0.011 A 
HETATM    9  C   UNK N   1      27.771  23.868  -2.633  0.00  0.00     0.037 A 
HETATM   10  C   UNK N   1      29.132  23.697  -2.896  0.00  0.00     0.065 A 
HETATM   11  C   UNK N   1      29.653  24.055  -4.143  0.00  0.00     0.037 A 
HETATM   12  C   UNK N   1      28.817  24.600  -5.121  0.00  0.00     0.011 A 
BRANCH  10  13
HETATM   13  O   UNK N   1      29.938  23.193  -1.950  0.00  0.00    -0.361 OA
HETATM   14  H   UNK N   1      29.835  22.312  -1.650  0.00  0.00     0.217 HD
ENDBRANCH  10  13
ENDBRANCH   1   7
BRANCH   1  15
HETATM   15  C   UNK N   1      26.061  24.374  -6.832  0.00  0.00    -0.045 A 
HETATM   16  C   UNK N   1      25.997  24.586  -8.221  0.00  0.00     0.011 A 
HETATM   17  C   UNK N   1      25.635  23.543  -9.081  0.00  0.00     0.037 A 
HETATM   18  C   UNK N   1      25.336  22.283  -8.561  0.00  0.00     0.065 A 
HETATM   19  C   UNK N   1      25.384  22.061  -7.185  0.00  0.00     0.037 A 
HETATM   20  C   UNK N   1      25.745  23.100  -6.324  0.00  0.00     0.011 A 
BRANCH  18  21
HETATM   21  O   UNK N   1      25.005  21.277  -9.390  0.00  0.00    -0.361 OA
HETATM   22  H   UNK N   1      24.994  21.408 -10.317  0.00  0.00     0.217 HD
ENDBRANCH  18  21
ENDBRANCH   1  15
TORSDOF 4
ENDMDL
