REMARK  7 active torsions:
REMARK  status: ('A' for Active; 'I' for Inactive)
REMARK    1  A    between atoms: C_2  and  C_5 
REMARK    2  A    between atoms: C_6  and  C_7 
REMARK    3  A    between atoms: C_11  and  S_12 
REMARK    4  A    between atoms: S_12  and  C_13 
REMARK    5  A    between atoms: C_15  and  N_16 
REMARK    6  A    between atoms: C_22  and  C_23 
REMARK    7  A    between atoms: C_24  and  C_25 
REMARK       I    between atoms: C_25  and  N_27 
ROOT
HETATM    1  C   UNK N   1       0.565   1.963  -0.368  0.00  0.00     0.080 A 
HETATM    2  C   UNK N   1      -0.684   1.242  -0.170  0.00  0.00     0.074 A 
HETATM    3  C   UNK N   1       1.729   1.238  -0.764  0.00  0.00     0.021 A 
HETATM    4  C   UNK N   1       1.680  -0.134  -0.904  0.00  0.00     0.021 A 
HETATM    5  C   UNK N   1       0.530  -0.829  -0.635  0.00  0.00     0.013 A 
HETATM    6  C   UNK N   1      -0.656  -0.198  -0.286  0.00  0.00    -0.020 A 
ENDROOT
BRANCH   3   7
HETATM    7  S   UNK N   1       3.255   2.080  -1.272  0.00  0.00    -0.090 SA
BRANCH   7   8
HETATM    8  C   UNK N   1       4.532   1.149  -0.413  0.00  0.00     0.007 A 
HETATM    9  C   UNK N   1       5.581   1.858   0.180  0.00  0.00     0.047 A 
HETATM   10  C   UNK N   1       6.655   1.178   0.758  0.00  0.00     0.026 A 
HETATM   11  C   UNK N   1       6.688  -0.219   0.742  0.00  0.00     0.029 A 
HETATM   12  C   UNK N   1       5.648  -0.935   0.143  0.00  0.00     0.004 A 
HETATM   13  C   UNK N   1       4.581  -0.252  -0.450  0.00  0.00     0.019 A 
BRANCH  10  14
HETATM   14  N   UNK N   1       7.716   1.903   1.334  0.00  0.00    -0.399 N 
HETATM   15  H   UNK N   1       8.526   1.514   1.737  0.00  0.00     0.156 HD
HETATM   16  H   UNK N   1       7.641   2.884   1.334  0.00  0.00     0.156 HD
ENDBRANCH  10  14
ENDBRANCH   7   8
ENDBRANCH   3   7
BRANCH   1  17
HETATM   17  C   UNK N   1       0.732   3.482  -0.204  0.00  0.00     0.419 C 
HETATM   18  F   UNK N   1       1.106   4.044  -1.411  0.00  0.00    -0.166 F 
HETATM   19  F   UNK N   1       1.732   3.710   0.726  0.00  0.00    -0.166 F 
HETATM   20  F   UNK N   1      -0.368   4.176   0.244  0.00  0.00    -0.166 F 
ENDBRANCH   1  17
BRANCH   2  21
HETATM   21  C   UNK N   1      -1.975   2.026   0.090  0.00  0.00     0.419 C 
HETATM   22  F   UNK N   1      -2.133   2.965  -0.917  0.00  0.00    -0.166 F 
HETATM   23  F   UNK N   1      -3.127   1.288   0.056  0.00  0.00    -0.166 F 
HETATM   24  F   UNK N   1      -1.927   2.648   1.324  0.00  0.00    -0.166 F 
ENDBRANCH   2  21
BRANCH   6  25
HETATM   25  C   UNK N   1      -1.724  -1.200  -0.070  0.00  0.00     0.018 C 
HETATM   26  C   UNK N   1      -2.997  -1.190   0.312  0.00  0.00     0.075 C 
BRANCH  26  27
HETATM   27  C   UNK N   1      -3.761  -2.464   0.452  0.00  0.00     0.243 C 
HETATM   28  O   UNK N   1      -4.979  -2.401   0.409  0.00  0.00    -0.268 OA
HETATM   29  N   UNK N   1      -3.148  -3.685   0.617  0.00  0.00    -0.345 N 
HETATM   30  C   UNK N   1      -1.714  -3.839   0.745  0.00  0.00     0.152 C 
HETATM   31  C   UNK N   1      -3.929  -4.905   0.622  0.00  0.00     0.152 C 
HETATM   32  C   UNK N   1      -1.256  -4.861  -0.292  0.00  0.00     0.187 C 
HETATM   33  O   UNK N   1      -1.940  -6.074  -0.076  0.00  0.00    -0.388 OA
HETATM   34  C   UNK N   1      -3.296  -5.855  -0.404  0.00  0.00     0.187 C 
ENDBRANCH  26  27
ENDBRANCH   6  25
TORSDOF 7
