MODEL 1
REMARK VINA RESULT:      -7.9      0.000      0.000
REMARK  7 active torsions:
REMARK  status: ('A' for Active; 'I' for Inactive)
REMARK    1  A    between atoms: C_2  and  C_5 
REMARK    2  A    between atoms: C_6  and  C_7 
REMARK    3  A    between atoms: C_11  and  S_12 
REMARK    4  A    between atoms: S_12  and  C_13 
REMARK    5  A    between atoms: C_15  and  N_16 
REMARK    6  A    between atoms: C_22  and  C_23 
REMARK    7  A    between atoms: C_24  and  C_25 
REMARK       I    between atoms: C_25  and  N_27 
ROOT
HETATM    1  C   UNK N   1      28.360  17.879   6.311  0.00  0.00     0.080 A 
HETATM    2  C   UNK N   1      27.385  18.834   5.804  0.00  0.00     0.074 A 
HETATM    3  C   UNK N   1      28.621  16.691   5.564  0.00  0.00     0.021 A 
HETATM    4  C   UNK N   1      27.920  16.430   4.405  0.00  0.00     0.021 A 
HETATM    5  C   UNK N   1      26.940  17.282   3.967  0.00  0.00     0.013 A 
HETATM    6  C   UNK N   1      26.652  18.478   4.611  0.00  0.00    -0.020 A 
ENDROOT
BRANCH   3   7
HETATM    7  S   UNK N   1      29.988  15.575   5.988  0.00  0.00    -0.090 SA
BRANCH   7   8
HETATM    8  C   UNK N   1      31.181  15.886   4.678  0.00  0.00     0.007 A 
HETATM    9  C   UNK N   1      31.754  14.786   4.032  0.00  0.00     0.047 A 
HETATM   10  C   UNK N   1      32.768  14.971   3.090  0.00  0.00     0.026 A 
HETATM   11  C   UNK N   1      33.219  16.260   2.791  0.00  0.00     0.029 A 
HETATM   12  C   UNK N   1      32.658  17.363   3.440  0.00  0.00     0.004 A 
HETATM   13  C   UNK N   1      31.654  17.175   4.395  0.00  0.00     0.019 A 
BRANCH  10  14
HETATM   14  N   UNK N   1      33.353  13.855   2.460  0.00  0.00    -0.399 N 
HETATM   15  H   UNK N   1      32.980  12.943   2.445  0.00  0.00     0.156 HD
HETATM   16  H   UNK N   1      34.208  13.999   1.995  0.00  0.00     0.156 HD
ENDBRANCH  10  14
ENDBRANCH   7   8
ENDBRANCH   3   7
BRANCH   1  17
HETATM   17  C   UNK N   1      29.167  18.060   7.607  0.00  0.00     0.419 C 
HETATM   18  F   UNK N   1      30.514  17.887   7.346  0.00  0.00    -0.166 F 
HETATM   19  F   UNK N   1      28.758  17.095   8.511  0.00  0.00    -0.166 F 
HETATM   20  F   UNK N   1      29.030  19.267   8.252  0.00  0.00    -0.166 F 
ENDBRANCH   1  17
BRANCH   2  21
HETATM   21  C   UNK N   1      27.218  20.187   6.505  0.00  0.00     0.419 C 
HETATM   22  F   UNK N   1      28.340  20.959   6.251  0.00  0.00    -0.166 F 
HETATM   23  F   UNK N   1      26.169  20.949   6.066  0.00  0.00    -0.166 F 
HETATM   24  F   UNK N   1      27.053  20.012   7.866  0.00  0.00    -0.166 F 
ENDBRANCH   2  21
BRANCH   6  25
HETATM   25  C   UNK N   1      25.562  19.189   3.905  0.00  0.00     0.018 C 
HETATM   26  C   UNK N   1      24.254  19.360   4.069  0.00  0.00     0.075 C 
BRANCH  26  27
HETATM   27  C   UNK N   1      23.459  20.147   3.082  0.00  0.00     0.243 C 
HETATM   28  O   UNK N   1      24.071  20.844   2.289  0.00  0.00    -0.268 OA
HETATM   29  N   UNK N   1      22.084  20.107   3.033  0.00  0.00    -0.345 N 
HETATM   30  C   UNK N   1      21.280  19.360   3.978  0.00  0.00     0.152 C 
HETATM   31  C   UNK N   1      21.366  20.791   1.977  0.00  0.00     0.152 C 
HETATM   32  C   UNK N   1      20.347  18.449   3.186  0.00  0.00     0.187 C 
HETATM   33  O   UNK N   1      19.557  19.236   2.324  0.00  0.00    -0.388 OA
HETATM   34  C   UNK N   1      20.415  19.769   1.338  0.00  0.00     0.187 C 
ENDBRANCH  26  27
ENDBRANCH   6  25
TORSDOF 7
ENDMDL
MODEL 2
REMARK VINA RESULT:      -7.8     11.575     14.705
REMARK  7 active torsions:
REMARK  status: ('A' for Active; 'I' for Inactive)
REMARK    1  A    between atoms: C_2  and  C_5 
REMARK    2  A    between atoms: C_6  and  C_7 
REMARK    3  A    between atoms: C_11  and  S_12 
REMARK    4  A    between atoms: S_12  and  C_13 
REMARK    5  A    between atoms: C_15  and  N_16 
REMARK    6  A    between atoms: C_22  and  C_23 
REMARK    7  A    between atoms: C_24  and  C_25 
REMARK       I    between atoms: C_25  and  N_27 
ROOT
HETATM    1  C   UNK N   1      26.946  23.857  -6.174  0.00  0.00     0.080 A 
HETATM    2  C   UNK N   1      28.158  23.086  -5.936  0.00  0.00     0.074 A 
HETATM    3  C   UNK N   1      26.556  24.847  -5.223  0.00  0.00     0.021 A 
HETATM    4  C   UNK N   1      27.291  25.031  -4.069  0.00  0.00     0.021 A 
HETATM    5  C   UNK N   1      28.383  24.249  -3.797  0.00  0.00     0.013 A 
HETATM    6  C   UNK N   1      28.854  23.294  -4.687  0.00  0.00    -0.020 A 
ENDROOT
BRANCH   3   7
HETATM    7  S   UNK N   1      25.210  26.018  -5.556  0.00  0.00    -0.090 SA
BRANCH   7   8
HETATM    8  C   UNK N   1      25.998  27.617  -5.312  0.00  0.00     0.007 A 
HETATM    9  C   UNK N   1      26.995  28.006  -6.212  0.00  0.00     0.047 A 
HETATM   10  C   UNK N   1      27.717  29.183  -6.000  0.00  0.00     0.026 A 
HETATM   11  C   UNK N   1      27.447  29.976  -4.882  0.00  0.00     0.029 A 
HETATM   12  C   UNK N   1      26.459  29.590  -3.973  0.00  0.00     0.004 A 
HETATM   13  C   UNK N   1      25.748  28.402  -4.178  0.00  0.00     0.019 A 
BRANCH  10  14
HETATM   14  N   UNK N   1      28.733  29.554  -6.902  0.00  0.00    -0.399 N 
HETATM   15  H   UNK N   1      28.613  29.726  -7.864  0.00  0.00     0.156 HD
HETATM   16  H   UNK N   1      29.642  29.650  -6.538  0.00  0.00     0.156 HD
ENDBRANCH  10  14
ENDBRANCH   7   8
ENDBRANCH   3   7
BRANCH   1  17
HETATM   17  C   UNK N   1      26.042  23.705  -7.408  0.00  0.00     0.419 C 
HETATM   18  F   UNK N   1      25.243  24.826  -7.542  0.00  0.00    -0.166 F 
HETATM   19  F   UNK N   1      25.233  22.598  -7.218  0.00  0.00    -0.166 F 
HETATM   20  F   UNK N   1      26.675  23.510  -8.613  0.00  0.00    -0.166 F 
ENDBRANCH   1  17
BRANCH   2  21
HETATM   21  C   UNK N   1      28.678  22.142  -7.026  0.00  0.00     0.419 C 
HETATM   22  F   UNK N   1      29.107  22.902  -8.102  0.00  0.00    -0.166 F 
HETATM   23  F   UNK N   1      29.767  21.390  -6.680  0.00  0.00    -0.166 F 
HETATM   24  F   UNK N   1      27.686  21.264  -7.423  0.00  0.00    -0.166 F 
ENDBRANCH   2  21
BRANCH   6  25
HETATM   25  C   UNK N   1      30.048  22.620  -4.130  0.00  0.00     0.018 C 
HETATM   26  C   UNK N   1      31.293  22.963  -3.813  0.00  0.00     0.075 C 
BRANCH  26  27
HETATM   27  C   UNK N   1      32.253  21.948  -3.289  0.00  0.00     0.243 C 
HETATM   28  O   UNK N   1      32.220  21.701  -2.095  0.00  0.00    -0.268 OA
HETATM   29  N   UNK N   1      33.153  21.289  -4.096  0.00  0.00    -0.345 N 
HETATM   30  C   UNK N   1      33.303  21.571  -5.508  0.00  0.00     0.152 C 
HETATM   31  C   UNK N   1      33.976  20.224  -3.562  0.00  0.00     0.152 C 
HETATM   32  C   UNK N   1      33.166  20.255  -6.268  0.00  0.00     0.187 C 
HETATM   33  O   UNK N   1      34.142  19.351  -5.802  0.00  0.00    -0.388 OA
HETATM   34  C   UNK N   1      33.795  19.006  -4.478  0.00  0.00     0.187 C 
ENDBRANCH  26  27
ENDBRANCH   6  25
TORSDOF 7
ENDMDL
MODEL 3
REMARK VINA RESULT:      -7.8     13.667     16.811
REMARK  7 active torsions:
REMARK  status: ('A' for Active; 'I' for Inactive)
REMARK    1  A    between atoms: C_2  and  C_5 
REMARK    2  A    between atoms: C_6  and  C_7 
REMARK    3  A    between atoms: C_11  and  S_12 
REMARK    4  A    between atoms: S_12  and  C_13 
REMARK    5  A    between atoms: C_15  and  N_16 
REMARK    6  A    between atoms: C_22  and  C_23 
REMARK    7  A    between atoms: C_24  and  C_25 
REMARK       I    between atoms: C_25  and  N_27 
ROOT
HETATM    1  C   UNK N   1      35.106  11.333  18.446  0.00  0.00     0.080 A 
HETATM    2  C   UNK N   1      35.303  11.959  17.147  0.00  0.00     0.074 A 
HETATM    3  C   UNK N   1      34.989   9.913  18.520  0.00  0.00     0.021 A 
HETATM    4  C   UNK N   1      35.009   9.152  17.370  0.00  0.00     0.021 A 
HETATM    5  C   UNK N   1      35.108   9.741  16.136  0.00  0.00     0.013 A 
HETATM    6  C   UNK N   1      35.268  11.111  15.978  0.00  0.00    -0.020 A 
ENDROOT
BRANCH   3   7
HETATM    7  S   UNK N   1      34.991   9.034  20.109  0.00  0.00    -0.090 SA
BRANCH   7   8
HETATM    8  C   UNK N   1      33.408   8.179  20.097  0.00  0.00     0.007 A 
HETATM    9  C   UNK N   1      33.384   6.838  19.704  0.00  0.00     0.047 A 
HETATM   10  C   UNK N   1      32.169   6.164  19.567  0.00  0.00     0.026 A 
HETATM   11  C   UNK N   1      30.967   6.831  19.819  0.00  0.00     0.029 A 
HETATM   12  C   UNK N   1      30.982   8.175  20.203  0.00  0.00     0.004 A 
HETATM   13  C   UNK N   1      32.200   8.853  20.324  0.00  0.00     0.019 A 
BRANCH  10  14
HETATM   14  N   UNK N   1      32.156   4.818  19.151  0.00  0.00    -0.399 N 
HETATM   15  H   UNK N   1      32.657   4.448  18.388  0.00  0.00     0.156 HD
HETATM   16  H   UNK N   1      31.597   4.194  19.667  0.00  0.00     0.156 HD
ENDBRANCH  10  14
ENDBRANCH   7   8
ENDBRANCH   3   7
BRANCH   1  17
HETATM   17  C   UNK N   1      35.035  12.093  19.780  0.00  0.00     0.419 C 
HETATM   18  F   UNK N   1      36.295  12.165  20.345  0.00  0.00    -0.166 F 
HETATM   19  F   UNK N   1      34.200  11.393  20.634  0.00  0.00    -0.166 F 
HETATM   20  F   UNK N   1      34.538  13.375  19.731  0.00  0.00    -0.166 F 
ENDBRANCH   1  17
BRANCH   2  21
HETATM   21  C   UNK N   1      35.598  13.462  17.070  0.00  0.00     0.419 C 
HETATM   22  F   UNK N   1      34.399  14.140  16.918  0.00  0.00    -0.166 F 
HETATM   23  F   UNK N   1      36.163  14.007  18.190  0.00  0.00    -0.166 F 
HETATM   24  F   UNK N   1      36.444  13.738  16.012  0.00  0.00    -0.166 F 
ENDBRANCH   2  21
BRANCH   6  25
HETATM   25  C   UNK N   1      35.357  11.452  14.540  0.00  0.00     0.018 C 
HETATM   26  C   UNK N   1      34.670  12.192  13.677  0.00  0.00     0.075 C 
BRANCH  26  27
HETATM   27  C   UNK N   1      35.069  12.257  12.241  0.00  0.00     0.243 C 
HETATM   28  O   UNK N   1      34.722  11.340  11.515  0.00  0.00    -0.268 OA
HETATM   29  N   UNK N   1      35.795  13.302  11.717  0.00  0.00    -0.345 N 
HETATM   30  C   UNK N   1      36.302  14.394  12.521  0.00  0.00     0.152 C 
HETATM   31  C   UNK N   1      36.049  13.380  10.293  0.00  0.00     0.152 C 
HETATM   32  C   UNK N   1      35.834  15.702  11.888  0.00  0.00     0.187 C 
HETATM   33  O   UNK N   1      36.299  15.762  10.559  0.00  0.00    -0.388 OA
HETATM   34  C   UNK N   1      35.606  14.774   9.826  0.00  0.00     0.187 C 
ENDBRANCH  26  27
ENDBRANCH   6  25
TORSDOF 7
ENDMDL
MODEL 4
REMARK VINA RESULT:      -7.7      3.610      4.486
REMARK  7 active torsions:
REMARK  status: ('A' for Active; 'I' for Inactive)
REMARK    1  A    between atoms: C_2  and  C_5 
REMARK    2  A    between atoms: C_6  and  C_7 
REMARK    3  A    between atoms: C_11  and  S_12 
REMARK    4  A    between atoms: S_12  and  C_13 
REMARK    5  A    between atoms: C_15  and  N_16 
REMARK    6  A    between atoms: C_22  and  C_23 
REMARK    7  A    between atoms: C_24  and  C_25 
REMARK       I    between atoms: C_25  and  N_27 
ROOT
HETATM    1  C   UNK N   1      28.011  16.218   3.797  0.00  0.00     0.080 A 
HETATM    2  C   UNK N   1      26.682  16.701   3.449  0.00  0.00     0.074 A 
HETATM    3  C   UNK N   1      28.951  17.126   4.371  0.00  0.00     0.021 A 
HETATM    4  C   UNK N   1      28.619  18.454   4.543  0.00  0.00     0.021 A 
HETATM    5  C   UNK N   1      27.401  18.934   4.138  0.00  0.00     0.013 A 
HETATM    6  C   UNK N   1      26.415  18.112   3.610  0.00  0.00    -0.020 A 
ENDROOT
BRANCH   3   7
HETATM    7  S   UNK N   1      30.532  16.559   5.060  0.00  0.00    -0.090 SA
BRANCH   7   8
HETATM    8  C   UNK N   1      30.460  17.141   6.761  0.00  0.00     0.007 A 
HETATM    9  C   UNK N   1      29.203  17.379   7.325  0.00  0.00     0.047 A 
HETATM   10  C   UNK N   1      29.096  17.940   8.599  0.00  0.00     0.026 A 
HETATM   11  C   UNK N   1      30.249  18.271   9.316  0.00  0.00     0.029 A 
HETATM   12  C   UNK N   1      31.509  18.045   8.755  0.00  0.00     0.004 A 
HETATM   13  C   UNK N   1      31.614  17.499   7.472  0.00  0.00     0.019 A 
BRANCH  10  14
HETATM   14  N   UNK N   1      27.825  18.194   9.149  0.00  0.00    -0.399 N 
HETATM   15  H   UNK N   1      27.634  18.373  10.099  0.00  0.00     0.156 HD
HETATM   16  H   UNK N   1      27.060  18.193   8.531  0.00  0.00     0.156 HD
ENDBRANCH  10  14
ENDBRANCH   7   8
ENDBRANCH   3   7
BRANCH   1  17
HETATM   17  C   UNK N   1      28.489  14.769   3.613  0.00  0.00     0.419 C 
HETATM   18  F   UNK N   1      28.260  14.051   4.773  0.00  0.00    -0.166 F 
HETATM   19  F   UNK N   1      29.850  14.790   3.360  0.00  0.00    -0.166 F 
HETATM   20  F   UNK N   1      27.922  14.061   2.579  0.00  0.00    -0.166 F 
ENDBRANCH   1  17
BRANCH   2  21
HETATM   21  C   UNK N   1      25.613  15.703   2.990  0.00  0.00     0.419 C 
HETATM   22  F   UNK N   1      25.624  14.616   3.850  0.00  0.00    -0.166 F 
HETATM   23  F   UNK N   1      24.324  16.163   3.034  0.00  0.00    -0.166 F 
HETATM   24  F   UNK N   1      25.855  15.293   1.692  0.00  0.00    -0.166 F 
ENDBRANCH   2  21
BRANCH   6  25
HETATM   25  C   UNK N   1      25.211  18.905   3.278  0.00  0.00     0.018 C 
HETATM   26  C   UNK N   1      24.319  19.634   3.941  0.00  0.00     0.075 C 
BRANCH  26  27
HETATM   27  C   UNK N   1      23.176  20.275   3.228  0.00  0.00     0.243 C 
HETATM   28  O   UNK N   1      23.384  21.337   2.664  0.00  0.00    -0.268 OA
HETATM   29  N   UNK N   1      21.920  19.713   3.180  0.00  0.00    -0.345 N 
HETATM   30  C   UNK N   1      21.573  18.492   3.875  0.00  0.00     0.152 C 
HETATM   31  C   UNK N   1      20.878  20.311   2.370  0.00  0.00     0.152 C 
HETATM   32  C   UNK N   1      20.961  17.530   2.861  0.00  0.00     0.187 C 
HETATM   33  O   UNK N   1      19.837  18.139   2.268  0.00  0.00    -0.388 OA
HETATM   34  C   UNK N   1      20.310  19.205   1.471  0.00  0.00     0.187 C 
ENDBRANCH  26  27
ENDBRANCH   6  25
TORSDOF 7
ENDMDL
MODEL 5
REMARK VINA RESULT:      -7.6      3.427      4.987
REMARK  7 active torsions:
REMARK  status: ('A' for Active; 'I' for Inactive)
REMARK    1  A    between atoms: C_2  and  C_5 
REMARK    2  A    between atoms: C_6  and  C_7 
REMARK    3  A    between atoms: C_11  and  S_12 
REMARK    4  A    between atoms: S_12  and  C_13 
REMARK    5  A    between atoms: C_15  and  N_16 
REMARK    6  A    between atoms: C_22  and  C_23 
REMARK    7  A    between atoms: C_24  and  C_25 
REMARK       I    between atoms: C_25  and  N_27 
ROOT
HETATM    1  C   UNK N   1      26.534  18.858   4.447  0.00  0.00     0.080 A 
HETATM    2  C   UNK N   1      25.109  18.780   4.157  0.00  0.00     0.074 A 
HETATM    3  C   UNK N   1      27.204  17.700   4.944  0.00  0.00     0.021 A 
HETATM    4  C   UNK N   1      26.498  16.542   5.197  0.00  0.00     0.021 A 
HETATM    5  C   UNK N   1      25.141  16.489   5.009  0.00  0.00     0.013 A 
HETATM    6  C   UNK N   1      24.420  17.554   4.489  0.00  0.00    -0.020 A 
ENDROOT
BRANCH   3   7
HETATM    7  S   UNK N   1      29.012  17.631   5.095  0.00  0.00    -0.090 SA
BRANCH   7   8
HETATM    8  C   UNK N   1      29.273  17.794   6.867  0.00  0.00     0.007 A 
HETATM    9  C   UNK N   1      30.340  17.100   7.445  0.00  0.00     0.047 A 
HETATM   10  C   UNK N   1      30.516  17.101   8.830  0.00  0.00     0.026 A 
HETATM   11  C   UNK N   1      29.621  17.796   9.648  0.00  0.00     0.029 A 
HETATM   12  C   UNK N   1      28.547  18.485   9.079  0.00  0.00     0.004 A 
HETATM   13  C   UNK N   1      28.362  18.469   7.693  0.00  0.00     0.019 A 
BRANCH  10  14
HETATM   14  N   UNK N   1      31.583  16.380   9.402  0.00  0.00    -0.399 N 
HETATM   15  H   UNK N   1      31.500  15.553   9.930  0.00  0.00     0.156 HD
HETATM   16  H   UNK N   1      32.490  16.735   9.263  0.00  0.00     0.156 HD
ENDBRANCH  10  14
ENDBRANCH   7   8
ENDBRANCH   3   7
BRANCH   1  17
HETATM   17  C   UNK N   1      27.401  20.108   4.233  0.00  0.00     0.419 C 
HETATM   18  F   UNK N   1      26.994  21.112   5.093  0.00  0.00    -0.166 F 
HETATM   19  F   UNK N   1      27.229  20.538   2.928  0.00  0.00    -0.166 F 
HETATM   20  F   UNK N   1      28.757  19.951   4.404  0.00  0.00    -0.166 F 
ENDBRANCH   1  17
BRANCH   2  21
HETATM   21  C   UNK N   1      24.414  19.959   3.467  0.00  0.00     0.419 C 
HETATM   22  F   UNK N   1      24.914  20.076   2.180  0.00  0.00    -0.166 F 
HETATM   23  F   UNK N   1      23.062  19.827   3.300  0.00  0.00    -0.166 F 
HETATM   24  F   UNK N   1      24.624  21.130   4.173  0.00  0.00    -0.166 F 
ENDBRANCH   2  21
BRANCH   6  25
HETATM   25  C   UNK N   1      22.986  17.201   4.389  0.00  0.00     0.018 C 
HETATM   26  C   UNK N   1      21.845  17.632   4.916  0.00  0.00     0.075 C 
BRANCH  26  27
HETATM   27  C   UNK N   1      20.552  16.965   4.584  0.00  0.00     0.243 C 
HETATM   28  O   UNK N   1      19.913  17.407   3.642  0.00  0.00    -0.268 OA
HETATM   29  N   UNK N   1      20.070  15.884   5.286  0.00  0.00    -0.345 N 
HETATM   30  C   UNK N   1      20.731  15.341   6.454  0.00  0.00     0.152 C 
HETATM   31  C   UNK N   1      18.874  15.196   4.846  0.00  0.00     0.152 C 
HETATM   32  C   UNK N   1      20.936  13.846   6.227  0.00  0.00     0.187 C 
HETATM   33  O   UNK N   1      19.685  13.239   5.997  0.00  0.00    -0.388 OA
HETATM   34  C   UNK N   1      19.218  13.703   4.747  0.00  0.00     0.187 C 
ENDBRANCH  26  27
ENDBRANCH   6  25
TORSDOF 7
ENDMDL
MODEL 6
REMARK VINA RESULT:      -7.6      5.947     10.410
REMARK  7 active torsions:
REMARK  status: ('A' for Active; 'I' for Inactive)
REMARK    1  A    between atoms: C_2  and  C_5 
REMARK    2  A    between atoms: C_6  and  C_7 
REMARK    3  A    between atoms: C_11  and  S_12 
REMARK    4  A    between atoms: S_12  and  C_13 
REMARK    5  A    between atoms: C_15  and  N_16 
REMARK    6  A    between atoms: C_22  and  C_23 
REMARK    7  A    between atoms: C_24  and  C_25 
REMARK       I    between atoms: C_25  and  N_27 
ROOT
HETATM    1  C   UNK N   1      30.761  16.568   4.875  0.00  0.00     0.080 A 
HETATM    2  C   UNK N   1      32.001  16.647   5.633  0.00  0.00     0.074 A 
HETATM    3  C   UNK N   1      29.517  16.590   5.576  0.00  0.00     0.021 A 
HETATM    4  C   UNK N   1      29.497  16.632   6.955  0.00  0.00     0.021 A 
HETATM    5  C   UNK N   1      30.661  16.618   7.678  0.00  0.00     0.013 A 
HETATM    6  C   UNK N   1      31.911  16.640   7.075  0.00  0.00    -0.020 A 
ENDROOT
BRANCH   3   7
HETATM    7  S   UNK N   1      27.931  16.747   4.707  0.00  0.00    -0.090 SA
BRANCH   7   8
HETATM    8  C   UNK N   1      27.519  18.483   4.934  0.00  0.00     0.007 A 
HETATM    9  C   UNK N   1      27.227  18.929   6.227  0.00  0.00     0.047 A 
HETATM   10  C   UNK N   1      26.790  20.238   6.440  0.00  0.00     0.026 A 
HETATM   11  C   UNK N   1      26.638  21.109   5.357  0.00  0.00     0.029 A 
HETATM   12  C   UNK N   1      26.919  20.668   4.061  0.00  0.00     0.004 A 
HETATM   13  C   UNK N   1      27.341  19.352   3.848  0.00  0.00     0.019 A 
BRANCH  10  14
HETATM   14  N   UNK N   1      26.478  20.671   7.743  0.00  0.00    -0.399 N 
HETATM   15  H   UNK N   1      26.502  20.113   8.555  0.00  0.00     0.156 HD
HETATM   16  H   UNK N   1      26.213  21.612   7.852  0.00  0.00     0.156 HD
ENDBRANCH  10  14
ENDBRANCH   7   8
ENDBRANCH   3   7
BRANCH   1  17
HETATM   17  C   UNK N   1      30.677  16.484   3.343  0.00  0.00     0.419 C 
HETATM   18  F   UNK N   1      31.052  15.220   2.923  0.00  0.00    -0.166 F 
HETATM   19  F   UNK N   1      31.555  17.412   2.810  0.00  0.00    -0.166 F 
HETATM   20  F   UNK N   1      29.451  16.752   2.779  0.00  0.00    -0.166 F 
ENDBRANCH   1  17
BRANCH   2  21
HETATM   21  C   UNK N   1      33.332  16.793   4.888  0.00  0.00     0.419 C 
HETATM   22  F   UNK N   1      33.360  18.033   4.269  0.00  0.00    -0.166 F 
HETATM   23  F   UNK N   1      34.451  16.777   5.676  0.00  0.00    -0.166 F 
HETATM   24  F   UNK N   1      33.480  15.785   3.952  0.00  0.00    -0.166 F 
ENDBRANCH   2  21
BRANCH   6  25
HETATM   25  C   UNK N   1      32.975  16.633   8.104  0.00  0.00     0.018 C 
HETATM   26  C   UNK N   1      33.743  15.723   8.695  0.00  0.00     0.075 C 
BRANCH  26  27
HETATM   27  C   UNK N   1      34.713  16.118   9.758  0.00  0.00     0.243 C 
HETATM   28  O   UNK N   1      34.826  17.308  10.006  0.00  0.00    -0.268 OA
HETATM   29  N   UNK N   1      35.464  15.202  10.458  0.00  0.00    -0.345 N 
HETATM   30  C   UNK N   1      35.439  13.781  10.180  0.00  0.00     0.152 C 
HETATM   31  C   UNK N   1      36.297  15.627  11.565  0.00  0.00     0.152 C 
HETATM   32  C   UNK N   1      35.137  13.052  11.487  0.00  0.00     0.187 C 
HETATM   33  O   UNK N   1      36.120  13.388  12.439  0.00  0.00    -0.388 OA
HETATM   34  C   UNK N   1      35.936  14.748  12.770  0.00  0.00     0.187 C 
ENDBRANCH  26  27
ENDBRANCH   6  25
TORSDOF 7
ENDMDL
MODEL 7
REMARK VINA RESULT:      -7.5      4.459      9.143
REMARK  7 active torsions:
REMARK  status: ('A' for Active; 'I' for Inactive)
REMARK    1  A    between atoms: C_2  and  C_5 
REMARK    2  A    between atoms: C_6  and  C_7 
REMARK    3  A    between atoms: C_11  and  S_12 
REMARK    4  A    between atoms: S_12  and  C_13 
REMARK    5  A    between atoms: C_15  and  N_16 
REMARK    6  A    between atoms: C_22  and  C_23 
REMARK    7  A    between atoms: C_24  and  C_25 
REMARK       I    between atoms: C_25  and  N_27 
ROOT
HETATM    1  C   UNK N   1      25.472  18.322   4.647  0.00  0.00     0.080 A 
HETATM    2  C   UNK N   1      26.716  18.706   5.297  0.00  0.00     0.074 A 
HETATM    3  C   UNK N   1      24.946  17.014   4.872  0.00  0.00     0.021 A 
HETATM    4  C   UNK N   1      25.638  16.112   5.654  0.00  0.00     0.021 A 
HETATM    5  C   UNK N   1      26.853  16.437   6.198  0.00  0.00     0.013 A 
HETATM    6  C   UNK N   1      27.415  17.699   6.062  0.00  0.00    -0.020 A 
ENDROOT
BRANCH   3   7
HETATM    7  S   UNK N   1      23.287  16.539   4.309  0.00  0.00    -0.090 SA
BRANCH   7   8
HETATM    8  C   UNK N   1      22.319  16.587   5.824  0.00  0.00     0.007 A 
HETATM    9  C   UNK N   1      22.230  15.420   6.589  0.00  0.00     0.047 A 
HETATM   10  C   UNK N   1      21.399  15.373   7.710  0.00  0.00     0.026 A 
HETATM   11  C   UNK N   1      20.648  16.494   8.071  0.00  0.00     0.029 A 
HETATM   12  C   UNK N   1      20.724  17.662   7.307  0.00  0.00     0.004 A 
HETATM   13  C   UNK N   1      21.544  17.702   6.174  0.00  0.00     0.019 A 
BRANCH  10  14
HETATM   14  N   UNK N   1      21.302  14.186   8.461  0.00  0.00    -0.399 N 
HETATM   15  H   UNK N   1      21.241  13.275   8.091  0.00  0.00     0.156 HD
HETATM   16  H   UNK N   1      21.292  14.274   9.441  0.00  0.00     0.156 HD
ENDBRANCH  10  14
ENDBRANCH   7   8
ENDBRANCH   3   7
BRANCH   1  17
HETATM   17  C   UNK N   1      24.645  19.240   3.733  0.00  0.00     0.419 C 
HETATM   18  F   UNK N   1      23.396  18.684   3.519  0.00  0.00    -0.166 F 
HETATM   19  F   UNK N   1      25.301  19.348   2.518  0.00  0.00    -0.166 F 
HETATM   20  F   UNK N   1      24.446  20.528   4.173  0.00  0.00    -0.166 F 
ENDBRANCH   1  17
BRANCH   2  21
HETATM   21  C   UNK N   1      27.203  20.156   5.199  0.00  0.00     0.419 C 
HETATM   22  F   UNK N   1      26.268  20.979   5.807  0.00  0.00    -0.166 F 
HETATM   23  F   UNK N   1      28.376  20.427   5.850  0.00  0.00    -0.166 F 
HETATM   24  F   UNK N   1      27.378  20.523   3.877  0.00  0.00    -0.166 F 
ENDBRANCH   2  21
BRANCH   6  25
HETATM   25  C   UNK N   1      28.717  17.758   6.764  0.00  0.00     0.018 C 
HETATM   26  C   UNK N   1      29.851  17.065   6.758  0.00  0.00     0.075 C 
BRANCH  26  27
HETATM   27  C   UNK N   1      30.970  17.426   7.676  0.00  0.00     0.243 C 
HETATM   28  O   UNK N   1      30.698  17.622   8.849  0.00  0.00    -0.268 OA
HETATM   29  N   UNK N   1      32.275  17.534   7.252  0.00  0.00    -0.345 N 
HETATM   30  C   UNK N   1      32.672  17.383   5.868  0.00  0.00     0.152 C 
HETATM   31  C   UNK N   1      33.341  17.764   8.206  0.00  0.00     0.152 C 
HETATM   32  C   UNK N   1      33.780  16.335   5.808  0.00  0.00     0.187 C 
HETATM   33  O   UNK N   1      34.852  16.751   6.624  0.00  0.00    -0.388 OA
HETATM   34  C   UNK N   1      34.408  16.688   7.963  0.00  0.00     0.187 C 
ENDBRANCH  26  27
ENDBRANCH   6  25
TORSDOF 7
ENDMDL
MODEL 8
REMARK VINA RESULT:      -7.4      3.569      4.983
REMARK  7 active torsions:
REMARK  status: ('A' for Active; 'I' for Inactive)
REMARK    1  A    between atoms: C_2  and  C_5 
REMARK    2  A    between atoms: C_6  and  C_7 
REMARK    3  A    between atoms: C_11  and  S_12 
REMARK    4  A    between atoms: S_12  and  C_13 
REMARK    5  A    between atoms: C_15  and  N_16 
REMARK    6  A    between atoms: C_22  and  C_23 
REMARK    7  A    between atoms: C_24  and  C_25 
REMARK       I    between atoms: C_25  and  N_27 
ROOT
HETATM    1  C   UNK N   1      26.717  18.628   4.101  0.00  0.00     0.080 A 
HETATM    2  C   UNK N   1      25.299  18.492   3.798  0.00  0.00     0.074 A 
HETATM    3  C   UNK N   1      27.497  17.452   4.313  0.00  0.00     0.021 A 
HETATM    4  C   UNK N   1      26.901  16.208   4.284  0.00  0.00     0.021 A 
HETATM    5  C   UNK N   1      25.551  16.077   4.086  0.00  0.00     0.013 A 
HETATM    6  C   UNK N   1      24.728  17.165   3.831  0.00  0.00    -0.020 A 
ENDROOT
BRANCH   3   7
HETATM    7  S   UNK N   1      29.306  17.514   4.446  0.00  0.00    -0.090 SA
BRANCH   7   8
HETATM    8  C   UNK N   1      29.580  17.432   6.222  0.00  0.00     0.007 A 
HETATM    9  C   UNK N   1      28.552  17.854   7.070  0.00  0.00     0.047 A 
HETATM   10  C   UNK N   1      28.756  17.919   8.450  0.00  0.00     0.026 A 
HETATM   11  C   UNK N   1      29.995  17.564   8.991  0.00  0.00     0.029 A 
HETATM   12  C   UNK N   1      31.031  17.150   8.149  0.00  0.00     0.004 A 
HETATM   13  C   UNK N   1      30.830  17.101   6.766  0.00  0.00     0.019 A 
BRANCH  10  14
HETATM   14  N   UNK N   1      27.720  18.366   9.292  0.00  0.00    -0.399 N 
HETATM   15  H   UNK N   1      27.272  19.242   9.238  0.00  0.00     0.156 HD
HETATM   16  H   UNK N   1      27.416  17.749   9.996  0.00  0.00     0.156 HD
ENDBRANCH  10  14
ENDBRANCH   7   8
ENDBRANCH   3   7
BRANCH   1  17
HETATM   17  C   UNK N   1      27.466  19.967   4.189  0.00  0.00     0.419 C 
HETATM   18  F   UNK N   1      26.952  20.723   5.228  0.00  0.00    -0.166 F 
HETATM   19  F   UNK N   1      27.275  20.650   3.000  0.00  0.00    -0.166 F 
HETATM   20  F   UNK N   1      28.828  19.898   4.373  0.00  0.00    -0.166 F 
ENDBRANCH   1  17
BRANCH   2  21
HETATM   21  C   UNK N   1      24.489  19.732   3.404  0.00  0.00     0.419 C 
HETATM   22  F   UNK N   1      24.921  20.166   2.161  0.00  0.00    -0.166 F 
HETATM   23  F   UNK N   1      23.144  19.530   3.250  0.00  0.00    -0.166 F 
HETATM   24  F   UNK N   1      24.644  20.735   4.344  0.00  0.00    -0.166 F 
ENDBRANCH   2  21
BRANCH   6  25
HETATM   25  C   UNK N   1      23.330  16.717   3.647  0.00  0.00     0.018 C 
HETATM   26  C   UNK N   1      22.484  15.905   4.274  0.00  0.00     0.075 C 
BRANCH  26  27
HETATM   27  C   UNK N   1      21.111  15.672   3.737  0.00  0.00     0.243 C 
HETATM   28  O   UNK N   1      20.231  16.445   4.081  0.00  0.00    -0.268 OA
HETATM   29  N   UNK N   1      20.813  14.640   2.878  0.00  0.00    -0.345 N 
HETATM   30  C   UNK N   1      21.782  13.642   2.474  0.00  0.00     0.152 C 
HETATM   31  C   UNK N   1      19.495  14.532   2.287  0.00  0.00     0.152 C 
HETATM   32  C   UNK N   1      21.798  13.592   0.949  0.00  0.00     0.187 C 
HETATM   33  O   UNK N   1      20.503  13.291   0.484  0.00  0.00    -0.388 OA
HETATM   34  C   UNK N   1      19.684  14.406   0.769  0.00  0.00     0.187 C 
ENDBRANCH  26  27
ENDBRANCH   6  25
TORSDOF 7
ENDMDL
MODEL 9
REMARK VINA RESULT:      -7.4     13.944     17.127
REMARK  7 active torsions:
REMARK  status: ('A' for Active; 'I' for Inactive)
REMARK    1  A    between atoms: C_2  and  C_5 
REMARK    2  A    between atoms: C_6  and  C_7 
REMARK    3  A    between atoms: C_11  and  S_12 
REMARK    4  A    between atoms: S_12  and  C_13 
REMARK    5  A    between atoms: C_15  and  N_16 
REMARK    6  A    between atoms: C_22  and  C_23 
REMARK    7  A    between atoms: C_24  and  C_25 
REMARK       I    between atoms: C_25  and  N_27 
ROOT
HETATM    1  C   UNK N   1      36.477  12.186  15.051  0.00  0.00     0.080 A 
HETATM    2  C   UNK N   1      35.963  12.049  16.406  0.00  0.00     0.074 A 
HETATM    3  C   UNK N   1      37.062  11.051  14.413  0.00  0.00     0.021 A 
HETATM    4  C   UNK N   1      37.185   9.857  15.093  0.00  0.00     0.021 A 
HETATM    5  C   UNK N   1      36.782   9.745  16.397  0.00  0.00     0.013 A 
HETATM    6  C   UNK N   1      36.165  10.786  17.078  0.00  0.00    -0.020 A 
ENDROOT
BRANCH   3   7
HETATM    7  S   UNK N   1      37.500  11.063  12.651  0.00  0.00    -0.090 SA
BRANCH   7   8
HETATM    8  C   UNK N   1      35.969  10.558  11.853  0.00  0.00     0.007 A 
HETATM    9  C   UNK N   1      35.327  11.475  11.015  0.00  0.00     0.047 A 
HETATM   10  C   UNK N   1      34.079  11.174  10.465  0.00  0.00     0.026 A 
HETATM   11  C   UNK N   1      33.463   9.954  10.754  0.00  0.00     0.029 A 
HETATM   12  C   UNK N   1      34.093   9.036  11.599  0.00  0.00     0.004 A 
HETATM   13  C   UNK N   1      35.336   9.346  12.163  0.00  0.00     0.019 A 
BRANCH  10  14
HETATM   14  N   UNK N   1      33.432  12.113   9.638  0.00  0.00    -0.399 N 
HETATM   15  H   UNK N   1      33.844  12.922   9.256  0.00  0.00     0.156 HD
HETATM   16  H   UNK N   1      32.486  11.946   9.424  0.00  0.00     0.156 HD
ENDBRANCH  10  14
ENDBRANCH   7   8
ENDBRANCH   3   7
BRANCH   1  17
HETATM   17  C   UNK N   1      36.421  13.479  14.222  0.00  0.00     0.419 C 
HETATM   18  F   UNK N   1      36.893  14.538  14.976  0.00  0.00    -0.166 F 
HETATM   19  F   UNK N   1      35.099  13.721  13.887  0.00  0.00    -0.166 F 
HETATM   20  F   UNK N   1      37.119  13.481  13.037  0.00  0.00    -0.166 F 
ENDBRANCH   1  17
BRANCH   2  21
HETATM   21  C   UNK N   1      35.184  13.207  17.039  0.00  0.00     0.419 C 
HETATM   22  F   UNK N   1      34.047  13.442  16.282  0.00  0.00    -0.166 F 
HETATM   23  F   UNK N   1      34.714  12.977  18.303  0.00  0.00    -0.166 F 
HETATM   24  F   UNK N   1      35.967  14.346  17.097  0.00  0.00    -0.166 F 
ENDBRANCH   2  21
BRANCH   6  25
HETATM   25  C   UNK N   1      35.833  10.368  18.458  0.00  0.00     0.018 C 
HETATM   26  C   UNK N   1      34.828   9.744  19.065  0.00  0.00     0.075 C 
BRANCH  26  27
HETATM   27  C   UNK N   1      34.842   9.534  20.542  0.00  0.00     0.243 C 
HETATM   28  O   UNK N   1      35.682  10.135  21.191  0.00  0.00    -0.268 OA
HETATM   29  N   UNK N   1      33.949   8.706  21.184  0.00  0.00    -0.345 N 
HETATM   30  C   UNK N   1      32.966   7.907  20.483  0.00  0.00     0.152 C 
HETATM   31  C   UNK N   1      33.924   8.634  22.631  0.00  0.00     0.152 C 
HETATM   32  C   UNK N   1      31.597   8.211  21.085  0.00  0.00     0.187 C 
HETATM   33  O   UNK N   1      31.627   7.923  22.464  0.00  0.00    -0.388 OA
HETATM   34  C   UNK N   1      32.474   8.874  23.073  0.00  0.00     0.187 C 
ENDBRANCH  26  27
ENDBRANCH   6  25
TORSDOF 7
ENDMDL
