MODEL 1
REMARK VINA RESULT:      -6.3      0.000      0.000
REMARK  2 active torsions:
REMARK  status: ('A' for Active; 'I' for Inactive)
REMARK    1  A    between atoms: C_4  and  C_5 
REMARK    2  A    between atoms: C_5  and  P_6 
ROOT
HETATM    1  C   UNK N   1      33.937  11.068  14.637  0.00  0.00     0.038 A 
HETATM    2  C   UNK N   1      34.825  12.110  14.354  0.00  0.00     0.075 A 
HETATM    3  O   UNK N   1      34.615  12.915  13.277  0.00  0.00    -0.345 OA
HETATM    4  C   UNK N   1      35.619  13.730  12.779  0.00  0.00     0.138 C 
HETATM    5  C   UNK N   1      36.294  14.465  13.937  0.00  0.00     0.037 C 
HETATM    6  C   UNK N   1      36.879  13.465  14.934  0.00  0.00     0.044 C 
HETATM    7  C   UNK N   1      35.937  12.330  15.196  0.00  0.00    -0.024 A 
HETATM    8  C   UNK N   1      36.156  11.495  16.294  0.00  0.00     0.016 A 
HETATM    9  C   UNK N   1      35.272  10.451  16.567  0.00  0.00    -0.061 A 
HETATM   10  C   UNK N   1      34.161  10.238  15.743  0.00  0.00     0.009 A 
HETATM   11  C   UNK N   1      35.511   9.571  17.741  0.00  0.00     0.048 C 
ENDROOT
BRANCH   4  12
HETATM   12  C   UNK N   1      35.047  14.730  11.773  0.00  0.00     0.133 C 
BRANCH  12  13
HETATM   13  P   UNK N   1      36.206  14.970  10.317  0.00  0.00     0.099 P 
HETATM   14  O   UNK N   1      35.260  15.406   8.930  0.00  0.00    -0.669 OA
HETATM   15  O   UNK N   1      36.597  16.432  10.663  0.00  0.00    -0.669 OA
HETATM   16  H   UNK N   1      34.807  15.221  10.619  0.00  0.00     0.130 HD
ENDBRANCH  12  13
ENDBRANCH   4  12
TORSDOF 2
ENDMDL
MODEL 2
REMARK VINA RESULT:      -6.2     26.141     26.827
REMARK  2 active torsions:
REMARK  status: ('A' for Active; 'I' for Inactive)
REMARK    1  A    between atoms: C_4  and  C_5 
REMARK    2  A    between atoms: C_5  and  P_6 
ROOT
HETATM    1  C   UNK N   1      25.145  27.256  -5.177  0.00  0.00     0.038 A 
HETATM    2  C   UNK N   1      25.863  26.924  -6.330  0.00  0.00     0.075 A 
HETATM    3  O   UNK N   1      25.453  25.894  -7.118  0.00  0.00    -0.345 OA
HETATM    4  C   UNK N   1      26.295  25.332  -8.065  0.00  0.00     0.138 C 
HETATM    5  C   UNK N   1      26.975  26.445  -8.862  0.00  0.00     0.037 C 
HETATM    6  C   UNK N   1      27.773  27.357  -7.930  0.00  0.00     0.044 C 
HETATM    7  C   UNK N   1      27.011  27.670  -6.678  0.00  0.00    -0.024 A 
HETATM    8  C   UNK N   1      27.436  28.720  -5.861  0.00  0.00     0.016 A 
HETATM    9  C   UNK N   1      26.722  29.040  -4.706  0.00  0.00    -0.061 A 
HETATM   10  C   UNK N   1      25.575  28.313  -4.365  0.00  0.00     0.009 A 
HETATM   11  C   UNK N   1      27.178  30.163  -3.845  0.00  0.00     0.048 C 
ENDROOT
BRANCH   4  12
HETATM   12  C   UNK N   1      25.509  24.410  -8.999  0.00  0.00     0.133 C 
BRANCH  12  13
HETATM   13  P   UNK N   1      25.587  22.626  -8.419  0.00  0.00     0.099 P 
HETATM   14  O   UNK N   1      23.992  22.135  -7.946  0.00  0.00    -0.669 OA
HETATM   15  O   UNK N   1      25.495  21.994  -9.834  0.00  0.00    -0.669 OA
HETATM   16  H   UNK N   1      24.556  23.601  -8.735  0.00  0.00     0.130 HD
ENDBRANCH  12  13
ENDBRANCH   4  12
TORSDOF 2
ENDMDL
MODEL 3
REMARK VINA RESULT:      -6.2      2.042      2.657
REMARK  2 active torsions:
REMARK  status: ('A' for Active; 'I' for Inactive)
REMARK    1  A    between atoms: C_4  and  C_5 
REMARK    2  A    between atoms: C_5  and  P_6 
ROOT
HETATM    1  C   UNK N   1      35.250  13.721  17.707  0.00  0.00     0.038 A 
HETATM    2  C   UNK N   1      35.674  13.049  16.557  0.00  0.00     0.075 A 
HETATM    3  O   UNK N   1      35.826  13.725  15.386  0.00  0.00    -0.345 OA
HETATM    4  C   UNK N   1      35.923  13.057  14.175  0.00  0.00     0.138 C 
HETATM    5  C   UNK N   1      36.909  11.896  14.315  0.00  0.00     0.037 C 
HETATM    6  C   UNK N   1      36.446  10.933  15.407  0.00  0.00     0.044 C 
HETATM    7  C   UNK N   1      35.952  11.665  16.618  0.00  0.00    -0.024 A 
HETATM    8  C   UNK N   1      35.785  10.972  17.819  0.00  0.00     0.016 A 
HETATM    9  C   UNK N   1      35.352  11.646  18.961  0.00  0.00    -0.061 A 
HETATM   10  C   UNK N   1      35.088  13.019  18.909  0.00  0.00     0.009 A 
HETATM   11  C   UNK N   1      35.181  10.900  20.236  0.00  0.00     0.048 C 
ENDROOT
BRANCH   4  12
HETATM   12  C   UNK N   1      36.376  14.013  13.072  0.00  0.00     0.133 C 
BRANCH  12  13
HETATM   13  P   UNK N   1      35.395  13.748  11.494  0.00  0.00     0.099 P 
HETATM   14  O   UNK N   1      34.038  14.828  11.504  0.00  0.00    -0.669 OA
HETATM   15  O   UNK N   1      36.275  14.664  10.602  0.00  0.00    -0.669 OA
HETATM   16  H   UNK N   1      35.418  14.705  12.586  0.00  0.00     0.130 HD
ENDBRANCH  12  13
ENDBRANCH   4  12
TORSDOF 2
ENDMDL
MODEL 4
REMARK VINA RESULT:      -6.1     14.354     15.473
REMARK  2 active torsions:
REMARK  status: ('A' for Active; 'I' for Inactive)
REMARK    1  A    between atoms: C_4  and  C_5 
REMARK    2  A    between atoms: C_5  and  P_6 
ROOT
HETATM    1  C   UNK N   1      20.411  12.864  10.498  0.00  0.00     0.038 A 
HETATM    2  C   UNK N   1      21.078  13.301   9.349  0.00  0.00     0.075 A 
HETATM    3  O   UNK N   1      20.375  13.805   8.299  0.00  0.00    -0.345 OA
HETATM    4  C   UNK N   1      20.949  13.940   7.045  0.00  0.00     0.138 C 
HETATM    5  C   UNK N   1      22.330  14.581   7.187  0.00  0.00     0.037 C 
HETATM    6  C   UNK N   1      23.225  13.725   8.082  0.00  0.00     0.044 C 
HETATM    7  C   UNK N   1      22.487  13.226   9.287  0.00  0.00    -0.024 A 
HETATM    8  C   UNK N   1      23.206  12.698  10.362  0.00  0.00     0.016 A 
HETATM    9  C   UNK N   1      22.535  12.255  11.502  0.00  0.00    -0.061 A 
HETATM   10  C   UNK N   1      21.140  12.340  11.573  0.00  0.00     0.009 A 
HETATM   11  C   UNK N   1      23.309  11.699  12.644  0.00  0.00     0.048 C 
ENDROOT
BRANCH   4  12
HETATM   12  C   UNK N   1      20.057  14.787   6.137  0.00  0.00     0.133 C 
BRANCH  12  13
HETATM   13  P   UNK N   1      19.558  13.840   4.595  0.00  0.00     0.099 P 
HETATM   14  O   UNK N   1      17.861  13.492   4.692  0.00  0.00    -0.669 OA
HETATM   15  O   UNK N   1      19.375  15.089   3.692  0.00  0.00    -0.669 OA
HETATM   16  H   UNK N   1      18.890  14.489   5.711  0.00  0.00     0.130 HD
ENDBRANCH  12  13
ENDBRANCH   4  12
TORSDOF 2
ENDMDL
MODEL 5
REMARK VINA RESULT:      -5.8      1.774      2.895
REMARK  2 active torsions:
REMARK  status: ('A' for Active; 'I' for Inactive)
REMARK    1  A    between atoms: C_4  and  C_5 
REMARK    2  A    between atoms: C_5  and  P_6 
ROOT
HETATM    1  C   UNK N   1      36.887  14.576  15.691  0.00  0.00     0.038 A 
HETATM    2  C   UNK N   1      36.227  13.779  14.751  0.00  0.00     0.075 A 
HETATM    3  O   UNK N   1      36.579  13.835  13.438  0.00  0.00    -0.345 OA
HETATM    4  C   UNK N   1      35.755  13.323  12.448  0.00  0.00     0.138 C 
HETATM    5  C   UNK N   1      35.265  11.936  12.865  0.00  0.00     0.037 C 
HETATM    6  C   UNK N   1      34.505  12.015  14.189  0.00  0.00     0.044 C 
HETATM    7  C   UNK N   1      35.199  12.908  15.173  0.00  0.00    -0.024 A 
HETATM    8  C   UNK N   1      34.832  12.860  16.520  0.00  0.00     0.016 A 
HETATM    9  C   UNK N   1      35.488  13.665  17.452  0.00  0.00    -0.061 A 
HETATM   10  C   UNK N   1      36.517  14.520  17.041  0.00  0.00     0.009 A 
HETATM   11  C   UNK N   1      35.094  13.604  18.884  0.00  0.00     0.048 C 
ENDROOT
BRANCH   4  12
HETATM   12  C   UNK N   1      36.502  13.248  11.116  0.00  0.00     0.133 C 
BRANCH  12  13
HETATM   13  P   UNK N   1      36.027  14.670   9.987  0.00  0.00     0.099 P 
HETATM   14  O   UNK N   1      36.720  16.128  10.622  0.00  0.00    -0.669 OA
HETATM   15  O   UNK N   1      37.160  14.437   8.952  0.00  0.00    -0.669 OA
HETATM   16  H   UNK N   1      36.934  14.450  11.102  0.00  0.00     0.130 HD
ENDBRANCH  12  13
ENDBRANCH   4  12
TORSDOF 2
ENDMDL
MODEL 6
REMARK VINA RESULT:      -5.7     26.023     26.863
REMARK  2 active torsions:
REMARK  status: ('A' for Active; 'I' for Inactive)
REMARK    1  A    between atoms: C_4  and  C_5 
REMARK    2  A    between atoms: C_5  and  P_6 
ROOT
HETATM    1  C   UNK N   1      27.909  28.992  -6.303  0.00  0.00     0.038 A 
HETATM    2  C   UNK N   1      27.032  27.903  -6.269  0.00  0.00     0.075 A 
HETATM    3  O   UNK N   1      27.148  26.903  -7.183  0.00  0.00    -0.345 OA
HETATM    4  C   UNK N   1      26.124  25.991  -7.388  0.00  0.00     0.138 C 
HETATM    5  C   UNK N   1      25.611  25.494  -6.037  0.00  0.00     0.037 C 
HETATM    6  C   UNK N   1      25.107  26.665  -5.195  0.00  0.00     0.044 C 
HETATM    7  C   UNK N   1      26.031  27.842  -5.274  0.00  0.00    -0.024 A 
HETATM    8  C   UNK N   1      25.908  28.876  -4.344  0.00  0.00     0.016 A 
HETATM    9  C   UNK N   1      26.779  29.966  -4.389  0.00  0.00    -0.061 A 
HETATM   10  C   UNK N   1      27.781  30.023  -5.363  0.00  0.00     0.009 A 
HETATM   11  C   UNK N   1      26.643  31.059  -3.391  0.00  0.00     0.048 C 
ENDROOT
BRANCH   4  12
HETATM   12  C   UNK N   1      26.614  24.818  -8.238  0.00  0.00     0.133 C 
BRANCH  12  13
HETATM   13  P   UNK N   1      25.393  24.409  -9.604  0.00  0.00     0.099 P 
HETATM   14  O   UNK N   1      26.128  23.252 -10.666  0.00  0.00    -0.669 OA
HETATM   15  O   UNK N   1      24.600  23.347  -8.796  0.00  0.00    -0.669 OA
HETATM   16  H   UNK N   1      26.665  23.897  -9.121  0.00  0.00     0.130 HD
ENDBRANCH  12  13
ENDBRANCH   4  12
TORSDOF 2
ENDMDL
MODEL 7
REMARK VINA RESULT:      -5.7      5.777      9.317
REMARK  2 active torsions:
REMARK  status: ('A' for Active; 'I' for Inactive)
REMARK    1  A    between atoms: C_4  and  C_5 
REMARK    2  A    between atoms: C_5  and  P_6 
ROOT
HETATM    1  C   UNK N   1      34.450  15.136   5.435  0.00  0.00     0.038 A 
HETATM    2  C   UNK N   1      34.352  15.963   6.558  0.00  0.00     0.075 A 
HETATM    3  O   UNK N   1      34.970  15.616   7.719  0.00  0.00    -0.345 OA
HETATM    4  C   UNK N   1      34.637  16.221   8.922  0.00  0.00     0.138 C 
HETATM    5  C   UNK N   1      34.569  17.735   8.724  0.00  0.00     0.037 C 
HETATM    6  C   UNK N   1      33.532  18.087   7.658  0.00  0.00     0.044 C 
HETATM    7  C   UNK N   1      33.617  17.166   6.478  0.00  0.00    -0.024 A 
HETATM    8  C   UNK N   1      32.975  17.515   5.288  0.00  0.00     0.016 A 
HETATM    9  C   UNK N   1      33.068  16.681   4.173  0.00  0.00    -0.061 A 
HETATM   10  C   UNK N   1      33.807  15.495   4.243  0.00  0.00     0.009 A 
HETATM   11  C   UNK N   1      32.386  17.063   2.909  0.00  0.00     0.048 C 
ENDROOT
BRANCH   4  12
HETATM   12  C   UNK N   1      35.663  15.868  10.000  0.00  0.00     0.133 C 
BRANCH  12  13
HETATM   13  P   UNK N   1      34.905  14.789  11.335  0.00  0.00     0.099 P 
HETATM   14  O   UNK N   1      35.487  13.169  11.127  0.00  0.00    -0.669 OA
HETATM   15  O   UNK N   1      35.937  15.150  12.437  0.00  0.00    -0.669 OA
HETATM   16  H   UNK N   1      35.947  14.667  10.330  0.00  0.00     0.130 HD
ENDBRANCH  12  13
ENDBRANCH   4  12
TORSDOF 2
ENDMDL
MODEL 8
REMARK VINA RESULT:      -5.7     20.873     23.328
REMARK  2 active torsions:
REMARK  status: ('A' for Active; 'I' for Inactive)
REMARK    1  A    between atoms: C_4  and  C_5 
REMARK    2  A    between atoms: C_5  and  P_6 
ROOT
HETATM    1  C   UNK N   1      27.258  24.935  -3.598  0.00  0.00     0.038 A 
HETATM    2  C   UNK N   1      27.827  24.142  -4.599  0.00  0.00     0.075 A 
HETATM    3  O   UNK N   1      28.780  23.223  -4.285  0.00  0.00    -0.345 OA
HETATM    4  C   UNK N   1      29.588  22.660  -5.260  0.00  0.00     0.138 C 
HETATM    5  C   UNK N   1      28.724  22.227  -6.445  0.00  0.00     0.037 C 
HETATM    6  C   UNK N   1      27.969  23.425  -7.020  0.00  0.00     0.044 C 
HETATM    7  C   UNK N   1      27.401  24.292  -5.937  0.00  0.00    -0.024 A 
HETATM    8  C   UNK N   1      26.430  25.244  -6.258  0.00  0.00     0.016 A 
HETATM    9  C   UNK N   1      25.873  26.040  -5.257  0.00  0.00    -0.061 A 
HETATM   10  C   UNK N   1      26.282  25.885  -3.928  0.00  0.00     0.009 A 
HETATM   11  C   UNK N   1      24.837  27.047  -5.608  0.00  0.00     0.048 C 
ENDROOT
BRANCH   4  12
HETATM   12  C   UNK N   1      30.356  21.466  -4.694  0.00  0.00     0.133 C 
BRANCH  12  13
HETATM   13  P   UNK N   1      31.992  22.000  -3.945  0.00  0.00     0.099 P 
HETATM   14  O   UNK N   1      31.804  22.086  -2.223  0.00  0.00    -0.669 OA
HETATM   15  O   UNK N   1      32.630  20.585  -3.929  0.00  0.00    -0.669 OA
HETATM   16  H   UNK N   1      30.719  21.485  -3.470  0.00  0.00     0.130 HD
ENDBRANCH  12  13
ENDBRANCH   4  12
TORSDOF 2
ENDMDL
MODEL 9
REMARK VINA RESULT:      -5.7     12.971     14.203
REMARK  2 active torsions:
REMARK  status: ('A' for Active; 'I' for Inactive)
REMARK    1  A    between atoms: C_4  and  C_5 
REMARK    2  A    between atoms: C_5  and  P_6 
ROOT
HETATM    1  C   UNK N   1      24.366  12.840   9.460  0.00  0.00     0.038 A 
HETATM    2  C   UNK N   1      23.207  13.417   8.931  0.00  0.00     0.075 A 
HETATM    3  O   UNK N   1      23.230  13.992   7.699  0.00  0.00    -0.345 OA
HETATM    4  C   UNK N   1      22.220  14.845   7.282  0.00  0.00     0.138 C 
HETATM    5  C   UNK N   1      20.863  14.221   7.612  0.00  0.00     0.037 C 
HETATM    6  C   UNK N   1      20.746  13.967   9.114  0.00  0.00     0.044 C 
HETATM    7  C   UNK N   1      22.009  13.390   9.678  0.00  0.00    -0.024 A 
HETATM    8  C   UNK N   1      21.991  12.808  10.948  0.00  0.00     0.016 A 
HETATM    9  C   UNK N   1      23.153  12.243  11.475  0.00  0.00    -0.061 A 
HETATM   10  C   UNK N   1      24.339  12.254  10.732  0.00  0.00     0.009 A 
HETATM   11  C   UNK N   1      23.122  11.621  12.825  0.00  0.00     0.048 C 
ENDROOT
BRANCH   4  12
HETATM   12  C   UNK N   1      22.333  15.115   5.781  0.00  0.00     0.133 C 
BRANCH  12  13
HETATM   13  P   UNK N   1      22.646  16.933   5.437  0.00  0.00     0.099 P 
HETATM   14  O   UNK N   1      23.234  17.090   3.813  0.00  0.00    -0.669 OA
HETATM   15  O   UNK N   1      21.179  17.282   5.070  0.00  0.00    -0.669 OA
HETATM   16  H   UNK N   1      22.594  15.697   4.675  0.00  0.00     0.130 HD
ENDBRANCH  12  13
ENDBRANCH   4  12
TORSDOF 2
ENDMDL
