REMARK  2 active torsions:
REMARK  status: ('A' for Active; 'I' for Inactive)
REMARK    1  A    between atoms: C_4  and  C_5 
REMARK    2  A    between atoms: C_5  and  P_6 
ROOT
HETATM    1  C   UNK N   1      -4.276   1.036   0.427  0.00  0.00     0.038 A 
HETATM    2  C   UNK N   1      -3.037   0.426   0.207  0.00  0.00     0.075 A 
HETATM    3  O   UNK N   1      -1.890   1.149   0.315  0.00  0.00    -0.345 OA
HETATM    4  C   UNK N   1      -0.692   0.682  -0.203  0.00  0.00     0.138 C 
HETATM    5  C   UNK N   1      -0.503  -0.781   0.199  0.00  0.00     0.037 C 
HETATM    6  C   UNK N   1      -1.663  -1.630  -0.320  0.00  0.00     0.044 C 
HETATM    7  C   UNK N   1      -2.982  -0.947  -0.119  0.00  0.00    -0.024 A 
HETATM    8  C   UNK N   1      -4.162  -1.684  -0.240  0.00  0.00     0.016 A 
HETATM    9  C   UNK N   1      -5.396  -1.068  -0.029  0.00  0.00    -0.061 A 
HETATM   10  C   UNK N   1      -5.455   0.289   0.308  0.00  0.00     0.009 A 
HETATM   11  C   UNK N   1      -6.647  -1.862  -0.155  0.00  0.00     0.048 C 
ENDROOT
BRANCH   4  12
HETATM   12  C   UNK N   1       0.476   1.530   0.302  0.00  0.00     0.133 C 
BRANCH  12  13
HETATM   13  P   UNK N   1       2.085   1.039  -0.530  0.00  0.00     0.099 P 
HETATM   14  O   UNK N   1       3.372   1.959   0.181  0.00  0.00    -0.669 OA
HETATM   15  O   UNK N   1       2.338  -0.220   0.342  0.00  0.00    -0.669 OA
HETATM   16  H   UNK N   1       1.677   1.818   0.627  0.00  0.00     0.130 HD
ENDBRANCH  12  13
ENDBRANCH   4  12
TORSDOF 2
