MODEL 1
REMARK VINA RESULT:      -7.0      0.000      0.000
REMARK  7 active torsions:
REMARK  status: ('A' for Active; 'I' for Inactive)
REMARK    1  A    between atoms: O_2  and  C_3 
REMARK    2  A    between atoms: C_8  and  C_9 
REMARK    3  A    between atoms: C_9  and  C_11 
REMARK    4  A    between atoms: C_13  and  N_14 
REMARK    5  A    between atoms: C_16  and  N_17 
REMARK    6  A    between atoms: N_17  and  C_19 
REMARK    7  A    between atoms: C_22  and  O_23 
ROOT
HETATM    1  C   UNK N   1      29.326  17.534   7.315  0.00  0.00     0.102 A 
HETATM    2  S   UNK N   1      29.244  17.274   5.702  0.00  0.00    -0.046 SA
HETATM    3  C   UNK N   1      28.110  18.221   7.634  0.00  0.00     0.122 A 
HETATM    4  N   UNK N   1      27.261  18.452   6.565  0.00  0.00    -0.322 N 
HETATM    5  C   UNK N   1      27.764  17.957   5.412  0.00  0.00     0.151 A 
HETATM    6  H   UNK N   1      26.396  18.919   6.635  0.00  0.00     0.169 HD
ENDROOT
BRANCH   1   7
HETATM    7  C   UNK N   1      30.527  17.082   8.079  0.00  0.00     0.203 C 
HETATM    8  O   UNK N   1      30.427  17.038   9.300  0.00  0.00    -0.286 OA
BRANCH   7   9
HETATM    9  C   UNK N   1      31.826  16.684   7.492  0.00  0.00     0.016 A 
HETATM   10  C   UNK N   1      32.785  17.674   7.225  0.00  0.00     0.018 A 
HETATM   11  C   UNK N   1      34.032  17.333   6.698  0.00  0.00     0.037 A 
HETATM   12  C   UNK N   1      34.333  15.998   6.421  0.00  0.00     0.068 A 
HETATM   13  C   UNK N   1      33.362  15.011   6.652  0.00  0.00     0.037 A 
HETATM   14  C   UNK N   1      32.121  15.358   7.180  0.00  0.00     0.018 A 
BRANCH  12  15
HETATM   15  O   UNK N   1      35.561  15.684   5.949  0.00  0.00    -0.356 OA
HETATM   16  C   UNK N   1      36.009  14.387   5.834  0.00  0.00     0.210 C 
ENDBRANCH  12  15
ENDBRANCH   7   9
ENDBRANCH   1   7
BRANCH   3  17
HETATM   17  N   UNK N   1      27.775  18.683   8.918  0.00  0.00    -0.384 N 
HETATM   18  H   UNK N   1      26.870  19.028   9.097  0.00  0.00     0.157 HD
HETATM   19  H   UNK N   1      28.444  18.662   9.639  0.00  0.00     0.157 HD
ENDBRANCH   3  17
BRANCH   5  20
HETATM   20  N   UNK N   1      27.182  18.015   4.261  0.00  0.00    -0.337 N 
ATOM     21  HN  UNK N   1      27.499  17.430   3.488  1.00  0.00     0.168 HD
BRANCH  20  22
HETATM   22  C   UNK N   1      26.093  18.909   4.095  0.00  0.00     0.034 A 
HETATM   23  C   UNK N   1      24.792  18.434   4.330  0.00  0.00     0.032 A 
HETATM   24  C   UNK N   1      23.692  19.114   3.828  0.00  0.00     0.039 A 
HETATM   25  C   UNK N   1      23.872  20.281   3.070  0.00  0.00     0.068 A 
HETATM   26  C   UNK N   1      25.164  20.793   2.890  0.00  0.00     0.039 A 
HETATM   27  C   UNK N   1      26.276  20.099   3.384  0.00  0.00     0.032 A 
BRANCH  25  28
HETATM   28  O   UNK N   1      22.825  20.895   2.474  0.00  0.00    -0.356 OA
HETATM   29  C   UNK N   1      21.517  20.517   2.690  0.00  0.00     0.210 C 
ENDBRANCH  25  28
ENDBRANCH  20  22
ENDBRANCH   5  20
TORSDOF 7
ENDMDL
MODEL 2
REMARK VINA RESULT:      -7.0      7.748     12.522
REMARK  7 active torsions:
REMARK  status: ('A' for Active; 'I' for Inactive)
REMARK    1  A    between atoms: O_2  and  C_3 
REMARK    2  A    between atoms: C_8  and  C_9 
REMARK    3  A    between atoms: C_9  and  C_11 
REMARK    4  A    between atoms: C_13  and  N_14 
REMARK    5  A    between atoms: C_16  and  N_17 
REMARK    6  A    between atoms: N_17  and  C_19 
REMARK    7  A    between atoms: C_22  and  O_23 
ROOT
HETATM    1  C   UNK N   1      35.934  15.347  10.766  0.00  0.00     0.102 A 
HETATM    2  S   UNK N   1      35.730  15.078  12.367  0.00  0.00    -0.046 SA
HETATM    3  C   UNK N   1      36.878  14.354  10.348  0.00  0.00     0.122 A 
HETATM    4  N   UNK N   1      37.320  13.499  11.344  0.00  0.00    -0.322 N 
HETATM    5  C   UNK N   1      36.744  13.779  12.534  0.00  0.00     0.151 A 
HETATM    6  H   UNK N   1      37.974  12.775  11.203  0.00  0.00     0.169 HD
ENDROOT
BRANCH   1   7
HETATM    7  C   UNK N   1      35.201  16.468  10.103  0.00  0.00     0.203 C 
HETATM    8  O   UNK N   1      35.639  17.599  10.278  0.00  0.00    -0.286 OA
BRANCH   7   9
HETATM    9  C   UNK N   1      33.996  16.332   9.256  0.00  0.00     0.016 A 
HETATM   10  C   UNK N   1      33.478  17.473   8.621  0.00  0.00     0.018 A 
HETATM   11  C   UNK N   1      32.359  17.378   7.791  0.00  0.00     0.037 A 
HETATM   12  C   UNK N   1      31.738  16.144   7.591  0.00  0.00     0.068 A 
HETATM   13  C   UNK N   1      32.232  15.009   8.254  0.00  0.00     0.037 A 
HETATM   14  C   UNK N   1      33.349  15.110   9.079  0.00  0.00     0.018 A 
BRANCH  12  15
HETATM   15  O   UNK N   1      30.681  16.067   6.752  0.00  0.00    -0.356 OA
HETATM   16  C   UNK N   1      30.101  17.176   6.176  0.00  0.00     0.210 C 
ENDBRANCH  12  15
ENDBRANCH   7   9
ENDBRANCH   1   7
BRANCH   3  17
HETATM   17  N   UNK N   1      37.380  14.240   9.041  0.00  0.00    -0.384 N 
HETATM   18  H   UNK N   1      37.915  13.453   8.786  0.00  0.00     0.157 HD
HETATM   19  H   UNK N   1      37.199  14.945   8.379  0.00  0.00     0.157 HD
ENDBRANCH   3  17
BRANCH   5  20
HETATM   20  N   UNK N   1      36.957  13.136  13.633  0.00  0.00    -0.337 N 
ATOM     21  HN  UNK N   1      37.572  12.322  13.648  1.00  0.00     0.168 HD
BRANCH  20  22
HETATM   22  C   UNK N   1      36.320  13.585  14.818  0.00  0.00     0.034 A 
HETATM   23  C   UNK N   1      37.002  14.492  15.645  0.00  0.00     0.032 A 
HETATM   24  C   UNK N   1      36.618  14.667  16.967  0.00  0.00     0.039 A 
HETATM   25  C   UNK N   1      35.547  13.928  17.491  0.00  0.00     0.068 A 
HETATM   26  C   UNK N   1      34.823  13.071  16.650  0.00  0.00     0.039 A 
HETATM   27  C   UNK N   1      35.219  12.884  15.321  0.00  0.00     0.032 A 
BRANCH  25  28
HETATM   28  O   UNK N   1      35.229  13.995  18.804  0.00  0.00    -0.356 OA
HETATM   29  C   UNK N   1      35.118  12.877  19.602  0.00  0.00     0.210 C 
ENDBRANCH  25  28
ENDBRANCH  20  22
ENDBRANCH   5  20
TORSDOF 7
ENDMDL
MODEL 3
REMARK VINA RESULT:      -6.9      7.017     12.007
REMARK  7 active torsions:
REMARK  status: ('A' for Active; 'I' for Inactive)
REMARK    1  A    between atoms: O_2  and  C_3 
REMARK    2  A    between atoms: C_8  and  C_9 
REMARK    3  A    between atoms: C_9  and  C_11 
REMARK    4  A    between atoms: C_13  and  N_14 
REMARK    5  A    between atoms: C_16  and  N_17 
REMARK    6  A    between atoms: N_17  and  C_19 
REMARK    7  A    between atoms: C_22  and  O_23 
ROOT
HETATM    1  C   UNK N   1      35.011  15.866  10.079  0.00  0.00     0.102 A 
HETATM    2  S   UNK N   1      36.497  15.516  10.668  0.00  0.00    -0.046 SA
HETATM    3  C   UNK N   1      34.128  14.972  10.765  0.00  0.00     0.122 A 
HETATM    4  N   UNK N   1      34.734  14.123  11.677  0.00  0.00    -0.322 N 
HETATM    5  C   UNK N   1      36.068  14.330  11.741  0.00  0.00     0.151 A 
HETATM    6  H   UNK N   1      34.252  13.453  12.214  0.00  0.00     0.169 HD
ENDROOT
BRANCH   1   7
HETATM    7  C   UNK N   1      34.859  16.920   9.030  0.00  0.00     0.203 C 
HETATM    8  O   UNK N   1      35.090  18.076   9.365  0.00  0.00    -0.286 OA
BRANCH   7   9
HETATM    9  C   UNK N   1      34.456  16.689   7.625  0.00  0.00     0.016 A 
HETATM   10  C   UNK N   1      33.668  17.654   6.976  0.00  0.00     0.018 A 
HETATM   11  C   UNK N   1      33.293  17.485   5.642  0.00  0.00     0.037 A 
HETATM   12  C   UNK N   1      33.691  16.345   4.942  0.00  0.00     0.068 A 
HETATM   13  C   UNK N   1      34.447  15.362   5.600  0.00  0.00     0.037 A 
HETATM   14  C   UNK N   1      34.820  15.538   6.930  0.00  0.00     0.018 A 
BRANCH  12  15
HETATM   15  O   UNK N   1      33.351  16.219   3.639  0.00  0.00    -0.356 OA
HETATM   16  C   UNK N   1      32.353  16.966   3.052  0.00  0.00     0.210 C 
ENDBRANCH  12  15
ENDBRANCH   7   9
ENDBRANCH   1   7
BRANCH   3  17
HETATM   17  N   UNK N   1      32.744  14.895  10.536  0.00  0.00    -0.384 N 
HETATM   18  H   UNK N   1      32.210  14.197  10.980  0.00  0.00     0.157 HD
HETATM   19  H   UNK N   1      32.308  15.538   9.933  0.00  0.00     0.157 HD
ENDBRANCH   3  17
BRANCH   5  20
HETATM   20  N   UNK N   1      36.883  13.694  12.514  0.00  0.00    -0.337 N 
ATOM     21  HN  UNK N   1      37.885  13.689  12.322  1.00  0.00     0.168 HD
BRANCH  20  22
HETATM   22  C   UNK N   1      36.357  13.003  13.635  0.00  0.00     0.034 A 
HETATM   23  C   UNK N   1      36.115  13.724  14.816  0.00  0.00     0.032 A 
HETATM   24  C   UNK N   1      35.974  13.064  16.029  0.00  0.00     0.039 A 
HETATM   25  C   UNK N   1      36.082  11.667  16.086  0.00  0.00     0.068 A 
HETATM   26  C   UNK N   1      36.257  10.940  14.900  0.00  0.00     0.039 A 
HETATM   27  C   UNK N   1      36.414  11.606  13.678  0.00  0.00     0.032 A 
BRANCH  25  28
HETATM   28  O   UNK N   1      36.065  11.013  17.270  0.00  0.00    -0.356 OA
HETATM   29  C   UNK N   1      35.332  11.450  18.352  0.00  0.00     0.210 C 
ENDBRANCH  25  28
ENDBRANCH  20  22
ENDBRANCH   5  20
TORSDOF 7
ENDMDL
MODEL 4
REMARK VINA RESULT:      -6.9      6.931     11.789
REMARK  7 active torsions:
REMARK  status: ('A' for Active; 'I' for Inactive)
REMARK    1  A    between atoms: O_2  and  C_3 
REMARK    2  A    between atoms: C_8  and  C_9 
REMARK    3  A    between atoms: C_9  and  C_11 
REMARK    4  A    between atoms: C_13  and  N_14 
REMARK    5  A    between atoms: C_16  and  N_17 
REMARK    6  A    between atoms: N_17  and  C_19 
REMARK    7  A    between atoms: C_22  and  O_23 
ROOT
HETATM    1  C   UNK N   1      35.100  15.883   9.791  0.00  0.00     0.102 A 
HETATM    2  S   UNK N   1      36.002  15.994  11.152  0.00  0.00    -0.046 SA
HETATM    3  C   UNK N   1      34.961  14.476   9.562  0.00  0.00     0.122 A 
HETATM    4  N   UNK N   1      35.580  13.659  10.493  0.00  0.00    -0.322 N 
HETATM    5  C   UNK N   1      36.193  14.378  11.459  0.00  0.00     0.151 A 
HETATM    6  H   UNK N   1      35.574  12.674  10.457  0.00  0.00     0.169 HD
ENDROOT
BRANCH   1   7
HETATM    7  C   UNK N   1      34.652  17.126   9.094  0.00  0.00     0.203 C 
HETATM    8  O   UNK N   1      35.199  18.174   9.420  0.00  0.00    -0.286 OA
BRANCH   7   9
HETATM    9  C   UNK N   1      33.610  17.204   8.047  0.00  0.00     0.016 A 
HETATM   10  C   UNK N   1      34.001  17.346   6.706  0.00  0.00     0.018 A 
HETATM   11  C   UNK N   1      33.047  17.394   5.688  0.00  0.00     0.037 A 
HETATM   12  C   UNK N   1      31.688  17.309   5.998  0.00  0.00     0.068 A 
HETATM   13  C   UNK N   1      31.293  17.204   7.340  0.00  0.00     0.037 A 
HETATM   14  C   UNK N   1      32.251  17.155   8.351  0.00  0.00     0.018 A 
BRANCH  12  15
HETATM   15  O   UNK N   1      30.783  17.317   4.994  0.00  0.00    -0.356 OA
HETATM   16  C   UNK N   1      30.959  16.615   3.822  0.00  0.00     0.210 C 
ENDBRANCH  12  15
ENDBRANCH   7   9
ENDBRANCH   1   7
BRANCH   3  17
HETATM   17  N   UNK N   1      34.288  13.916   8.463  0.00  0.00    -0.384 N 
HETATM   18  H   UNK N   1      33.423  14.287   8.174  0.00  0.00     0.157 HD
HETATM   19  H   UNK N   1      34.680  13.152   7.982  0.00  0.00     0.157 HD
ENDBRANCH   3  17
BRANCH   5  20
HETATM   20  N   UNK N   1      36.836  13.881  12.462  0.00  0.00    -0.337 N 
ATOM     21  HN  UNK N   1      37.802  13.572  12.358  1.00  0.00     0.168 HD
BRANCH  20  22
HETATM   22  C   UNK N   1      36.171  13.773  13.710  0.00  0.00     0.034 A 
HETATM   23  C   UNK N   1      36.762  14.362  14.840  0.00  0.00     0.032 A 
HETATM   24  C   UNK N   1      36.380  13.978  16.117  0.00  0.00     0.039 A 
HETATM   25  C   UNK N   1      35.404  12.986  16.290  0.00  0.00     0.068 A 
HETATM   26  C   UNK N   1      34.765  12.444  15.166  0.00  0.00     0.039 A 
HETATM   27  C   UNK N   1      35.160  12.821  13.877  0.00  0.00     0.032 A 
BRANCH  25  28
HETATM   28  O   UNK N   1      35.099  12.513  17.520  0.00  0.00    -0.356 OA
HETATM   29  C   UNK N   1      35.186  13.286  18.658  0.00  0.00     0.210 C 
ENDBRANCH  25  28
ENDBRANCH  20  22
ENDBRANCH   5  20
TORSDOF 7
ENDMDL
MODEL 5
REMARK VINA RESULT:      -6.8      6.710      9.212
REMARK  7 active torsions:
REMARK  status: ('A' for Active; 'I' for Inactive)
REMARK    1  A    between atoms: O_2  and  C_3 
REMARK    2  A    between atoms: C_8  and  C_9 
REMARK    3  A    between atoms: C_9  and  C_11 
REMARK    4  A    between atoms: C_13  and  N_14 
REMARK    5  A    between atoms: C_16  and  N_17 
REMARK    6  A    between atoms: N_17  and  C_19 
REMARK    7  A    between atoms: C_22  and  O_23 
ROOT
HETATM    1  C   UNK N   1      35.433  14.454  11.184  0.00  0.00     0.102 A 
HETATM    2  S   UNK N   1      35.646  16.074  11.099  0.00  0.00    -0.046 SA
HETATM    3  C   UNK N   1      34.396  14.175  10.236  0.00  0.00     0.122 A 
HETATM    4  N   UNK N   1      33.902  15.275   9.555  0.00  0.00    -0.322 N 
HETATM    5  C   UNK N   1      34.526  16.414   9.928  0.00  0.00     0.151 A 
HETATM    6  H   UNK N   1      33.184  15.233   8.881  0.00  0.00     0.169 HD
ENDROOT
BRANCH   1   7
HETATM    7  C   UNK N   1      36.247  13.648  12.143  0.00  0.00     0.203 C 
HETATM    8  O   UNK N   1      37.286  13.157  11.716  0.00  0.00    -0.286 OA
BRANCH   7   9
HETATM    9  C   UNK N   1      35.910  13.392  13.560  0.00  0.00     0.016 A 
HETATM   10  C   UNK N   1      34.888  12.477  13.863  0.00  0.00     0.018 A 
HETATM   11  C   UNK N   1      34.561  12.188  15.189  0.00  0.00     0.037 A 
HETATM   12  C   UNK N   1      35.245  12.818  16.231  0.00  0.00     0.068 A 
HETATM   13  C   UNK N   1      36.241  13.761  15.931  0.00  0.00     0.037 A 
HETATM   14  C   UNK N   1      36.563  14.042  14.606  0.00  0.00     0.018 A 
BRANCH  12  15
HETATM   15  O   UNK N   1      34.941  12.495  17.508  0.00  0.00    -0.356 OA
HETATM   16  C   UNK N   1      35.208  13.325  18.574  0.00  0.00     0.210 C 
ENDBRANCH  12  15
ENDBRANCH   7   9
ENDBRANCH   1   7
BRANCH   3  17
HETATM   17  N   UNK N   1      33.857  12.898  10.005  0.00  0.00    -0.384 N 
HETATM   18  H   UNK N   1      33.212  12.760   9.274  0.00  0.00     0.157 HD
HETATM   19  H   UNK N   1      34.124  12.140  10.573  0.00  0.00     0.157 HD
ENDBRANCH   3  17
BRANCH   5  20
HETATM   20  N   UNK N   1      34.281  17.587   9.449  0.00  0.00    -0.337 N 
ATOM     21  HN  UNK N   1      34.648  18.422   9.906  1.00  0.00     0.168 HD
BRANCH  20  22
HETATM   22  C   UNK N   1      33.490  17.692   8.276  0.00  0.00     0.034 A 
HETATM   23  C   UNK N   1      32.093  17.607   8.398  0.00  0.00     0.032 A 
HETATM   24  C   UNK N   1      31.305  17.320   7.293  0.00  0.00     0.039 A 
HETATM   25  C   UNK N   1      31.901  17.101   6.042  0.00  0.00     0.068 A 
HETATM   26  C   UNK N   1      33.288  17.249   5.904  0.00  0.00     0.039 A 
HETATM   27  C   UNK N   1      34.085  17.525   7.022  0.00  0.00     0.032 A 
BRANCH  25  28
HETATM   28  O   UNK N   1      31.166  16.706   4.978  0.00  0.00    -0.356 OA
HETATM   29  C   UNK N   1      31.572  15.705   4.122  0.00  0.00     0.210 C 
ENDBRANCH  25  28
ENDBRANCH  20  22
ENDBRANCH   5  20
TORSDOF 7
ENDMDL
MODEL 6
REMARK VINA RESULT:      -6.8      2.045      2.713
REMARK  7 active torsions:
REMARK  status: ('A' for Active; 'I' for Inactive)
REMARK    1  A    between atoms: O_2  and  C_3 
REMARK    2  A    between atoms: C_8  and  C_9 
REMARK    3  A    between atoms: C_9  and  C_11 
REMARK    4  A    between atoms: C_13  and  N_14 
REMARK    5  A    between atoms: C_16  and  N_17 
REMARK    6  A    between atoms: N_17  and  C_19 
REMARK    7  A    between atoms: C_22  and  O_23 
ROOT
HETATM    1  C   UNK N   1      28.200  18.048   5.589  0.00  0.00     0.102 A 
HETATM    2  S   UNK N   1      27.542  18.588   4.192  0.00  0.00    -0.046 SA
HETATM    3  C   UNK N   1      27.533  18.792   6.616  0.00  0.00     0.122 A 
HETATM    4  N   UNK N   1      26.580  19.693   6.172  0.00  0.00    -0.322 N 
HETATM    5  C   UNK N   1      26.464  19.674   4.825  0.00  0.00     0.151 A 
HETATM    6  H   UNK N   1      26.050  20.276   6.763  0.00  0.00     0.169 HD
ENDROOT
BRANCH   1   7
HETATM    7  C   UNK N   1      29.275  17.011   5.551  0.00  0.00     0.203 C 
HETATM    8  O   UNK N   1      28.977  15.918   5.083  0.00  0.00    -0.286 OA
BRANCH   7   9
HETATM    9  C   UNK N   1      30.665  17.189   6.025  0.00  0.00     0.016 A 
HETATM   10  C   UNK N   1      31.691  17.354   5.080  0.00  0.00     0.018 A 
HETATM   11  C   UNK N   1      33.010  17.553   5.491  0.00  0.00     0.037 A 
HETATM   12  C   UNK N   1      33.324  17.579   6.851  0.00  0.00     0.068 A 
HETATM   13  C   UNK N   1      32.306  17.377   7.796  0.00  0.00     0.037 A 
HETATM   14  C   UNK N   1      30.991  17.182   7.380  0.00  0.00     0.018 A 
BRANCH  12  15
HETATM   15  O   UNK N   1      34.601  17.813   7.228  0.00  0.00    -0.356 OA
HETATM   16  C   UNK N   1      34.929  18.597   8.312  0.00  0.00     0.210 C 
ENDBRANCH  12  15
ENDBRANCH   7   9
ENDBRANCH   1   7
BRANCH   3  17
HETATM   17  N   UNK N   1      27.818  18.679   7.987  0.00  0.00    -0.384 N 
HETATM   18  H   UNK N   1      28.238  17.860   8.337  0.00  0.00     0.157 HD
HETATM   19  H   UNK N   1      27.597  19.418   8.598  0.00  0.00     0.157 HD
ENDBRANCH   3  17
BRANCH   5  20
HETATM   20  N   UNK N   1      25.645  20.399   4.139  0.00  0.00    -0.337 N 
ATOM     21  HN  UNK N   1      25.882  21.360   3.894  1.00  0.00     0.168 HD
BRANCH  20  22
HETATM   22  C   UNK N   1      24.411  19.830   3.733  0.00  0.00     0.034 A 
HETATM   23  C   UNK N   1      23.585  20.566   2.867  0.00  0.00     0.032 A 
HETATM   24  C   UNK N   1      22.239  20.254   2.742  0.00  0.00     0.039 A 
HETATM   25  C   UNK N   1      21.688  19.203   3.491  0.00  0.00     0.068 A 
HETATM   26  C   UNK N   1      22.523  18.426   4.305  0.00  0.00     0.039 A 
HETATM   27  C   UNK N   1      23.879  18.749   4.442  0.00  0.00     0.032 A 
BRANCH  25  28
HETATM   28  O   UNK N   1      20.359  18.956   3.475  0.00  0.00    -0.356 OA
HETATM   29  C   UNK N   1      19.742  18.263   2.455  0.00  0.00     0.210 C 
ENDBRANCH  25  28
ENDBRANCH  20  22
ENDBRANCH   5  20
TORSDOF 7
ENDMDL
MODEL 7
REMARK VINA RESULT:      -6.7      6.149     11.385
REMARK  7 active torsions:
REMARK  status: ('A' for Active; 'I' for Inactive)
REMARK    1  A    between atoms: O_2  and  C_3 
REMARK    2  A    between atoms: C_8  and  C_9 
REMARK    3  A    between atoms: C_9  and  C_11 
REMARK    4  A    between atoms: C_13  and  N_14 
REMARK    5  A    between atoms: C_16  and  N_17 
REMARK    6  A    between atoms: N_17  and  C_19 
REMARK    7  A    between atoms: C_22  and  O_23 
ROOT
HETATM    1  C   UNK N   1      34.761  16.560   8.884  0.00  0.00     0.102 A 
HETATM    2  S   UNK N   1      35.334  16.635  10.415  0.00  0.00    -0.046 SA
HETATM    3  C   UNK N   1      35.253  15.315   8.374  0.00  0.00     0.122 A 
HETATM    4  N   UNK N   1      36.016  14.571   9.258  0.00  0.00    -0.322 N 
HETATM    5  C   UNK N   1      36.133  15.185  10.456  0.00  0.00     0.151 A 
HETATM    6  H   UNK N   1      36.424  13.701   9.041  0.00  0.00     0.169 HD
ENDROOT
BRANCH   1   7
HETATM    7  C   UNK N   1      33.942  17.685   8.343  0.00  0.00     0.203 C 
HETATM    8  O   UNK N   1      34.472  18.789   8.298  0.00  0.00    -0.286 OA
BRANCH   7   9
HETATM    9  C   UNK N   1      32.548  17.584   7.856  0.00  0.00     0.016 A 
HETATM   10  C   UNK N   1      31.497  17.926   8.723  0.00  0.00     0.018 A 
HETATM   11  C   UNK N   1      30.171  17.870   8.290  0.00  0.00     0.037 A 
HETATM   12  C   UNK N   1      29.877  17.463   6.987  0.00  0.00     0.068 A 
HETATM   13  C   UNK N   1      30.923  17.086   6.131  0.00  0.00     0.037 A 
HETATM   14  C   UNK N   1      32.243  17.146   6.569  0.00  0.00     0.018 A 
BRANCH  12  15
HETATM   15  O   UNK N   1      28.589  17.455   6.576  0.00  0.00    -0.356 OA
HETATM   16  C   UNK N   1      28.026  18.488   5.859  0.00  0.00     0.210 C 
ENDBRANCH  12  15
ENDBRANCH   7   9
ENDBRANCH   1   7
BRANCH   3  17
HETATM   17  N   UNK N   1      35.035  14.855   7.064  0.00  0.00    -0.384 N 
HETATM   18  H   UNK N   1      34.340  15.272   6.505  0.00  0.00     0.157 HD
HETATM   19  H   UNK N   1      35.577  14.116   6.705  0.00  0.00     0.157 HD
ENDBRANCH   3  17
BRANCH   5  20
HETATM   20  N   UNK N   1      36.775  14.716  11.473  0.00  0.00    -0.337 N 
ATOM     21  HN  UNK N   1      37.794  14.746  11.502  1.00  0.00     0.168 HD
BRANCH  20  22
HETATM   22  C   UNK N   1      36.035  14.159  12.547  0.00  0.00     0.034 A 
HETATM   23  C   UNK N   1      36.406  14.488  13.861  0.00  0.00     0.032 A 
HETATM   24  C   UNK N   1      35.992  13.704  14.928  0.00  0.00     0.039 A 
HETATM   25  C   UNK N   1      35.205  12.566  14.700  0.00  0.00     0.068 A 
HETATM   26  C   UNK N   1      34.778  12.272  13.398  0.00  0.00     0.039 A 
HETATM   27  C   UNK N   1      35.207  13.055  12.319  0.00  0.00     0.032 A 
BRANCH  25  28
HETATM   28  O   UNK N   1      34.887  11.723  15.709  0.00  0.00    -0.356 OA
HETATM   29  C   UNK N   1      35.834  11.170  16.544  0.00  0.00     0.210 C 
ENDBRANCH  25  28
ENDBRANCH  20  22
ENDBRANCH   5  20
TORSDOF 7
ENDMDL
MODEL 8
REMARK VINA RESULT:      -6.6      7.588     10.467
REMARK  7 active torsions:
REMARK  status: ('A' for Active; 'I' for Inactive)
REMARK    1  A    between atoms: O_2  and  C_3 
REMARK    2  A    between atoms: C_8  and  C_9 
REMARK    3  A    between atoms: C_9  and  C_11 
REMARK    4  A    between atoms: C_13  and  N_14 
REMARK    5  A    between atoms: C_16  and  N_17 
REMARK    6  A    between atoms: N_17  and  C_19 
REMARK    7  A    between atoms: C_22  and  O_23 
ROOT
HETATM    1  C   UNK N   1      35.534  13.342  11.880  0.00  0.00     0.102 A 
HETATM    2  S   UNK N   1      34.532  14.523  11.353  0.00  0.00    -0.046 SA
HETATM    3  C   UNK N   1      36.842  13.771  11.481  0.00  0.00     0.122 A 
HETATM    4  N   UNK N   1      36.891  14.983  10.813  0.00  0.00    -0.322 N 
HETATM    5  C   UNK N   1      35.662  15.531  10.682  0.00  0.00     0.151 A 
HETATM    6  H   UNK N   1      37.719  15.395  10.474  0.00  0.00     0.169 HD
ENDROOT
BRANCH   1   7
HETATM    7  C   UNK N   1      34.971  12.151  12.583  0.00  0.00     0.203 C 
HETATM    8  O   UNK N   1      34.475  11.275  11.883  0.00  0.00    -0.286 OA
BRANCH   7   9
HETATM    9  C   UNK N   1      34.959  11.935  14.047  0.00  0.00     0.016 A 
HETATM   10  C   UNK N   1      34.616  10.668  14.546  0.00  0.00     0.018 A 
HETATM   11  C   UNK N   1      34.622  10.419  15.919  0.00  0.00     0.037 A 
HETATM   12  C   UNK N   1      34.962  11.436  16.814  0.00  0.00     0.068 A 
HETATM   13  C   UNK N   1      35.269  12.713  16.319  0.00  0.00     0.037 A 
HETATM   14  C   UNK N   1      35.263  12.954  14.948  0.00  0.00     0.018 A 
BRANCH  12  15
HETATM   15  O   UNK N   1      35.000  11.163  18.137  0.00  0.00    -0.356 OA
HETATM   16  C   UNK N   1      35.406  12.083  19.079  0.00  0.00     0.210 C 
ENDBRANCH  12  15
ENDBRANCH   7   9
ENDBRANCH   1   7
BRANCH   3  17
HETATM   17  N   UNK N   1      38.017  13.031  11.696  0.00  0.00    -0.384 N 
HETATM   18  H   UNK N   1      38.158  12.569  12.554  0.00  0.00     0.157 HD
HETATM   19  H   UNK N   1      38.699  12.974  10.989  0.00  0.00     0.157 HD
ENDBRANCH   3  17
BRANCH   5  20
HETATM   20  N   UNK N   1      35.410  16.662  10.115  0.00  0.00    -0.337 N 
ATOM     21  HN  UNK N   1      35.750  17.534  10.521  1.00  0.00     0.168 HD
BRANCH  20  22
HETATM   22  C   UNK N   1      34.650  16.668   8.918  0.00  0.00     0.034 A 
HETATM   23  C   UNK N   1      34.966  15.735   7.916  0.00  0.00     0.032 A 
HETATM   24  C   UNK N   1      34.538  15.929   6.611  0.00  0.00     0.039 A 
HETATM   25  C   UNK N   1      33.792  17.069   6.278  0.00  0.00     0.068 A 
HETATM   26  C   UNK N   1      33.419  17.968   7.287  0.00  0.00     0.039 A 
HETATM   27  C   UNK N   1      33.862  17.780   8.602  0.00  0.00     0.032 A 
BRANCH  25  28
HETATM   28  O   UNK N   1      33.464  17.339   4.993  0.00  0.00    -0.356 OA
HETATM   29  C   UNK N   1      32.160  17.486   4.573  0.00  0.00     0.210 C 
ENDBRANCH  25  28
ENDBRANCH  20  22
ENDBRANCH   5  20
TORSDOF 7
ENDMDL
MODEL 9
REMARK VINA RESULT:      -6.6      7.585     12.124
REMARK  7 active torsions:
REMARK  status: ('A' for Active; 'I' for Inactive)
REMARK    1  A    between atoms: O_2  and  C_3 
REMARK    2  A    between atoms: C_8  and  C_9 
REMARK    3  A    between atoms: C_9  and  C_11 
REMARK    4  A    between atoms: C_13  and  N_14 
REMARK    5  A    between atoms: C_16  and  N_17 
REMARK    6  A    between atoms: N_17  and  C_19 
REMARK    7  A    between atoms: C_22  and  O_23 
ROOT
HETATM    1  C   UNK N   1      35.477  15.146  10.411  0.00  0.00     0.102 A 
HETATM    2  S   UNK N   1      34.269  14.450  11.269  0.00  0.00    -0.046 SA
HETATM    3  C   UNK N   1      36.608  14.292  10.618  0.00  0.00     0.122 A 
HETATM    4  N   UNK N   1      36.380  13.189  11.423  0.00  0.00    -0.322 N 
HETATM    5  C   UNK N   1      35.098  13.140  11.850  0.00  0.00     0.151 A 
HETATM    6  H   UNK N   1      37.066  12.522  11.657  0.00  0.00     0.169 HD
ENDROOT
BRANCH   1   7
HETATM    7  C   UNK N   1      35.222  16.418   9.669  0.00  0.00     0.203 C 
HETATM    8  O   UNK N   1      35.424  17.465  10.274  0.00  0.00    -0.286 OA
BRANCH   7   9
HETATM    9  C   UNK N   1      34.748  16.524   8.272  0.00  0.00     0.016 A 
HETATM   10  C   UNK N   1      34.969  15.449   7.395  0.00  0.00     0.018 A 
HETATM   11  C   UNK N   1      34.512  15.501   6.077  0.00  0.00     0.037 A 
HETATM   12  C   UNK N   1      33.835  16.632   5.615  0.00  0.00     0.068 A 
HETATM   13  C   UNK N   1      33.646  17.722   6.478  0.00  0.00     0.037 A 
HETATM   14  C   UNK N   1      34.103  17.662   7.792  0.00  0.00     0.018 A 
BRANCH  12  15
HETATM   15  O   UNK N   1      33.365  16.645   4.347  0.00  0.00    -0.356 OA
HETATM   16  C   UNK N   1      33.389  15.538   3.529  0.00  0.00     0.210 C 
ENDBRANCH  12  15
ENDBRANCH   7   9
ENDBRANCH   1   7
BRANCH   3  17
HETATM   17  N   UNK N   1      37.889  14.534  10.093  0.00  0.00    -0.384 N 
HETATM   18  H   UNK N   1      38.045  14.462   9.123  0.00  0.00     0.157 HD
HETATM   19  H   UNK N   1      38.630  14.775  10.694  0.00  0.00     0.157 HD
ENDBRANCH   3  17
BRANCH   5  20
HETATM   20  N   UNK N   1      34.600  12.216  12.601  0.00  0.00    -0.337 N 
ATOM     21  HN  UNK N   1      33.901  11.569  12.236  1.00  0.00     0.168 HD
BRANCH  20  22
HETATM   22  C   UNK N   1      35.044  12.120  13.945  0.00  0.00     0.034 A 
HETATM   23  C   UNK N   1      34.730  10.961  14.675  0.00  0.00     0.032 A 
HETATM   24  C   UNK N   1      34.791  10.963  16.061  0.00  0.00     0.039 A 
HETATM   25  C   UNK N   1      35.159  12.129  16.747  0.00  0.00     0.068 A 
HETATM   26  C   UNK N   1      35.537  13.267  16.020  0.00  0.00     0.039 A 
HETATM   27  C   UNK N   1      35.461  13.270  14.621  0.00  0.00     0.032 A 
BRANCH  25  28
HETATM   28  O   UNK N   1      35.114  12.189  18.097  0.00  0.00    -0.356 OA
HETATM   29  C   UNK N   1      35.433  11.116  18.902  0.00  0.00     0.210 C 
ENDBRANCH  25  28
ENDBRANCH  20  22
ENDBRANCH   5  20
TORSDOF 7
ENDMDL
