REMARK  7 active torsions:
REMARK  status: ('A' for Active; 'I' for Inactive)
REMARK    1  A    between atoms: O_2  and  C_3 
REMARK    2  A    between atoms: C_8  and  C_9 
REMARK    3  A    between atoms: C_9  and  C_11 
REMARK    4  A    between atoms: C_13  and  N_14 
REMARK    5  A    between atoms: C_16  and  N_17 
REMARK    6  A    between atoms: N_17  and  C_19 
REMARK    7  A    between atoms: C_22  and  O_23 
ROOT
HETATM    1  C   UNK N   1      -0.526   0.155  -0.120  0.00  0.00     0.102 A 
HETATM    2  S   UNK N   1       0.897  -0.653  -0.099  0.00  0.00    -0.046 SA
HETATM    3  C   UNK N   1      -1.521  -0.857   0.073  0.00  0.00     0.122 A 
HETATM    4  N   UNK N   1      -1.036  -2.146   0.220  0.00  0.00    -0.322 N 
HETATM    5  C   UNK N   1       0.314  -2.181   0.161  0.00  0.00     0.151 A 
HETATM    6  H   UNK N   1      -1.604  -2.940   0.352  0.00  0.00     0.169 HD
ENDROOT
BRANCH   1   7
HETATM    7  C   UNK N   1      -0.536   1.633  -0.337  0.00  0.00     0.203 C 
HETATM    8  O   UNK N   1       0.528   2.158  -0.645  0.00  0.00    -0.286 OA
BRANCH   7   9
HETATM    9  C   UNK N   1      -1.716   2.517  -0.214  0.00  0.00     0.016 A 
HETATM   10  C   UNK N   1      -1.612   3.854  -0.632  0.00  0.00     0.018 A 
HETATM   11  C   UNK N   1      -2.712   4.710  -0.558  0.00  0.00     0.037 A 
HETATM   12  C   UNK N   1      -3.929   4.244  -0.056  0.00  0.00     0.068 A 
HETATM   13  C   UNK N   1      -4.025   2.919   0.397  0.00  0.00     0.037 A 
HETATM   14  C   UNK N   1      -2.924   2.070   0.318  0.00  0.00     0.018 A 
BRANCH  12  15
HETATM   15  O   UNK N   1      -4.993   5.078  -0.030  0.00  0.00    -0.356 OA
HETATM   16  C   UNK N   1      -6.248   4.677   0.372  0.00  0.00     0.210 C 
ENDBRANCH  12  15
ENDBRANCH   7   9
ENDBRANCH   1   7
BRANCH   3  17
HETATM   17  N   UNK N   1      -2.905  -0.615   0.082  0.00  0.00    -0.384 N 
HETATM   18  H   UNK N   1      -3.243   0.310   0.089  0.00  0.00     0.157 HD
HETATM   19  H   UNK N   1      -3.537  -1.369   0.082  0.00  0.00     0.157 HD
ENDBRANCH   3  17
BRANCH   5  20
HETATM   20  N   UNK N   1       1.036  -3.244   0.281  0.00  0.00    -0.337 N 
ATOM     21  HN  UNK N   1       0.599  -4.161   0.376  1.00  0.00     0.168 HD
BRANCH  20  22
HETATM   22  C   UNK N   1       2.448  -3.111   0.278  0.00  0.00     0.034 A 
HETATM   23  C   UNK N   1       3.050  -2.314   1.266  0.00  0.00     0.032 A 
HETATM   24  C   UNK N   1       4.343  -1.840   1.098  0.00  0.00     0.039 A 
HETATM   25  C   UNK N   1       5.058  -2.146  -0.069  0.00  0.00     0.068 A 
HETATM   26  C   UNK N   1       4.485  -2.995  -1.026  0.00  0.00     0.039 A 
HETATM   27  C   UNK N   1       3.175  -3.462  -0.864  0.00  0.00     0.032 A 
BRANCH  25  28
HETATM   28  O   UNK N   1       6.273  -1.601  -0.307  0.00  0.00    -0.356 OA
HETATM   29  C   UNK N   1       6.800  -0.589   0.466  0.00  0.00     0.210 C 
ENDBRANCH  25  28
ENDBRANCH  20  22
ENDBRANCH   5  20
TORSDOF 7
