MODEL 1
REMARK VINA RESULT:      -7.5      0.000      0.000
REMARK  5 active torsions:
REMARK  status: ('A' for Active; 'I' for Inactive)
REMARK    1  A    between atoms: C_7  and  N_8 
REMARK    2  A    between atoms: N_8  and  C_9 
REMARK    3  A    between atoms: C_12  and  N_13 
REMARK    4  A    between atoms: C_14  and  C_15 
REMARK    5  A    between atoms: C_15  and  C_17 
ROOT
HETATM    1  C   UNK N   1      35.229  13.971  11.235  0.00  0.00     0.151 A 
HETATM    2  S   UNK N   1      36.025  15.121  10.343  0.00  0.00    -0.046 SA
HETATM    3  N   UNK N   1      33.900  14.096  11.048  0.00  0.00    -0.322 N 
HETATM    4  C   UNK N   1      33.570  15.110  10.194  0.00  0.00     0.122 A 
HETATM    5  C   UNK N   1      34.672  15.846   9.683  0.00  0.00     0.102 A 
HETATM    6  H   UNK N   1      33.234  13.516  11.484  0.00  0.00     0.169 HD
ENDROOT
BRANCH   1   7
HETATM    7  N   UNK N   1      35.808  13.004  12.102  0.00  0.00    -0.337 N 
HETATM    8  H   UNK N   1      36.240  12.211  11.711  0.00  0.00     0.168 HD
BRANCH   7   9
HETATM    9  C   UNK N   1      35.780  13.149  13.524  0.00  0.00     0.035 A 
HETATM   10  C   UNK N   1      36.520  14.157  14.168  0.00  0.00     0.053 A 
HETATM   11  C   UNK N   1      36.540  14.265  15.553  0.00  0.00     0.036 A 
HETATM   12 Cl   UNK N   1      37.491  15.527  16.309  0.00  0.00    -0.084 Cl
HETATM   13  C   UNK N   1      35.816  13.356  16.326  0.00  0.00     0.024 A 
HETATM   14  C   UNK N   1      35.066  12.352  15.701  0.00  0.00     0.004 A 
HETATM   15  C   UNK N   1      35.046  12.249  14.303  0.00  0.00     0.029 A 
ENDBRANCH   7   9
ENDBRANCH   1   7
BRANCH   5  16
HETATM   16  C   UNK N   1      34.673  16.956   8.685  0.00  0.00     0.203 C 
HETATM   17  O   UNK N   1      35.025  18.068   9.051  0.00  0.00    -0.286 OA
BRANCH  16  18
HETATM   18  C   UNK N   1      34.349  16.740   7.250  0.00  0.00     0.016 A 
HETATM   19  C   UNK N   1      34.823  15.599   6.586  0.00  0.00     0.018 A 
HETATM   20  C   UNK N   1      34.431  15.338   5.267  0.00  0.00     0.043 A 
HETATM   21  C   UNK N   1      33.587  16.228   4.596  0.00  0.00     0.116 A 
HETATM   22  F   UNK N   1      33.175  15.959   3.335  0.00  0.00    -0.206 F 
HETATM   23  C   UNK N   1      33.163  17.395   5.228  0.00  0.00     0.043 A 
HETATM   24  C   UNK N   1      33.547  17.648   6.544  0.00  0.00     0.018 A 
ENDBRANCH  16  18
ENDBRANCH   5  16
BRANCH   4  25
HETATM   25  N   UNK N   1      32.231  15.294   9.817  0.00  0.00    -0.384 N 
HETATM   26  H   UNK N   1      31.621  14.524   9.751  0.00  0.00     0.157 HD
HETATM   27  H   UNK N   1      31.899  16.199   9.618  0.00  0.00     0.157 HD
ENDBRANCH   4  25
TORSDOF 5
ENDMDL
MODEL 2
REMARK VINA RESULT:      -7.4      1.098      1.741
REMARK  5 active torsions:
REMARK  status: ('A' for Active; 'I' for Inactive)
REMARK    1  A    between atoms: C_7  and  N_8 
REMARK    2  A    between atoms: N_8  and  C_9 
REMARK    3  A    between atoms: C_12  and  N_13 
REMARK    4  A    between atoms: C_14  and  C_15 
REMARK    5  A    between atoms: C_15  and  C_17 
ROOT
HETATM    1  C   UNK N   1      35.259  13.895  11.269  0.00  0.00     0.151 A 
HETATM    2  S   UNK N   1      36.039  15.059  10.382  0.00  0.00    -0.046 SA
HETATM    3  N   UNK N   1      33.926  14.037  11.126  0.00  0.00    -0.322 N 
HETATM    4  C   UNK N   1      33.581  15.074  10.308  0.00  0.00     0.122 A 
HETATM    5  C   UNK N   1      34.673  15.813   9.782  0.00  0.00     0.102 A 
HETATM    6  H   UNK N   1      33.268  13.452  11.568  0.00  0.00     0.169 HD
ENDROOT
BRANCH   1   7
HETATM    7  N   UNK N   1      35.854  12.900  12.093  0.00  0.00    -0.337 N 
HETATM    8  H   UNK N   1      36.767  12.595  11.889  0.00  0.00     0.168 HD
BRANCH   7   9
HETATM    9  C   UNK N   1      35.166  12.333  13.211  0.00  0.00     0.035 A 
HETATM   10  C   UNK N   1      35.253  12.910  14.491  0.00  0.00     0.053 A 
HETATM   11  C   UNK N   1      34.631  12.327  15.589  0.00  0.00     0.036 A 
HETATM   12 Cl   UNK N   1      34.783  13.075  17.165  0.00  0.00    -0.084 Cl
HETATM   13  C   UNK N   1      33.908  11.145  15.426  0.00  0.00     0.024 A 
HETATM   14  C   UNK N   1      33.803  10.561  14.156  0.00  0.00     0.004 A 
HETATM   15  C   UNK N   1      34.429  11.155  13.051  0.00  0.00     0.029 A 
ENDBRANCH   7   9
ENDBRANCH   1   7
BRANCH   5  16
HETATM   16  C   UNK N   1      34.655  16.947   8.812  0.00  0.00     0.203 C 
HETATM   17  O   UNK N   1      35.058  18.040   9.186  0.00  0.00    -0.286 OA
BRANCH  16  18
HETATM   18  C   UNK N   1      34.250  16.777   7.392  0.00  0.00     0.016 A 
HETATM   19  C   UNK N   1      33.383  17.702   6.793  0.00  0.00     0.018 A 
HETATM   20  C   UNK N   1      33.084  17.605   5.427  0.00  0.00     0.043 A 
HETATM   21  C   UNK N   1      33.629  16.569   4.661  0.00  0.00     0.116 A 
HETATM   22  F   UNK N   1      33.373  16.497   3.334  0.00  0.00    -0.206 F 
HETATM   23  C   UNK N   1      34.441  15.611   5.264  0.00  0.00     0.043 A 
HETATM   24  C   UNK N   1      34.744  15.714   6.620  0.00  0.00     0.018 A 
ENDBRANCH  16  18
ENDBRANCH   5  16
BRANCH   4  25
HETATM   25  N   UNK N   1      32.232  15.280   9.978  0.00  0.00    -0.384 N 
HETATM   26  H   UNK N   1      31.770  16.101  10.260  0.00  0.00     0.157 HD
HETATM   27  H   UNK N   1      31.746  14.597   9.461  0.00  0.00     0.157 HD
ENDBRANCH   4  25
TORSDOF 5
ENDMDL
MODEL 3
REMARK VINA RESULT:      -7.4      4.405      8.587
REMARK  5 active torsions:
REMARK  status: ('A' for Active; 'I' for Inactive)
REMARK    1  A    between atoms: C_7  and  N_8 
REMARK    2  A    between atoms: N_8  and  C_9 
REMARK    3  A    between atoms: C_12  and  N_13 
REMARK    4  A    between atoms: C_14  and  C_15 
REMARK    5  A    between atoms: C_15  and  C_17 
ROOT
HETATM    1  C   UNK N   1      34.562  16.106  10.150  0.00  0.00     0.151 A 
HETATM    2  S   UNK N   1      35.704  15.917  11.338  0.00  0.00    -0.046 SA
HETATM    3  N   UNK N   1      34.084  14.898   9.789  0.00  0.00    -0.322 N 
HETATM    4  C   UNK N   1      34.651  13.866  10.480  0.00  0.00     0.122 A 
HETATM    5  C   UNK N   1      35.639  14.249  11.425  0.00  0.00     0.102 A 
HETATM    6  H   UNK N   1      33.396  14.773   9.095  0.00  0.00     0.169 HD
ENDROOT
BRANCH   1   7
HETATM    7  N   UNK N   1      34.142  17.324   9.549  0.00  0.00    -0.337 N 
HETATM    8  H   UNK N   1      34.320  18.172  10.015  0.00  0.00     0.168 HD
BRANCH   7   9
HETATM    9  C   UNK N   1      33.469  17.353   8.288  0.00  0.00     0.035 A 
HETATM   10  C   UNK N   1      32.066  17.289   8.207  0.00  0.00     0.053 A 
HETATM   11  C   UNK N   1      31.414  17.259   6.981  0.00  0.00     0.036 A 
HETATM   12 Cl   UNK N   1      29.666  17.161   6.934  0.00  0.00    -0.084 Cl
HETATM   13  C   UNK N   1      32.159  17.290   5.802  0.00  0.00     0.024 A 
HETATM   14  C   UNK N   1      33.557  17.364   5.863  0.00  0.00     0.004 A 
HETATM   15  C   UNK N   1      34.211  17.397   7.103  0.00  0.00     0.029 A 
ENDBRANCH   7   9
ENDBRANCH   1   7
BRANCH   5  16
HETATM   16  C   UNK N   1      36.394  13.393  12.387  0.00  0.00     0.203 C 
HETATM   17  O   UNK N   1      37.418  12.847  12.001  0.00  0.00    -0.286 OA
BRANCH  16  18
HETATM   18  C   UNK N   1      35.997  13.253  13.813  0.00  0.00     0.016 A 
HETATM   19  C   UNK N   1      36.692  13.955  14.809  0.00  0.00     0.018 A 
HETATM   20  C   UNK N   1      36.254  13.910  16.139  0.00  0.00     0.043 A 
HETATM   21  C   UNK N   1      35.138  13.141  16.485  0.00  0.00     0.116 A 
HETATM   22  F   UNK N   1      34.690  13.127  17.762  0.00  0.00    -0.206 F 
HETATM   23  C   UNK N   1      34.481  12.391  15.511  0.00  0.00     0.043 A 
HETATM   24  C   UNK N   1      34.913  12.446  14.187  0.00  0.00     0.018 A 
ENDBRANCH  16  18
ENDBRANCH   5  16
BRANCH   4  25
HETATM   25  N   UNK N   1      34.177  12.559  10.290  0.00  0.00    -0.384 N 
HETATM   26  H   UNK N   1      34.548  11.813  10.815  0.00  0.00     0.157 HD
HETATM   27  H   UNK N   1      33.469  12.387   9.628  0.00  0.00     0.157 HD
ENDBRANCH   4  25
TORSDOF 5
ENDMDL
MODEL 4
REMARK VINA RESULT:      -7.2      1.865      2.275
REMARK  5 active torsions:
REMARK  status: ('A' for Active; 'I' for Inactive)
REMARK    1  A    between atoms: C_7  and  N_8 
REMARK    2  A    between atoms: N_8  and  C_9 
REMARK    3  A    between atoms: C_12  and  N_13 
REMARK    4  A    between atoms: C_14  and  C_15 
REMARK    5  A    between atoms: C_15  and  C_17 
ROOT
HETATM    1  C   UNK N   1      36.286  14.538  11.328  0.00  0.00     0.151 A 
HETATM    2  S   UNK N   1      35.630  16.061  11.321  0.00  0.00    -0.046 SA
HETATM    3  N   UNK N   1      36.259  14.030  10.079  0.00  0.00    -0.322 N 
HETATM    4  C   UNK N   1      35.713  14.883   9.164  0.00  0.00     0.122 A 
HETATM    5  C   UNK N   1      35.264  16.123   9.691  0.00  0.00     0.102 A 
HETATM    6  H   UNK N   1      36.597  13.134   9.852  0.00  0.00     0.169 HD
ENDROOT
BRANCH   1   7
HETATM    7  N   UNK N   1      36.784  13.822  12.452  0.00  0.00    -0.337 N 
HETATM    8  H   UNK N   1      37.756  13.771  12.592  0.00  0.00     0.168 HD
BRANCH   7   9
HETATM    9  C   UNK N   1      35.913  13.177  13.384  0.00  0.00     0.035 A 
HETATM   10  C   UNK N   1      35.904  13.536  14.744  0.00  0.00     0.053 A 
HETATM   11  C   UNK N   1      35.100  12.871  15.661  0.00  0.00     0.036 A 
HETATM   12 Cl   UNK N   1      35.139  13.344  17.347  0.00  0.00    -0.084 Cl
HETATM   13  C   UNK N   1      34.284  11.824  15.232  0.00  0.00     0.024 A 
HETATM   14  C   UNK N   1      34.272  11.459  13.879  0.00  0.00     0.004 A 
HETATM   15  C   UNK N   1      35.083  12.135  12.957  0.00  0.00     0.029 A 
ENDBRANCH   7   9
ENDBRANCH   1   7
BRANCH   5  16
HETATM   16  C   UNK N   1      34.693  17.296   8.967  0.00  0.00     0.203 C 
HETATM   17  O   UNK N   1      35.232  18.386   9.108  0.00  0.00    -0.286 OA
BRANCH  16  18
HETATM   18  C   UNK N   1      33.555  17.173   8.019  0.00  0.00     0.016 A 
HETATM   19  C   UNK N   1      32.263  16.919   8.501  0.00  0.00     0.018 A 
HETATM   20  C   UNK N   1      31.172  16.908   7.622  0.00  0.00     0.043 A 
HETATM   21  C   UNK N   1      31.370  17.125   6.254  0.00  0.00     0.116 A 
HETATM   22  F   UNK N   1      30.314  17.154   5.409  0.00  0.00    -0.206 F 
HETATM   23  C   UNK N   1      32.659  17.315   5.760  0.00  0.00     0.043 A 
HETATM   24  C   UNK N   1      33.741  17.334   6.638  0.00  0.00     0.018 A 
ENDBRANCH  16  18
ENDBRANCH   5  16
BRANCH   4  25
HETATM   25  N   UNK N   1      35.715  14.537   7.804  0.00  0.00    -0.384 N 
HETATM   26  H   UNK N   1      35.419  15.184   7.124  0.00  0.00     0.157 HD
HETATM   27  H   UNK N   1      36.013  13.640   7.528  0.00  0.00     0.157 HD
ENDBRANCH   4  25
TORSDOF 5
ENDMDL
MODEL 5
REMARK VINA RESULT:      -7.1      2.654      3.111
REMARK  5 active torsions:
REMARK  status: ('A' for Active; 'I' for Inactive)
REMARK    1  A    between atoms: C_7  and  N_8 
REMARK    2  A    between atoms: N_8  and  C_9 
REMARK    3  A    between atoms: C_12  and  N_13 
REMARK    4  A    between atoms: C_14  and  C_15 
REMARK    5  A    between atoms: C_15  and  C_17 
ROOT
HETATM    1  C   UNK N   1      36.185  15.066  10.556  0.00  0.00     0.151 A 
HETATM    2  S   UNK N   1      35.474  16.562  10.636  0.00  0.00    -0.046 SA
HETATM    3  N   UNK N   1      35.997  14.543   9.328  0.00  0.00    -0.322 N 
HETATM    4  C   UNK N   1      35.291  15.364   8.496  0.00  0.00     0.122 A 
HETATM    5  C   UNK N   1      34.874  16.591   9.076  0.00  0.00     0.102 A 
HETATM    6  H   UNK N   1      36.335  13.658   9.058  0.00  0.00     0.169 HD
ENDROOT
BRANCH   1   7
HETATM    7  N   UNK N   1      36.869  14.383  11.599  0.00  0.00    -0.337 N 
HETATM    8  H   UNK N   1      37.850  14.437  11.642  0.00  0.00     0.168 HD
BRANCH   7   9
HETATM    9  C   UNK N   1      36.172  13.622  12.589  0.00  0.00     0.035 A 
HETATM   10  C   UNK N   1      35.441  12.471  12.243  0.00  0.00     0.053 A 
HETATM   11  C   UNK N   1      34.717  11.763  13.195  0.00  0.00     0.036 A 
HETATM   12 Cl   UNK N   1      33.809  10.346  12.710  0.00  0.00    -0.084 Cl
HETATM   13  C   UNK N   1      34.708  12.198  14.520  0.00  0.00     0.024 A 
HETATM   14  C   UNK N   1      35.438  13.338  14.884  0.00  0.00     0.004 A 
HETATM   15  C   UNK N   1      36.170  14.047  13.922  0.00  0.00     0.029 A 
ENDBRANCH   7   9
ENDBRANCH   1   7
BRANCH   5  16
HETATM   16  C   UNK N   1      34.157  17.733   8.436  0.00  0.00     0.203 C 
HETATM   17  O   UNK N   1      34.746  18.799   8.321  0.00  0.00    -0.286 OA
BRANCH  16  18
HETATM   18  C   UNK N   1      32.794  17.597   7.857  0.00  0.00     0.016 A 
HETATM   19  C   UNK N   1      32.634  17.361   6.484  0.00  0.00     0.018 A 
HETATM   20  C   UNK N   1      31.359  17.126   5.953  0.00  0.00     0.043 A 
HETATM   21  C   UNK N   1      30.236  17.152   6.787  0.00  0.00     0.116 A 
HETATM   22  F   UNK N   1      29.008  16.887   6.284  0.00  0.00    -0.206 F 
HETATM   23  C   UNK N   1      30.381  17.449   8.140  0.00  0.00     0.043 A 
HETATM   24  C   UNK N   1      31.652  17.673   8.667  0.00  0.00     0.018 A 
ENDBRANCH  16  18
ENDBRANCH   5  16
BRANCH   4  25
HETATM   25  N   UNK N   1      35.108  15.002   7.152  0.00  0.00    -0.384 N 
HETATM   26  H   UNK N   1      35.095  15.689   6.448  0.00  0.00     0.157 HD
HETATM   27  H   UNK N   1      34.992  14.054   6.913  0.00  0.00     0.157 HD
ENDBRANCH   4  25
TORSDOF 5
ENDMDL
MODEL 6
REMARK VINA RESULT:      -7.1      2.980      3.418
REMARK  5 active torsions:
REMARK  status: ('A' for Active; 'I' for Inactive)
REMARK    1  A    between atoms: C_7  and  N_8 
REMARK    2  A    between atoms: N_8  and  C_9 
REMARK    3  A    between atoms: C_12  and  N_13 
REMARK    4  A    between atoms: C_14  and  C_15 
REMARK    5  A    between atoms: C_15  and  C_17 
ROOT
HETATM    1  C   UNK N   1      36.458  14.608  12.114  0.00  0.00     0.151 A 
HETATM    2  S   UNK N   1      35.186  15.273  11.283  0.00  0.00    -0.046 SA
HETATM    3  N   UNK N   1      37.280  13.978  11.250  0.00  0.00    -0.322 N 
HETATM    4  C   UNK N   1      36.858  14.055   9.954  0.00  0.00     0.122 A 
HETATM    5  C   UNK N   1      35.639  14.757   9.760  0.00  0.00     0.102 A 
HETATM    6  H   UNK N   1      38.101  13.509  11.527  0.00  0.00     0.169 HD
ENDROOT
BRANCH   1   7
HETATM    7  N   UNK N   1      36.677  14.639  13.519  0.00  0.00    -0.337 N 
HETATM    8  H   UNK N   1      37.268  15.330  13.894  0.00  0.00     0.168 HD
BRANCH   7   9
HETATM    9  C   UNK N   1      36.064  13.696  14.401  0.00  0.00     0.035 A 
HETATM   10  C   UNK N   1      35.214  12.686  13.914  0.00  0.00     0.053 A 
HETATM   11  C   UNK N   1      34.573  11.805  14.776  0.00  0.00     0.036 A 
HETATM   12 Cl   UNK N   1      33.511  10.576  14.121  0.00  0.00    -0.084 Cl
HETATM   13  C   UNK N   1      34.768  11.920  16.152  0.00  0.00     0.024 A 
HETATM   14  C   UNK N   1      35.619  12.914  16.655  0.00  0.00     0.004 A 
HETATM   15  C   UNK N   1      36.267  13.799  15.781  0.00  0.00     0.029 A 
ENDBRANCH   7   9
ENDBRANCH   1   7
BRANCH   5  16
HETATM   16  C   UNK N   1      34.942  15.086   8.482  0.00  0.00     0.203 C 
HETATM   17  O   UNK N   1      35.290  14.505   7.463  0.00  0.00    -0.286 OA
BRANCH  16  18
HETATM   18  C   UNK N   1      33.790  16.024   8.419  0.00  0.00     0.016 A 
HETATM   19  C   UNK N   1      32.482  15.540   8.558  0.00  0.00     0.018 A 
HETATM   20  C   UNK N   1      31.402  16.431   8.607  0.00  0.00     0.043 A 
HETATM   21  C   UNK N   1      31.622  17.807   8.488  0.00  0.00     0.116 A 
HETATM   22  F   UNK N   1      30.585  18.673   8.574  0.00  0.00    -0.206 F 
HETATM   23  C   UNK N   1      32.913  18.290   8.286  0.00  0.00     0.043 A 
HETATM   24  C   UNK N   1      33.987  17.402   8.248  0.00  0.00     0.018 A 
ENDBRANCH  16  18
ENDBRANCH   5  16
BRANCH   4  25
HETATM   25  N   UNK N   1      37.666  13.539   8.928  0.00  0.00    -0.384 N 
HETATM   26  H   UNK N   1      37.314  13.449   8.014  0.00  0.00     0.157 HD
HETATM   27  H   UNK N   1      38.591  13.266   9.125  0.00  0.00     0.157 HD
ENDBRANCH   4  25
TORSDOF 5
ENDMDL
MODEL 7
REMARK VINA RESULT:      -7.0      2.035      2.226
REMARK  5 active torsions:
REMARK  status: ('A' for Active; 'I' for Inactive)
REMARK    1  A    between atoms: C_7  and  N_8 
REMARK    2  A    between atoms: N_8  and  C_9 
REMARK    3  A    between atoms: C_12  and  N_13 
REMARK    4  A    between atoms: C_14  and  C_15 
REMARK    5  A    between atoms: C_15  and  C_17 
ROOT
HETATM    1  C   UNK N   1      36.372  14.057  11.728  0.00  0.00     0.151 A 
HETATM    2  S   UNK N   1      35.226  13.380  10.740  0.00  0.00    -0.046 SA
HETATM    3  N   UNK N   1      36.305  15.401  11.642  0.00  0.00    -0.322 N 
HETATM    4  C   UNK N   1      35.334  15.836  10.787  0.00  0.00     0.122 A 
HETATM    5  C   UNK N   1      34.598  14.808  10.141  0.00  0.00     0.102 A 
HETATM    6  H   UNK N   1      36.897  16.006  12.144  0.00  0.00     0.169 HD
ENDROOT
BRANCH   1   7
HETATM    7  N   UNK N   1      37.323  13.373  12.534  0.00  0.00    -0.337 N 
HETATM    8  H   UNK N   1      38.270  13.384  12.268  0.00  0.00     0.168 HD
BRANCH   7   9
HETATM    9  C   UNK N   1      36.944  12.671  13.721  0.00  0.00     0.035 A 
HETATM   10  C   UNK N   1      36.132  13.275  14.698  0.00  0.00     0.053 A 
HETATM   11  C   UNK N   1      35.809  12.615  15.877  0.00  0.00     0.036 A 
HETATM   12 Cl   UNK N   1      34.809  13.417  17.070  0.00  0.00    -0.084 Cl
HETATM   13  C   UNK N   1      36.300  11.329  16.105  0.00  0.00     0.024 A 
HETATM   14  C   UNK N   1      37.102  10.708  15.138  0.00  0.00     0.004 A 
HETATM   15  C   UNK N   1      37.422  11.376  13.948  0.00  0.00     0.029 A 
ENDBRANCH   7   9
ENDBRANCH   1   7
BRANCH   5  16
HETATM   16  C   UNK N   1      33.434  14.932   9.214  0.00  0.00     0.203 C 
HETATM   17  O   UNK N   1      32.393  14.360   9.506  0.00  0.00    -0.286 OA
BRANCH  16  18
HETATM   18  C   UNK N   1      33.468  15.790   8.000  0.00  0.00     0.016 A 
HETATM   19  C   UNK N   1      34.350  15.492   6.952  0.00  0.00     0.018 A 
HETATM   20  C   UNK N   1      34.310  16.233   5.764  0.00  0.00     0.043 A 
HETATM   21  C   UNK N   1      33.406  17.292   5.628  0.00  0.00     0.116 A 
HETATM   22  F   UNK N   1      33.338  17.984   4.467  0.00  0.00    -0.206 F 
HETATM   23  C   UNK N   1      32.570  17.634   6.689  0.00  0.00     0.043 A 
HETATM   24  C   UNK N   1      32.606  16.889   7.866  0.00  0.00     0.018 A 
ENDBRANCH  16  18
ENDBRANCH   5  16
BRANCH   4  25
HETATM   25  N   UNK N   1      35.072  17.211  10.675  0.00  0.00    -0.384 N 
HETATM   26  H   UNK N   1      35.299  17.824  11.410  0.00  0.00     0.157 HD
HETATM   27  H   UNK N   1      34.657  17.564   9.854  0.00  0.00     0.157 HD
ENDBRANCH   4  25
TORSDOF 5
ENDMDL
MODEL 8
REMARK VINA RESULT:      -7.0      2.136      2.432
REMARK  5 active torsions:
REMARK  status: ('A' for Active; 'I' for Inactive)
REMARK    1  A    between atoms: C_7  and  N_8 
REMARK    2  A    between atoms: N_8  and  C_9 
REMARK    3  A    between atoms: C_12  and  N_13 
REMARK    4  A    between atoms: C_14  and  C_15 
REMARK    5  A    between atoms: C_15  and  C_17 
ROOT
HETATM    1  C   UNK N   1      36.582  14.095  12.027  0.00  0.00     0.151 A 
HETATM    2  S   UNK N   1      36.400  13.498  10.490  0.00  0.00    -0.046 SA
HETATM    3  N   UNK N   1      36.181  15.382  12.061  0.00  0.00    -0.322 N 
HETATM    4  C   UNK N   1      35.742  15.840  10.852  0.00  0.00     0.122 A 
HETATM    5  C   UNK N   1      35.805  14.896   9.793  0.00  0.00     0.102 A 
HETATM    6  H   UNK N   1      36.205  15.935  12.875  0.00  0.00     0.169 HD
ENDROOT
BRANCH   1   7
HETATM    7  N   UNK N   1      37.104  13.409  13.158  0.00  0.00    -0.337 N 
HETATM    8  H   UNK N   1      37.953  12.921  13.070  0.00  0.00     0.168 HD
BRANCH   7   9
HETATM    9  C   UNK N   1      36.432  13.410  14.420  0.00  0.00     0.035 A 
HETATM   10  C   UNK N   1      36.745  14.355  15.413  0.00  0.00     0.053 A 
HETATM   11  C   UNK N   1      36.134  14.322  16.660  0.00  0.00     0.036 A 
HETATM   12 Cl   UNK N   1      36.572  15.511  17.870  0.00  0.00    -0.084 Cl
HETATM   13  C   UNK N   1      35.191  13.332  16.941  0.00  0.00     0.024 A 
HETATM   14  C   UNK N   1      34.859  12.389  15.960  0.00  0.00     0.004 A 
HETATM   15  C   UNK N   1      35.476  12.428  14.702  0.00  0.00     0.029 A 
ENDBRANCH   7   9
ENDBRANCH   1   7
BRANCH   5  16
HETATM   16  C   UNK N   1      35.343  15.041   8.382  0.00  0.00     0.203 C 
HETATM   17  O   UNK N   1      36.008  14.523   7.495  0.00  0.00    -0.286 OA
BRANCH  16  18
HETATM   18  C   UNK N   1      34.067  15.714   8.024  0.00  0.00     0.016 A 
HETATM   19  C   UNK N   1      32.854  15.248   8.553  0.00  0.00     0.018 A 
HETATM   20  C   UNK N   1      31.664  15.944   8.305  0.00  0.00     0.043 A 
HETATM   21  C   UNK N   1      31.675  17.091   7.504  0.00  0.00     0.116 A 
HETATM   22  F   UNK N   1      30.532  17.786   7.295  0.00  0.00    -0.206 F 
HETATM   23  C   UNK N   1      32.865  17.523   6.924  0.00  0.00     0.043 A 
HETATM   24  C   UNK N   1      34.050  16.835   7.181  0.00  0.00     0.018 A 
ENDBRANCH  16  18
ENDBRANCH   5  16
BRANCH   4  25
HETATM   25  N   UNK N   1      35.193  17.128  10.755  0.00  0.00    -0.384 N 
HETATM   26  H   UNK N   1      34.468  17.408  11.359  0.00  0.00     0.157 HD
HETATM   27  H   UNK N   1      35.535  17.755  10.077  0.00  0.00     0.157 HD
ENDBRANCH   4  25
TORSDOF 5
ENDMDL
MODEL 9
REMARK VINA RESULT:      -6.9      2.592      3.035
REMARK  5 active torsions:
REMARK  status: ('A' for Active; 'I' for Inactive)
REMARK    1  A    between atoms: C_7  and  N_8 
REMARK    2  A    between atoms: N_8  and  C_9 
REMARK    3  A    between atoms: C_12  and  N_13 
REMARK    4  A    between atoms: C_14  and  C_15 
REMARK    5  A    between atoms: C_15  and  C_17 
ROOT
HETATM    1  C   UNK N   1      35.554  13.709  10.557  0.00  0.00     0.151 A 
HETATM    2  S   UNK N   1      34.973  13.787   9.006  0.00  0.00    -0.046 SA
HETATM    3  N   UNK N   1      35.640  14.954  11.069  0.00  0.00    -0.322 N 
HETATM    4  C   UNK N   1      35.235  15.922  10.196  0.00  0.00     0.122 A 
HETATM    5  C   UNK N   1      34.822  15.449   8.923  0.00  0.00     0.102 A 
HETATM    6  H   UNK N   1      35.964  15.144  11.979  0.00  0.00     0.169 HD
ENDROOT
BRANCH   1   7
HETATM    7  N   UNK N   1      35.945  12.543  11.270  0.00  0.00    -0.337 N 
HETATM    8  H   UNK N   1      36.753  12.058  10.986  0.00  0.00     0.168 HD
BRANCH   7   9
HETATM    9  C   UNK N   1      35.200  12.054  12.389  0.00  0.00     0.035 A 
HETATM   10  C   UNK N   1      35.230  12.716  13.630  0.00  0.00     0.053 A 
HETATM   11  C   UNK N   1      34.553  12.211  14.733  0.00  0.00     0.036 A 
HETATM   12 Cl   UNK N   1      34.635  13.062  16.262  0.00  0.00    -0.084 Cl
HETATM   13  C   UNK N   1      33.829  11.024  14.615  0.00  0.00     0.024 A 
HETATM   14  C   UNK N   1      33.781  10.357  13.384  0.00  0.00     0.004 A 
HETATM   15  C   UNK N   1      34.463  10.871  12.273  0.00  0.00     0.029 A 
ENDBRANCH   7   9
ENDBRANCH   1   7
BRANCH   5  16
HETATM   16  C   UNK N   1      34.260  16.220   7.775  0.00  0.00     0.203 C 
HETATM   17  O   UNK N   1      34.985  16.450   6.817  0.00  0.00    -0.286 OA
BRANCH  16  18
HETATM   18  C   UNK N   1      32.835  16.640   7.717  0.00  0.00     0.016 A 
HETATM   19  C   UNK N   1      31.941  15.975   6.865  0.00  0.00     0.018 A 
HETATM   20  C   UNK N   1      30.577  16.296   6.886  0.00  0.00     0.043 A 
HETATM   21  C   UNK N   1      30.105  17.301   7.737  0.00  0.00     0.116 A 
HETATM   22  F   UNK N   1      28.783  17.586   7.787  0.00  0.00    -0.206 F 
HETATM   23  C   UNK N   1      30.998  18.008   8.540  0.00  0.00     0.043 A 
HETATM   24  C   UNK N   1      32.353  17.680   8.524  0.00  0.00     0.018 A 
ENDBRANCH  16  18
ENDBRANCH   5  16
BRANCH   4  25
HETATM   25  N   UNK N   1      35.166  17.258  10.623  0.00  0.00    -0.384 N 
HETATM   26  H   UNK N   1      35.248  17.993   9.975  0.00  0.00     0.157 HD
HETATM   27  H   UNK N   1      35.036  17.460  11.578  0.00  0.00     0.157 HD
ENDBRANCH   4  25
TORSDOF 5
ENDMDL
