REMARK  5 active torsions:
REMARK  status: ('A' for Active; 'I' for Inactive)
REMARK    1  A    between atoms: C_7  and  N_8 
REMARK    2  A    between atoms: N_8  and  C_9 
REMARK    3  A    between atoms: C_12  and  N_13 
REMARK    4  A    between atoms: C_14  and  C_15 
REMARK    5  A    between atoms: C_15  and  C_17 
ROOT
HETATM    1  C   UNK N   1       0.433   1.799   0.110  0.00  0.00     0.151 A 
HETATM    2  S   UNK N   1       1.856   0.953   0.015  0.00  0.00    -0.046 SA
HETATM    3  N   UNK N   1      -0.602   0.936   0.159  0.00  0.00    -0.322 N 
HETATM    4  C   UNK N   1      -0.213  -0.372   0.120  0.00  0.00     0.122 A 
HETATM    5  C   UNK N   1       1.188  -0.579   0.017  0.00  0.00     0.102 A 
HETATM    6  H   UNK N   1      -1.543   1.221   0.216  0.00  0.00     0.169 HD
ENDROOT
BRANCH   1   7
HETATM    7  N   UNK N   1       0.272   3.212   0.110  0.00  0.00    -0.337 N 
HETATM    8  H   UNK N   1       1.070   3.783   0.039  0.00  0.00     0.168 HD
BRANCH   7   9
HETATM    9  C   UNK N   1      -1.015   3.827   0.209  0.00  0.00     0.035 A 
HETATM   10  C   UNK N   1      -2.156   3.080   0.554  0.00  0.00     0.053 A 
HETATM   11  C   UNK N   1      -3.416   3.664   0.595  0.00  0.00     0.036 A 
HETATM   12 Cl   UNK N   1      -4.808   2.687   1.013  0.00  0.00    -0.084 Cl
HETATM   13  C   UNK N   1      -3.560   5.017   0.286  0.00  0.00     0.024 A 
HETATM   14  C   UNK N   1      -2.433   5.779  -0.050  0.00  0.00     0.004 A 
HETATM   15  C   UNK N   1      -1.163   5.186  -0.087  0.00  0.00     0.029 A 
ENDBRANCH   7   9
ENDBRANCH   1   7
BRANCH   5  16
HETATM   16  C   UNK N   1       1.947  -1.864   0.024  0.00  0.00     0.203 C 
HETATM   17  O   UNK N   1       3.142  -1.833   0.284  0.00  0.00    -0.286 OA
BRANCH  16  18
HETATM   18  C   UNK N   1       1.290  -3.181  -0.186  0.00  0.00     0.016 A 
HETATM   19  C   UNK N   1       1.795  -4.327   0.445  0.00  0.00     0.018 A 
HETATM   20  C   UNK N   1       1.117  -5.548   0.336  0.00  0.00     0.043 A 
HETATM   21  C   UNK N   1      -0.053  -5.636  -0.426  0.00  0.00     0.116 A 
HETATM   22  F   UNK N   1      -0.731  -6.805  -0.501  0.00  0.00    -0.206 F 
HETATM   23  C   UNK N   1      -0.525  -4.516  -1.107  0.00  0.00     0.043 A 
HETATM   24  C   UNK N   1       0.146  -3.300  -0.989  0.00  0.00     0.018 A 
ENDBRANCH  16  18
ENDBRANCH   5  16
BRANCH   4  25
HETATM   25  N   UNK N   1      -1.171  -1.387   0.271  0.00  0.00    -0.384 N 
HETATM   26  H   UNK N   1      -2.123  -1.162   0.377  0.00  0.00     0.157 HD
HETATM   27  H   UNK N   1      -0.888  -2.330   0.271  0.00  0.00     0.157 HD
ENDBRANCH   4  25
TORSDOF 5
