MODEL 1
REMARK VINA RESULT:      -7.2      0.000      0.000
REMARK  5 active torsions:
REMARK  status: ('A' for Active; 'I' for Inactive)
REMARK    1  A    between atoms: N_1  and  C_12 
REMARK    2  A    between atoms: N_4  and  C_8 
REMARK    3  A    between atoms: C_10  and  C_21 
REMARK    4  A    between atoms: C_11  and  O_13 
REMARK    5  A    between atoms: C_15  and  C_21 
ROOT
HETATM    1  C   UNK N   1      20.093  15.799   8.879  0.00  0.00     0.075 A 
HETATM    2  C   UNK N   1      20.710  14.815   8.110  0.00  0.00     0.106 A 
HETATM    3  C   UNK N   1      21.339  15.179   6.921  0.00  0.00     0.047 A 
HETATM    4  C   UNK N   1      21.424  16.517   6.494  0.00  0.00    -0.012 A 
HETATM    5  C   UNK N   1      20.832  17.520   7.318  0.00  0.00     0.105 A 
HETATM    6  C   UNK N   1      20.131  17.147   8.500  0.00  0.00     0.138 A 
ENDROOT
BRANCH   4   7
HETATM    7  C   UNK N   1      22.111  16.738   5.131  0.00  0.00     0.050 C 
HETATM    8  C   UNK N   1      23.626  16.807   5.363  0.00  0.00     0.020 C 
BRANCH   7   9
HETATM    9  C   UNK N   1      21.677  17.856   4.174  0.00  0.00    -0.050 A 
HETATM   10  C   UNK N   1      20.471  17.777   3.458  0.00  0.00     0.009 A 
HETATM   11  C   UNK N   1      20.110  18.784   2.552  0.00  0.00     0.024 A 
HETATM   12  C   UNK N   1      20.976  19.853   2.308  0.00  0.00     0.034 A 
HETATM   13  C   UNK N   1      22.200  19.920   2.972  0.00  0.00     0.024 A 
HETATM   14 Cl   UNK N   1      20.532  21.107   1.170  0.00  0.00    -0.084 Cl
HETATM   15  C   UNK N   1      22.544  18.935   3.899  0.00  0.00     0.009 A 
ENDBRANCH   7   9
ENDBRANCH   4   7
BRANCH   5  16
HETATM   16  O   UNK N   1      20.905  18.815   6.982  0.00  0.00    -0.358 OA
HETATM   17  H   UNK N   1      20.491  19.124   6.201  0.00  0.00     0.217 HD
ENDBRANCH   5  16
BRANCH   2  18
HETATM   18  N   UNK N   1      20.701  13.456   8.533  0.00  0.00    -0.116 N 
HETATM   19  O   UNK N   1      20.370  13.152   9.771  0.00  0.00    -0.532 OA
HETATM   20  O   UNK N   1      20.950  12.581   7.761  0.00  0.00    -0.532 OA
ENDBRANCH   2  18
BRANCH   6  21
HETATM   21  N   UNK N   1      19.433  18.104   9.304  0.00  0.00    -0.113 N 
HETATM   22  O   UNK N   1      18.269  17.961   9.526  0.00  0.00    -0.532 OA
HETATM   23  O   UNK N   1      20.031  19.201   9.721  0.00  0.00    -0.532 OA
ENDBRANCH   6  21
TORSDOF 5
ENDMDL
MODEL 2
REMARK VINA RESULT:      -6.9     10.136     11.684
REMARK  5 active torsions:
REMARK  status: ('A' for Active; 'I' for Inactive)
REMARK    1  A    between atoms: N_1  and  C_12 
REMARK    2  A    between atoms: N_4  and  C_8 
REMARK    3  A    between atoms: C_10  and  C_21 
REMARK    4  A    between atoms: C_11  and  O_13 
REMARK    5  A    between atoms: C_15  and  C_21 
ROOT
HETATM    1  C   UNK N   1      34.516  16.566   6.659  0.00  0.00     0.075 A 
HETATM    2  C   UNK N   1      33.791  15.811   5.740  0.00  0.00     0.106 A 
HETATM    3  C   UNK N   1      32.399  15.819   5.804  0.00  0.00     0.047 A 
HETATM    4  C   UNK N   1      31.693  16.610   6.729  0.00  0.00    -0.012 A 
HETATM    5  C   UNK N   1      32.449  17.419   7.629  0.00  0.00     0.105 A 
HETATM    6  C   UNK N   1      33.871  17.363   7.613  0.00  0.00     0.138 A 
ENDROOT
BRANCH   4   7
HETATM    7  C   UNK N   1      30.158  16.463   6.695  0.00  0.00     0.050 C 
HETATM    8  C   UNK N   1      29.808  15.297   5.762  0.00  0.00     0.020 C 
BRANCH   7   9
HETATM    9  C   UNK N   1      29.234  17.655   6.414  0.00  0.00    -0.050 A 
HETATM   10  C   UNK N   1      29.036  18.133   5.107  0.00  0.00     0.009 A 
HETATM   11  C   UNK N   1      28.226  19.252   4.870  0.00  0.00     0.024 A 
HETATM   12  C   UNK N   1      27.649  19.941   5.940  0.00  0.00     0.034 A 
HETATM   13  C   UNK N   1      27.877  19.511   7.247  0.00  0.00     0.024 A 
HETATM   14 Cl   UNK N   1      26.644  21.344   5.648  0.00  0.00    -0.084 Cl
HETATM   15  C   UNK N   1      28.656  18.376   7.480  0.00  0.00     0.009 A 
ENDBRANCH   7   9
ENDBRANCH   4   7
BRANCH   5  16
HETATM   16  O   UNK N   1      31.835  18.217   8.514  0.00  0.00    -0.358 OA
HETATM   17  H   UNK N   1      30.919  18.117   8.683  0.00  0.00     0.217 HD
ENDBRANCH   5  16
BRANCH   2  18
HETATM   18  N   UNK N   1      34.462  15.042   4.748  0.00  0.00    -0.116 N 
HETATM   19  O   UNK N   1      35.652  14.535   4.998  0.00  0.00    -0.532 OA
HETATM   20  O   UNK N   1      33.936  14.814   3.701  0.00  0.00    -0.532 OA
ENDBRANCH   2  18
BRANCH   6  21
HETATM   21  N   UNK N   1      34.671  18.075   8.564  0.00  0.00    -0.113 N 
HETATM   22  O   UNK N   1      34.978  19.208   8.355  0.00  0.00    -0.532 OA
HETATM   23  O   UNK N   1      35.164  17.465   9.622  0.00  0.00    -0.532 OA
ENDBRANCH   6  21
TORSDOF 5
ENDMDL
MODEL 3
REMARK VINA RESULT:      -6.9      4.797      6.822
REMARK  5 active torsions:
REMARK  status: ('A' for Active; 'I' for Inactive)
REMARK    1  A    between atoms: N_1  and  C_12 
REMARK    2  A    between atoms: N_4  and  C_8 
REMARK    3  A    between atoms: C_10  and  C_21 
REMARK    4  A    between atoms: C_11  and  O_13 
REMARK    5  A    between atoms: C_15  and  C_21 
ROOT
HETATM    1  C   UNK N   1      21.593  19.255   4.072  0.00  0.00     0.075 A 
HETATM    2  C   UNK N   1      22.270  18.504   5.029  0.00  0.00     0.106 A 
HETATM    3  C   UNK N   1      23.659  18.418   4.965  0.00  0.00     0.047 A 
HETATM    4  C   UNK N   1      24.412  19.111   3.998  0.00  0.00    -0.012 A 
HETATM    5  C   UNK N   1      23.707  19.917   3.056  0.00  0.00     0.105 A 
HETATM    6  C   UNK N   1      22.285  19.956   3.075  0.00  0.00     0.138 A 
ENDROOT
BRANCH   4   7
HETATM    7  C   UNK N   1      25.934  18.866   4.039  0.00  0.00     0.050 C 
HETATM    8  C   UNK N   1      26.241  17.612   3.211  0.00  0.00     0.020 C 
BRANCH   7   9
HETATM    9  C   UNK N   1      26.715  18.825   5.360  0.00  0.00    -0.050 A 
HETATM   10  C   UNK N   1      27.032  20.002   6.057  0.00  0.00     0.009 A 
HETATM   11  C   UNK N   1      27.786  19.953   7.238  0.00  0.00     0.024 A 
HETATM   12  C   UNK N   1      28.281  18.732   7.704  0.00  0.00     0.034 A 
HETATM   13  C   UNK N   1      28.019  17.560   6.997  0.00  0.00     0.024 A 
HETATM   14 Cl   UNK N   1      29.231  18.668   9.174  0.00  0.00    -0.084 Cl
HETATM   15  C   UNK N   1      27.239  17.605   5.840  0.00  0.00     0.009 A 
ENDBRANCH   7   9
ENDBRANCH   4   7
BRANCH   5  16
HETATM   16  O   UNK N   1      24.369  20.625   2.130  0.00  0.00    -0.358 OA
HETATM   17  H   UNK N   1      24.481  21.549   2.233  0.00  0.00     0.217 HD
ENDBRANCH   5  16
BRANCH   2  18
HETATM   18  N   UNK N   1      21.554  17.835   6.062  0.00  0.00    -0.116 N 
HETATM   19  O   UNK N   1      21.076  18.516   7.083  0.00  0.00    -0.532 OA
HETATM   20  O   UNK N   1      21.344  16.662   5.990  0.00  0.00    -0.532 OA
ENDBRANCH   2  18
BRANCH   6  21
HETATM   21  N   UNK N   1      21.529  20.666   2.088  0.00  0.00    -0.113 N 
HETATM   22  O   UNK N   1      20.495  21.181   2.386  0.00  0.00    -0.532 OA
HETATM   23  O   UNK N   1      21.905  20.674   0.826  0.00  0.00    -0.532 OA
ENDBRANCH   6  21
TORSDOF 5
ENDMDL
MODEL 4
REMARK VINA RESULT:      -6.9      6.544      8.174
REMARK  5 active torsions:
REMARK  status: ('A' for Active; 'I' for Inactive)
REMARK    1  A    between atoms: N_1  and  C_12 
REMARK    2  A    between atoms: N_4  and  C_8 
REMARK    3  A    between atoms: C_10  and  C_21 
REMARK    4  A    between atoms: C_11  and  O_13 
REMARK    5  A    between atoms: C_15  and  C_21 
ROOT
HETATM    1  C   UNK N   1      29.604  17.109   7.211  0.00  0.00     0.075 A 
HETATM    2  C   UNK N   1      28.770  18.037   7.829  0.00  0.00     0.106 A 
HETATM    3  C   UNK N   1      28.078  18.957   7.043  0.00  0.00     0.047 A 
HETATM    4  C   UNK N   1      28.148  18.946   5.637  0.00  0.00    -0.012 A 
HETATM    5  C   UNK N   1      28.966  17.956   5.017  0.00  0.00     0.105 A 
HETATM    6  C   UNK N   1      29.726  17.057   5.817  0.00  0.00     0.138 A 
ENDROOT
BRANCH   4   7
HETATM    7  C   UNK N   1      27.359  20.063   4.924  0.00  0.00     0.050 C 
HETATM    8  C   UNK N   1      27.375  21.309   5.819  0.00  0.00     0.020 C 
BRANCH   7   9
HETATM    9  C   UNK N   1      25.947  19.835   4.370  0.00  0.00    -0.050 A 
HETATM   10  C   UNK N   1      25.396  20.688   3.400  0.00  0.00     0.009 A 
HETATM   11  C   UNK N   1      24.086  20.494   2.938  0.00  0.00     0.024 A 
HETATM   12  C   UNK N   1      23.293  19.481   3.482  0.00  0.00     0.034 A 
HETATM   13  C   UNK N   1      23.806  18.658   4.482  0.00  0.00     0.024 A 
HETATM   14 Cl   UNK N   1      21.654  19.243   2.913  0.00  0.00    -0.084 Cl
HETATM   15  C   UNK N   1      25.122  18.829   4.917  0.00  0.00     0.009 A 
ENDBRANCH   7   9
ENDBRANCH   4   7
BRANCH   5  16
HETATM   16  O   UNK N   1      29.050  17.874   3.681  0.00  0.00    -0.358 OA
HETATM   17  H   UNK N   1      29.884  17.778   3.266  0.00  0.00     0.217 HD
ENDBRANCH   5  16
BRANCH   2  18
HETATM   18  N   UNK N   1      28.622  18.047   9.245  0.00  0.00    -0.116 N 
HETATM   19  O   UNK N   1      29.430  18.773   9.989  0.00  0.00    -0.532 OA
HETATM   20  O   UNK N   1      27.741  17.432   9.765  0.00  0.00    -0.532 OA
ENDBRANCH   2  18
BRANCH   6  21
HETATM   21  N   UNK N   1      30.640  16.115   5.245  0.00  0.00    -0.113 N 
HETATM   22  O   UNK N   1      30.557  14.958   5.524  0.00  0.00    -0.532 OA
HETATM   23  O   UNK N   1      31.642  16.519   4.492  0.00  0.00    -0.532 OA
ENDBRANCH   6  21
TORSDOF 5
ENDMDL
MODEL 5
REMARK VINA RESULT:      -6.8      9.789     11.494
REMARK  5 active torsions:
REMARK  status: ('A' for Active; 'I' for Inactive)
REMARK    1  A    between atoms: N_1  and  C_12 
REMARK    2  A    between atoms: N_4  and  C_8 
REMARK    3  A    between atoms: C_10  and  C_21 
REMARK    4  A    between atoms: C_11  and  O_13 
REMARK    5  A    between atoms: C_15  and  C_21 
ROOT
HETATM    1  C   UNK N   1      32.259  18.008   8.606  0.00  0.00     0.075 A 
HETATM    2  C   UNK N   1      31.056  17.680   7.984  0.00  0.00     0.106 A 
HETATM    3  C   UNK N   1      31.080  17.165   6.690  0.00  0.00     0.047 A 
HETATM    4  C   UNK N   1      32.282  16.909   6.005  0.00  0.00    -0.012 A 
HETATM    5  C   UNK N   1      33.507  17.202   6.674  0.00  0.00     0.105 A 
HETATM    6  C   UNK N   1      33.488  17.790   7.969  0.00  0.00     0.138 A 
ENDROOT
BRANCH   4   7
HETATM    7  C   UNK N   1      32.127  16.385   4.562  0.00  0.00     0.050 C 
HETATM    8  C   UNK N   1      32.463  17.529   3.597  0.00  0.00     0.020 C 
BRANCH   7   9
HETATM    9  C   UNK N   1      30.858  15.661   4.093  0.00  0.00    -0.050 A 
HETATM   10  C   UNK N   1      30.604  14.326   4.451  0.00  0.00     0.009 A 
HETATM   11  C   UNK N   1      29.464  13.663   3.976  0.00  0.00     0.024 A 
HETATM   12  C   UNK N   1      28.594  14.307   3.093  0.00  0.00     0.034 A 
HETATM   13  C   UNK N   1      28.857  15.614   2.688  0.00  0.00     0.024 A 
HETATM   14 Cl   UNK N   1      27.173  13.478   2.492  0.00  0.00    -0.084 Cl
HETATM   15  C   UNK N   1      29.975  16.286   3.188  0.00  0.00     0.009 A 
ENDBRANCH   7   9
ENDBRANCH   4   7
BRANCH   5  16
HETATM   16  O   UNK N   1      34.686  16.953   6.086  0.00  0.00    -0.358 OA
HETATM   17  H   UNK N   1      34.728  16.789   5.165  0.00  0.00     0.217 HD
ENDBRANCH   5  16
BRANCH   2  18
HETATM   18  N   UNK N   1      29.818  17.865   8.663  0.00  0.00    -0.116 N 
HETATM   19  O   UNK N   1      29.741  18.697   9.681  0.00  0.00    -0.532 OA
HETATM   20  O   UNK N   1      28.834  17.303   8.290  0.00  0.00    -0.532 OA
ENDBRANCH   2  18
BRANCH   6  21
HETATM   21  N   UNK N   1      34.686  18.198   8.639  0.00  0.00    -0.113 N 
HETATM   22  O   UNK N   1      35.306  19.133   8.234  0.00  0.00    -0.532 OA
HETATM   23  O   UNK N   1      35.175  17.493   9.637  0.00  0.00    -0.532 OA
ENDBRANCH   6  21
TORSDOF 5
ENDMDL
MODEL 6
REMARK VINA RESULT:      -6.7      5.046      6.698
REMARK  5 active torsions:
REMARK  status: ('A' for Active; 'I' for Inactive)
REMARK    1  A    between atoms: N_1  and  C_12 
REMARK    2  A    between atoms: N_4  and  C_8 
REMARK    3  A    between atoms: C_10  and  C_21 
REMARK    4  A    between atoms: C_11  and  O_13 
REMARK    5  A    between atoms: C_15  and  C_21 
ROOT
HETATM    1  C   UNK N   1      21.230  19.181   3.322  0.00  0.00     0.075 A 
HETATM    2  C   UNK N   1      21.246  18.059   4.147  0.00  0.00     0.106 A 
HETATM    3  C   UNK N   1      20.851  16.829   3.627  0.00  0.00     0.047 A 
HETATM    4  C   UNK N   1      20.490  16.665   2.276  0.00  0.00    -0.012 A 
HETATM    5  C   UNK N   1      20.528  17.813   1.431  0.00  0.00     0.105 A 
HETATM    6  C   UNK N   1      20.866  19.085   1.973  0.00  0.00     0.138 A 
ENDROOT
BRANCH   4   7
HETATM    7  C   UNK N   1      20.032  15.247   1.878  0.00  0.00     0.050 C 
HETATM    8  C   UNK N   1      19.307  14.622   3.076  0.00  0.00     0.020 C 
BRANCH   7   9
HETATM    9  C   UNK N   1      20.997  14.226   1.259  0.00  0.00    -0.050 A 
HETATM   10  C   UNK N   1      20.603  12.898   1.025  0.00  0.00     0.009 A 
HETATM   11  C   UNK N   1      21.509  11.965   0.503  0.00  0.00     0.024 A 
HETATM   12  C   UNK N   1      22.835  12.333   0.263  0.00  0.00     0.034 A 
HETATM   13  C   UNK N   1      23.256  13.633   0.537  0.00  0.00     0.024 A 
HETATM   14 Cl   UNK N   1      23.972  11.167  -0.381  0.00  0.00    -0.084 Cl
HETATM   15  C   UNK N   1      22.345  14.571   1.025  0.00  0.00     0.009 A 
ENDBRANCH   7   9
ENDBRANCH   4   7
BRANCH   5  16
HETATM   16  O   UNK N   1      20.223  17.716   0.129  0.00  0.00    -0.358 OA
HETATM   17  H   UNK N   1      19.679  18.361  -0.277  0.00  0.00     0.217 HD
ENDBRANCH   5  16
BRANCH   2  18
HETATM   18  N   UNK N   1      21.662  18.167   5.504  0.00  0.00    -0.116 N 
HETATM   19  O   UNK N   1      20.990  18.927   6.344  0.00  0.00    -0.532 OA
HETATM   20  O   UNK N   1      22.595  17.538   5.902  0.00  0.00    -0.532 OA
ENDBRANCH   2  18
BRANCH   6  21
HETATM   21  N   UNK N   1      20.817  20.283   1.190  0.00  0.00    -0.113 N 
HETATM   22  O   UNK N   1      20.884  20.222   0.001  0.00  0.00    -0.532 OA
HETATM   23  O   UNK N   1      20.803  21.467   1.768  0.00  0.00    -0.532 OA
ENDBRANCH   6  21
TORSDOF 5
ENDMDL
MODEL 7
REMARK VINA RESULT:      -6.7      4.292      6.884
REMARK  5 active torsions:
REMARK  status: ('A' for Active; 'I' for Inactive)
REMARK    1  A    between atoms: N_1  and  C_12 
REMARK    2  A    between atoms: N_4  and  C_8 
REMARK    3  A    between atoms: C_10  and  C_21 
REMARK    4  A    between atoms: C_11  and  O_13 
REMARK    5  A    between atoms: C_15  and  C_21 
ROOT
HETATM    1  C   UNK N   1      21.074  17.812   6.824  0.00  0.00     0.075 A 
HETATM    2  C   UNK N   1      21.985  17.108   6.039  0.00  0.00     0.106 A 
HETATM    3  C   UNK N   1      22.224  15.764   6.318  0.00  0.00     0.047 A 
HETATM    4  C   UNK N   1      21.536  15.073   7.332  0.00  0.00    -0.012 A 
HETATM    5  C   UNK N   1      20.569  15.793   8.094  0.00  0.00     0.105 A 
HETATM    6  C   UNK N   1      20.368  17.182   7.857  0.00  0.00     0.138 A 
ENDROOT
BRANCH   4   7
HETATM    7  C   UNK N   1      21.958  13.603   7.539  0.00  0.00     0.050 C 
HETATM    8  C   UNK N   1      20.919  12.705   6.856  0.00  0.00     0.020 C 
BRANCH   7   9
HETATM    9  C   UNK N   1      22.302  13.045   8.926  0.00  0.00    -0.050 A 
HETATM   10  C   UNK N   1      21.296  12.648   9.824  0.00  0.00     0.009 A 
HETATM   11  C   UNK N   1      21.623  12.184  11.105  0.00  0.00     0.024 A 
HETATM   12  C   UNK N   1      22.956  12.164  11.525  0.00  0.00     0.034 A 
HETATM   13  C   UNK N   1      23.962  12.602  10.666  0.00  0.00     0.024 A 
HETATM   14 Cl   UNK N   1      23.367  11.593  13.128  0.00  0.00    -0.084 Cl
HETATM   15  C   UNK N   1      23.639  13.032   9.377  0.00  0.00     0.009 A 
ENDBRANCH   7   9
ENDBRANCH   4   7
BRANCH   5  16
HETATM   16  O   UNK N   1      19.859  15.183   9.053  0.00  0.00    -0.358 OA
HETATM   17  H   UNK N   1      20.189  14.410   9.465  0.00  0.00     0.217 HD
ENDBRANCH   5  16
BRANCH   2  18
HETATM   18  N   UNK N   1      22.660  17.752   4.964  0.00  0.00    -0.116 N 
HETATM   19  O   UNK N   1      23.818  18.344   5.171  0.00  0.00    -0.532 OA
HETATM   20  O   UNK N   1      22.205  17.724   3.861  0.00  0.00    -0.532 OA
ENDBRANCH   2  18
BRANCH   6  21
HETATM   21  N   UNK N   1      19.486  17.972   8.663  0.00  0.00    -0.113 N 
HETATM   22  O   UNK N   1      19.895  18.948   9.213  0.00  0.00    -0.532 OA
HETATM   23  O   UNK N   1      18.250  17.581   8.893  0.00  0.00    -0.532 OA
ENDBRANCH   6  21
TORSDOF 5
ENDMDL
MODEL 8
REMARK VINA RESULT:      -6.7      2.139      2.846
REMARK  5 active torsions:
REMARK  status: ('A' for Active; 'I' for Inactive)
REMARK    1  A    between atoms: N_1  and  C_12 
REMARK    2  A    between atoms: N_4  and  C_8 
REMARK    3  A    between atoms: C_10  and  C_21 
REMARK    4  A    between atoms: C_11  and  O_13 
REMARK    5  A    between atoms: C_15  and  C_21 
ROOT
HETATM    1  C   UNK N   1      20.131  15.789   8.718  0.00  0.00     0.075 A 
HETATM    2  C   UNK N   1      20.743  14.804   7.947  0.00  0.00     0.106 A 
HETATM    3  C   UNK N   1      21.365  15.166   6.754  0.00  0.00     0.047 A 
HETATM    4  C   UNK N   1      21.448  16.504   6.325  0.00  0.00    -0.012 A 
HETATM    5  C   UNK N   1      20.861  17.507   7.151  0.00  0.00     0.105 A 
HETATM    6  C   UNK N   1      20.167  17.137   8.337  0.00  0.00     0.138 A 
ENDROOT
BRANCH   4   7
HETATM    7  C   UNK N   1      22.127  16.723   4.957  0.00  0.00     0.050 C 
HETATM    8  C   UNK N   1      22.218  15.368   4.244  0.00  0.00     0.020 C 
BRANCH   7   9
HETATM    9  C   UNK N   1      23.458  17.476   4.822  0.00  0.00    -0.050 A 
HETATM   10  C   UNK N   1      23.514  18.764   4.265  0.00  0.00     0.009 A 
HETATM   11  C   UNK N   1      24.742  19.421   4.105  0.00  0.00     0.024 A 
HETATM   12  C   UNK N   1      25.933  18.775   4.447  0.00  0.00     0.034 A 
HETATM   13  C   UNK N   1      25.899  17.477   4.954  0.00  0.00     0.024 A 
HETATM   14 Cl   UNK N   1      27.469  19.589   4.240  0.00  0.00    -0.084 Cl
HETATM   15  C   UNK N   1      24.673  16.836   5.145  0.00  0.00     0.009 A 
ENDBRANCH   7   9
ENDBRANCH   4   7
BRANCH   5  16
HETATM   16  O   UNK N   1      20.932  18.802   6.812  0.00  0.00    -0.358 OA
HETATM   17  H   UNK N   1      20.818  19.063   5.920  0.00  0.00     0.217 HD
ENDBRANCH   5  16
BRANCH   2  18
HETATM   18  N   UNK N   1      20.737  13.446   8.373  0.00  0.00    -0.116 N 
HETATM   19  O   UNK N   1      20.540  13.152   9.641  0.00  0.00    -0.532 OA
HETATM   20  O   UNK N   1      20.866  12.563   7.580  0.00  0.00    -0.532 OA
ENDBRANCH   2  18
BRANCH   6  21
HETATM   21  N   UNK N   1      19.473  18.095   9.144  0.00  0.00    -0.113 N 
HETATM   22  O   UNK N   1      20.027  19.089   9.499  0.00  0.00    -0.532 OA
HETATM   23  O   UNK N   1      18.258  17.848   9.590  0.00  0.00    -0.532 OA
ENDBRANCH   6  21
TORSDOF 5
ENDMDL
MODEL 9
REMARK VINA RESULT:      -6.7     18.170     20.073
REMARK  5 active torsions:
REMARK  status: ('A' for Active; 'I' for Inactive)
REMARK    1  A    between atoms: N_1  and  C_12 
REMARK    2  A    between atoms: N_4  and  C_8 
REMARK    3  A    between atoms: C_10  and  C_21 
REMARK    4  A    between atoms: C_11  and  O_13 
REMARK    5  A    between atoms: C_15  and  C_21 
ROOT
HETATM    1  C   UNK N   1      34.978  13.255  16.522  0.00  0.00     0.075 A 
HETATM    2  C   UNK N   1      34.698  11.945  16.140  0.00  0.00     0.106 A 
HETATM    3  C   UNK N   1      34.835  10.921  17.075  0.00  0.00     0.047 A 
HETATM    4  C   UNK N   1      35.191  11.170  18.414  0.00  0.00    -0.012 A 
HETATM    5  C   UNK N   1      35.424  12.522  18.803  0.00  0.00     0.105 A 
HETATM    6  C   UNK N   1      35.351  13.564  17.836  0.00  0.00     0.138 A 
ENDROOT
BRANCH   4   7
HETATM    7  C   UNK N   1      35.345   9.919  19.304  0.00  0.00     0.050 C 
HETATM    8  C   UNK N   1      36.483   9.062  18.735  0.00  0.00     0.020 C 
BRANCH   7   9
HETATM    9  C   UNK N   1      34.150   9.028  19.666  0.00  0.00    -0.050 A 
HETATM   10  C   UNK N   1      33.224   9.413  20.650  0.00  0.00     0.009 A 
HETATM   11  C   UNK N   1      32.164   8.567  21.004  0.00  0.00     0.024 A 
HETATM   12  C   UNK N   1      32.049   7.303  20.420  0.00  0.00     0.034 A 
HETATM   13  C   UNK N   1      32.988   6.885  19.479  0.00  0.00     0.024 A 
HETATM   14 Cl   UNK N   1      30.730   6.241  20.866  0.00  0.00    -0.084 Cl
HETATM   15  C   UNK N   1      34.025   7.740  19.102  0.00  0.00     0.009 A 
ENDBRANCH   7   9
ENDBRANCH   4   7
BRANCH   5  16
HETATM   16  O   UNK N   1      35.737  12.826  20.070  0.00  0.00    -0.358 OA
HETATM   17  H   UNK N   1      35.061  12.977  20.700  0.00  0.00     0.217 HD
ENDBRANCH   5  16
BRANCH   2  18
HETATM   18  N   UNK N   1      34.276  11.654  14.811  0.00  0.00    -0.116 N 
HETATM   19  O   UNK N   1      33.715  10.495  14.535  0.00  0.00    -0.532 OA
HETATM   20  O   UNK N   1      34.388  12.472  13.949  0.00  0.00    -0.532 OA
ENDBRANCH   2  18
BRANCH   6  21
HETATM   21  N   UNK N   1      35.677  14.921  18.154  0.00  0.00    -0.113 N 
HETATM   22  O   UNK N   1      35.014  15.526  18.939  0.00  0.00    -0.532 OA
HETATM   23  O   UNK N   1      36.639  15.552  17.513  0.00  0.00    -0.532 OA
ENDBRANCH   6  21
TORSDOF 5
ENDMDL
