MODEL 1
REMARK VINA RESULT:      -5.1      0.000      0.000
REMARK  5 active torsions:
REMARK  status: ('A' for Active; 'I' for Inactive)
REMARK    1  A    between atoms: C_1  and  C_5 
REMARK    2  A    between atoms: C_1  and  O_16 
REMARK    3  A    between atoms: C_2  and  C_11 
REMARK    4  A    between atoms: C_2  and  O_13 
REMARK    5  A    between atoms: C_3  and  N_7 
ROOT
HETATM    1  C   UNK N   1      30.293  17.013   4.022  0.00  0.00     0.063 A 
HETATM    2  C   UNK N   1      31.598  16.878   4.500  0.00  0.00     0.056 A 
HETATM    3  C   UNK N   1      31.887  17.095   5.880  0.00  0.00     0.075 A 
HETATM    4  C   UNK N   1      30.809  17.454   6.761  0.00  0.00     0.047 A 
HETATM    5 Br   UNK N   1      31.167  17.766   8.652  0.00  0.00    -0.049 Br
HETATM    6 Br   UNK N   1      32.934  16.388   3.184  0.00  0.00    -0.047 Br
HETATM    7 Br   UNK N   1      27.493  17.500   4.033  0.00  0.00    -0.047 Br
HETATM    8  C   UNK N   1      29.469  17.590   6.257  0.00  0.00     0.075 A 
HETATM    9  C   UNK N   1      29.239  17.360   4.868  0.00  0.00     0.056 A 
ENDROOT
BRANCH   3  10
HETATM   10  C   UNK N   1      33.309  16.942   6.394  0.00  0.00     0.179 C 
HETATM   11  O   UNK N   1      33.700  15.895   6.877  0.00  0.00    -0.646 OA
BRANCH  10  12
HETATM   12  O   UNK N   1      34.189  17.954   6.332  0.00  0.00    -0.773 OA
HETATM   13  H   UNK N   1      34.383  18.357   5.508  0.00  0.00     0.167 HD
ENDBRANCH  10  12
ENDBRANCH   3  10
BRANCH   1  14
HETATM   14  N   UNK N   1      30.033  16.790   2.648  0.00  0.00    -0.397 N 
HETATM   15  H   UNK N   1      30.717  17.009   1.976  0.00  0.00     0.156 HD
HETATM   16  H   UNK N   1      29.166  16.416   2.366  0.00  0.00     0.156 HD
ENDBRANCH   1  14
BRANCH   8  17
HETATM   17  C   UNK N   1      28.311  17.969   7.166  0.00  0.00     0.179 C 
HETATM   18  O   UNK N   1      28.063  19.134   7.407  0.00  0.00    -0.646 OA
BRANCH  17  19
HETATM   19  O   UNK N   1      27.522  17.042   7.735  0.00  0.00    -0.773 OA
HETATM   20  H   UNK N   1      27.789  16.624   8.530  0.00  0.00     0.167 HD
ENDBRANCH  17  19
ENDBRANCH   8  17
TORSDOF 5
ENDMDL
MODEL 2
REMARK VINA RESULT:      -5.1      0.048      4.474
REMARK  5 active torsions:
REMARK  status: ('A' for Active; 'I' for Inactive)
REMARK    1  A    between atoms: C_1  and  C_5 
REMARK    2  A    between atoms: C_1  and  O_16 
REMARK    3  A    between atoms: C_2  and  C_11 
REMARK    4  A    between atoms: C_2  and  O_13 
REMARK    5  A    between atoms: C_3  and  N_7 
ROOT
HETATM    1  C   UNK N   1      30.268  17.016   4.041  0.00  0.00     0.063 A 
HETATM    2  C   UNK N   1      29.221  17.353   4.901  0.00  0.00     0.056 A 
HETATM    3  C   UNK N   1      29.470  17.583   6.287  0.00  0.00     0.075 A 
HETATM    4  C   UNK N   1      30.818  17.457   6.773  0.00  0.00     0.047 A 
HETATM    5 Br   UNK N   1      31.196  17.756   8.663  0.00  0.00    -0.049 Br
HETATM    6 Br   UNK N   1      27.467  17.483   4.087  0.00  0.00    -0.047 Br
HETATM    7 Br   UNK N   1      32.906  16.422   3.167  0.00  0.00    -0.047 Br
HETATM    8  C   UNK N   1      31.888  17.110   5.878  0.00  0.00     0.075 A 
HETATM    9  C   UNK N   1      31.579  16.894   4.502  0.00  0.00     0.056 A 
ENDROOT
BRANCH   3  10
HETATM   10  C   UNK N   1      28.326  17.953   7.216  0.00  0.00     0.179 C 
HETATM   11  O   UNK N   1      28.095  19.113   7.506  0.00  0.00    -0.646 OA
BRANCH  10  12
HETATM   12  O   UNK N   1      27.527  17.017   7.750  0.00  0.00    -0.773 OA
HETATM   13  H   UNK N   1      27.843  16.143   7.869  0.00  0.00     0.167 HD
ENDBRANCH  10  12
ENDBRANCH   3  10
BRANCH   1  14
HETATM   14  N   UNK N   1      29.993  16.797   2.670  0.00  0.00    -0.397 N 
HETATM   15  H   UNK N   1      30.442  16.065   2.189  0.00  0.00     0.156 HD
HETATM   16  H   UNK N   1      29.353  17.377   2.197  0.00  0.00     0.156 HD
ENDBRANCH   1  14
BRANCH   8  17
HETATM   17  C   UNK N   1      33.321  16.972   6.366  0.00  0.00     0.179 C 
HETATM   18  O   UNK N   1      33.726  15.919   6.820  0.00  0.00    -0.646 OA
BRANCH  17  19
HETATM   19  O   UNK N   1      34.190  17.994   6.316  0.00  0.00    -0.773 OA
HETATM   20  H   UNK N   1      34.339  18.520   7.078  0.00  0.00     0.167 HD
ENDBRANCH  17  19
ENDBRANCH   8  17
TORSDOF 5
ENDMDL
MODEL 3
REMARK VINA RESULT:      -4.9      2.667      4.000
REMARK  5 active torsions:
REMARK  status: ('A' for Active; 'I' for Inactive)
REMARK    1  A    between atoms: C_1  and  C_5 
REMARK    2  A    between atoms: C_1  and  O_16 
REMARK    3  A    between atoms: C_2  and  C_11 
REMARK    4  A    between atoms: C_2  and  O_13 
REMARK    5  A    between atoms: C_3  and  N_7 
ROOT
HETATM    1  C   UNK N   1      29.010  17.557   6.762  0.00  0.00     0.063 A 
HETATM    2  C   UNK N   1      30.056  17.708   7.675  0.00  0.00     0.056 A 
HETATM    3  C   UNK N   1      31.397  17.411   7.292  0.00  0.00     0.075 A 
HETATM    4  C   UNK N   1      31.645  16.955   5.951  0.00  0.00     0.047 A 
HETATM    5 Br   UNK N   1      33.465  16.533   5.394  0.00  0.00    -0.049 Br
HETATM    6 Br   UNK N   1      29.552  18.333   9.440  0.00  0.00    -0.047 Br
HETATM    7 Br   UNK N   1      27.671  16.969   4.325  0.00  0.00    -0.047 Br
HETATM    8  C   UNK N   1      30.561  16.804   5.020  0.00  0.00     0.075 A 
HETATM    9  C   UNK N   1      29.239  17.117   5.457  0.00  0.00     0.056 A 
ENDROOT
BRANCH   3  10
HETATM   10  C   UNK N   1      32.530  17.581   8.291  0.00  0.00     0.179 C 
HETATM   11  O   UNK N   1      33.251  18.562   8.270  0.00  0.00    -0.646 OA
BRANCH  10  12
HETATM   12  O   UNK N   1      32.776  16.659   9.235  0.00  0.00    -0.773 OA
HETATM   13  H   UNK N   1      33.155  16.915  10.053  0.00  0.00     0.167 HD
ENDBRANCH  10  12
ENDBRANCH   3  10
BRANCH   1  14
HETATM   14  N   UNK N   1      27.688  17.861   7.167  0.00  0.00    -0.397 N 
HETATM   15  H   UNK N   1      26.926  17.405   6.743  0.00  0.00     0.156 HD
HETATM   16  H   UNK N   1      27.531  18.530   7.872  0.00  0.00     0.156 HD
ENDBRANCH   1  14
BRANCH   8  17
HETATM   17  C   UNK N   1      30.795  16.324   3.596  0.00  0.00     0.179 C 
HETATM   18  O   UNK N   1      30.673  15.150   3.306  0.00  0.00    -0.646 OA
BRANCH  17  19
HETATM   19  O   UNK N   1      31.142  17.167   2.610  0.00  0.00    -0.773 OA
HETATM   20  H   UNK N   1      30.486  17.679   2.179  0.00  0.00     0.167 HD
ENDBRANCH  17  19
ENDBRANCH   8  17
TORSDOF 5
ENDMDL
MODEL 4
REMARK VINA RESULT:      -4.9      2.668      4.191
REMARK  5 active torsions:
REMARK  status: ('A' for Active; 'I' for Inactive)
REMARK    1  A    between atoms: C_1  and  C_5 
REMARK    2  A    between atoms: C_1  and  O_16 
REMARK    3  A    between atoms: C_2  and  C_11 
REMARK    4  A    between atoms: C_2  and  O_13 
REMARK    5  A    between atoms: C_3  and  N_7 
ROOT
HETATM    1  C   UNK N   1      29.002  17.550   6.772  0.00  0.00     0.063 A 
HETATM    2  C   UNK N   1      29.220  17.105   5.467  0.00  0.00     0.056 A 
HETATM    3  C   UNK N   1      30.539  16.790   5.022  0.00  0.00     0.075 A 
HETATM    4  C   UNK N   1      31.630  16.943   5.946  0.00  0.00     0.047 A 
HETATM    5 Br   UNK N   1      33.448  16.530   5.372  0.00  0.00    -0.049 Br
HETATM    6 Br   UNK N   1      27.642  16.952   4.351  0.00  0.00    -0.047 Br
HETATM    7 Br   UNK N   1      29.565  18.326   9.448  0.00  0.00    -0.047 Br
HETATM    8  C   UNK N   1      31.393  17.402   7.287  0.00  0.00     0.075 A 
HETATM    9  C   UNK N   1      30.053  17.700   7.677  0.00  0.00     0.056 A 
ENDROOT
BRANCH   3  10
HETATM   10  C   UNK N   1      30.768  16.303   3.601  0.00  0.00     0.179 C 
HETATM   11  O   UNK N   1      30.653  15.126   3.309  0.00  0.00    -0.646 OA
BRANCH  10  12
HETATM   12  O   UNK N   1      31.103  17.150   2.616  0.00  0.00    -0.773 OA
HETATM   13  H   UNK N   1      31.759  17.803   2.762  0.00  0.00     0.167 HD
ENDBRANCH  10  12
ENDBRANCH   3  10
BRANCH   1  14
HETATM   14  N   UNK N   1      27.683  17.853   7.188  0.00  0.00    -0.397 N 
HETATM   15  H   UNK N   1      26.914  17.478   6.701  0.00  0.00     0.156 HD
HETATM   16  H   UNK N   1      27.535  18.439   7.966  0.00  0.00     0.156 HD
ENDBRANCH   1  14
BRANCH   8  17
HETATM   17  C   UNK N   1      32.529  17.571   8.283  0.00  0.00     0.179 C 
HETATM   18  O   UNK N   1      33.249  18.551   8.247  0.00  0.00    -0.646 OA
BRANCH  17  19
HETATM   19  O   UNK N   1      32.782  16.658   9.235  0.00  0.00    -0.773 OA
HETATM   20  H   UNK N   1      33.236  16.909  10.016  0.00  0.00     0.167 HD
ENDBRANCH  17  19
ENDBRANCH   8  17
TORSDOF 5
ENDMDL
MODEL 5
REMARK VINA RESULT:      -4.8      2.501      5.444
REMARK  5 active torsions:
REMARK  status: ('A' for Active; 'I' for Inactive)
REMARK    1  A    between atoms: C_1  and  C_5 
REMARK    2  A    between atoms: C_1  and  O_16 
REMARK    3  A    between atoms: C_2  and  C_11 
REMARK    4  A    between atoms: C_2  and  O_13 
REMARK    5  A    between atoms: C_3  and  N_7 
ROOT
HETATM    1  C   UNK N   1      31.455  17.448   7.666  0.00  0.00     0.063 A 
HETATM    2  C   UNK N   1      30.067  17.534   7.794  0.00  0.00     0.056 A 
HETATM    3  C   UNK N   1      29.223  17.323   6.664  0.00  0.00     0.075 A 
HETATM    4  C   UNK N   1      29.834  17.022   5.397  0.00  0.00     0.047 A 
HETATM    5 Br   UNK N   1      28.712  16.734   3.827  0.00  0.00    -0.049 Br
HETATM    6 Br   UNK N   1      29.407  17.946   9.570  0.00  0.00    -0.047 Br
HETATM    7 Br   UNK N   1      33.996  17.072   6.450  0.00  0.00    -0.047 Br
HETATM    8  C   UNK N   1      31.263  16.935   5.277  0.00  0.00     0.075 A 
HETATM    9  C   UNK N   1      32.058  17.155   6.442  0.00  0.00     0.056 A 
ENDROOT
BRANCH   3  10
HETATM   10  C   UNK N   1      27.714  17.414   6.812  0.00  0.00     0.179 C 
HETATM   11  O   UNK N   1      27.044  16.438   7.095  0.00  0.00    -0.646 OA
BRANCH  10  12
HETATM   12  O   UNK N   1      27.063  18.575   6.639  0.00  0.00    -0.773 OA
HETATM   13  H   UNK N   1      26.629  18.982   7.364  0.00  0.00     0.167 HD
ENDBRANCH  10  12
ENDBRANCH   3  10
BRANCH   1  14
HETATM   14  N   UNK N   1      32.270  17.659   8.805  0.00  0.00    -0.397 N 
HETATM   15  H   UNK N   1      31.857  17.783   9.689  0.00  0.00     0.156 HD
HETATM   16  H   UNK N   1      33.250  17.683   8.711  0.00  0.00     0.156 HD
ENDBRANCH   1  14
BRANCH   8  17
HETATM   17  C   UNK N   1      31.934  16.618   3.950  0.00  0.00     0.179 C 
HETATM   18  O   UNK N   1      32.295  15.487   3.689  0.00  0.00    -0.646 OA
BRANCH  17  19
HETATM   19  O   UNK N   1      32.152  17.563   3.021  0.00  0.00    -0.773 OA
HETATM   20  H   UNK N   1      31.577  18.300   2.958  0.00  0.00     0.167 HD
ENDBRANCH  17  19
ENDBRANCH   8  17
TORSDOF 5
ENDMDL
MODEL 6
REMARK VINA RESULT:      -4.7      2.559      3.561
REMARK  5 active torsions:
REMARK  status: ('A' for Active; 'I' for Inactive)
REMARK    1  A    between atoms: C_1  and  C_5 
REMARK    2  A    between atoms: C_1  and  O_16 
REMARK    3  A    between atoms: C_2  and  C_11 
REMARK    4  A    between atoms: C_2  and  O_13 
REMARK    5  A    between atoms: C_3  and  N_7 
ROOT
HETATM    1  C   UNK N   1      31.167  17.395   7.594  0.00  0.00     0.063 A 
HETATM    2  C   UNK N   1      31.843  17.147   6.397  0.00  0.00     0.056 A 
HETATM    3  C   UNK N   1      31.116  16.868   5.202  0.00  0.00     0.075 A 
HETATM    4  C   UNK N   1      29.680  16.847   5.260  0.00  0.00     0.047 A 
HETATM    5 Br   UNK N   1      28.652  16.461   3.648  0.00  0.00    -0.049 Br
HETATM    6 Br   UNK N   1      33.778  17.214   6.490  0.00  0.00    -0.047 Br
HETATM    7 Br   UNK N   1      29.005  17.748   9.404  0.00  0.00    -0.047 Br
HETATM    8  C   UNK N   1      28.995  17.104   6.497  0.00  0.00     0.075 A 
HETATM    9  C   UNK N   1      29.774  17.379   7.661  0.00  0.00     0.056 A 
ENDROOT
BRANCH   3  10
HETATM   10  C   UNK N   1      31.858  16.602   3.902  0.00  0.00     0.179 C 
HETATM   11  O   UNK N   1      32.306  15.500   3.642  0.00  0.00    -0.646 OA
BRANCH  10  12
HETATM   12  O   UNK N   1      32.046  17.571   2.993  0.00  0.00    -0.773 OA
HETATM   13  H   UNK N   1      32.333  17.353   2.128  0.00  0.00     0.167 HD
ENDBRANCH  10  12
ENDBRANCH   3  10
BRANCH   1  14
HETATM   14  N   UNK N   1      31.913  17.673   8.765  0.00  0.00    -0.397 N 
HETATM   15  H   UNK N   1      32.877  17.860   8.702  0.00  0.00     0.156 HD
HETATM   16  H   UNK N   1      31.467  17.676   9.643  0.00  0.00     0.156 HD
ENDBRANCH   1  14
BRANCH   8  17
HETATM   17  C   UNK N   1      27.477  17.089   6.586  0.00  0.00     0.179 C 
HETATM   18  O   UNK N   1      26.883  16.086   6.932  0.00  0.00    -0.646 OA
BRANCH  17  19
HETATM   19  O   UNK N   1      26.737  18.169   6.290  0.00  0.00    -0.773 OA
HETATM   20  H   UNK N   1      27.073  18.821   5.705  0.00  0.00     0.167 HD
ENDBRANCH  17  19
ENDBRANCH   8  17
TORSDOF 5
ENDMDL
MODEL 7
REMARK VINA RESULT:      -4.6      2.027      4.366
REMARK  5 active torsions:
REMARK  status: ('A' for Active; 'I' for Inactive)
REMARK    1  A    between atoms: C_1  and  C_5 
REMARK    2  A    between atoms: C_1  and  O_16 
REMARK    3  A    between atoms: C_2  and  C_11 
REMARK    4  A    between atoms: C_2  and  O_13 
REMARK    5  A    between atoms: C_3  and  N_7 
ROOT
HETATM    1  C   UNK N   1      28.911  17.912   5.049  0.00  0.00     0.063 A 
HETATM    2  C   UNK N   1      28.585  18.417   6.309  0.00  0.00     0.056 A 
HETATM    3  C   UNK N   1      29.224  17.907   7.478  0.00  0.00     0.075 A 
HETATM    4  C   UNK N   1      30.204  16.865   7.328  0.00  0.00     0.047 A 
HETATM    5 Br   UNK N   1      31.092  16.138   8.904  0.00  0.00    -0.049 Br
HETATM    6 Br   UNK N   1      27.246  19.818   6.338  0.00  0.00    -0.047 Br
HETATM    7 Br   UNK N   1      30.190  16.326   3.067  0.00  0.00    -0.047 Br
HETATM    8  C   UNK N   1      30.531  16.354   6.025  0.00  0.00     0.075 A 
HETATM    9  C   UNK N   1      29.862  16.903   4.890  0.00  0.00     0.056 A 
ENDROOT
BRANCH   3  10
HETATM   10  C   UNK N   1      28.867  18.463   8.847  0.00  0.00     0.179 C 
HETATM   11  O   UNK N   1      29.664  19.119   9.492  0.00  0.00    -0.646 OA
BRANCH  10  12
HETATM   12  O   UNK N   1      27.658  18.256   9.393  0.00  0.00    -0.773 OA
HETATM   13  H   UNK N   1      27.052  18.966   9.473  0.00  0.00     0.167 HD
ENDBRANCH  10  12
ENDBRANCH   3  10
BRANCH   1  14
HETATM   14  N   UNK N   1      28.264  18.438   3.904  0.00  0.00    -0.397 N 
HETATM   15  H   UNK N   1      28.280  19.407   3.732  0.00  0.00     0.156 HD
HETATM   16  H   UNK N   1      27.797  17.834   3.282  0.00  0.00     0.156 HD
ENDBRANCH   1  14
BRANCH   8  17
HETATM   17  C   UNK N   1      31.564  15.254   5.837  0.00  0.00     0.179 C 
HETATM   18  O   UNK N   1      32.722  15.524   5.580  0.00  0.00    -0.646 OA
BRANCH  17  19
HETATM   19  O   UNK N   1      31.246  13.954   5.947  0.00  0.00    -0.773 OA
HETATM   20  H   UNK N   1      30.923  13.487   5.201  0.00  0.00     0.167 HD
ENDBRANCH  17  19
ENDBRANCH   8  17
TORSDOF 5
ENDMDL
MODEL 8
REMARK VINA RESULT:      -4.6     11.921     14.326
REMARK  5 active torsions:
REMARK  status: ('A' for Active; 'I' for Inactive)
REMARK    1  A    between atoms: C_1  and  C_5 
REMARK    2  A    between atoms: C_1  and  O_16 
REMARK    3  A    between atoms: C_2  and  C_11 
REMARK    4  A    between atoms: C_2  and  O_13 
REMARK    5  A    between atoms: C_3  and  N_7 
ROOT
HETATM    1  C   UNK N   1      41.573  22.884   0.644  0.00  0.00     0.063 A 
HETATM    2  C   UNK N   1      41.358  21.719   1.382  0.00  0.00     0.056 A 
HETATM    3  C   UNK N   1      42.309  21.296   2.358  0.00  0.00     0.075 A 
HETATM    4  C   UNK N   1      43.488  22.093   2.559  0.00  0.00     0.047 A 
HETATM    5 Br   UNK N   1      44.815  21.543   3.878  0.00  0.00    -0.049 Br
HETATM    6 Br   UNK N   1      39.719  20.761   0.990  0.00  0.00    -0.047 Br
HETATM    7 Br   UNK N   1      42.846  25.252  -0.278  0.00  0.00    -0.047 Br
HETATM    8  C   UNK N   1      43.700  23.291   1.793  0.00  0.00     0.075 A 
HETATM    9  C   UNK N   1      42.713  23.667   0.832  0.00  0.00     0.056 A 
ENDROOT
BRANCH   3  10
HETATM   10  C   UNK N   1      42.066  20.028   3.160  0.00  0.00     0.179 C 
HETATM   11  O   UNK N   1      41.288  20.010   4.096  0.00  0.00    -0.646 OA
BRANCH  10  12
HETATM   12  O   UNK N   1      42.697  18.881   2.865  0.00  0.00    -0.773 OA
HETATM   13  H   UNK N   1      43.366  18.869   2.209  0.00  0.00     0.167 HD
ENDBRANCH  10  12
ENDBRANCH   3  10
BRANCH   1  14
HETATM   14  N   UNK N   1      40.612  23.283  -0.316  0.00  0.00    -0.397 N 
HETATM   15  H   UNK N   1      40.459  24.239  -0.492  0.00  0.00     0.156 HD
HETATM   16  H   UNK N   1      40.095  22.603  -0.807  0.00  0.00     0.156 HD
ENDBRANCH   1  14
BRANCH   8  17
HETATM   17  C   UNK N   1      44.937  24.153   1.986  0.00  0.00     0.179 C 
HETATM   18  O   UNK N   1      44.977  24.998   2.860  0.00  0.00    -0.646 OA
BRANCH  17  19
HETATM   19  O   UNK N   1      46.025  24.019   1.211  0.00  0.00    -0.773 OA
HETATM   20  H   UNK N   1      45.961  23.578   0.386  0.00  0.00     0.167 HD
ENDBRANCH  17  19
ENDBRANCH   8  17
TORSDOF 5
ENDMDL
MODEL 9
REMARK VINA RESULT:      -4.6      2.615      5.465
REMARK  5 active torsions:
REMARK  status: ('A' for Active; 'I' for Inactive)
REMARK    1  A    between atoms: C_1  and  C_5 
REMARK    2  A    between atoms: C_1  and  O_16 
REMARK    3  A    between atoms: C_2  and  C_11 
REMARK    4  A    between atoms: C_2  and  O_13 
REMARK    5  A    between atoms: C_3  and  N_7 
ROOT
HETATM    1  C   UNK N   1      30.891  16.866   8.061  0.00  0.00     0.063 A 
HETATM    2  C   UNK N   1      29.926  17.284   7.142  0.00  0.00     0.056 A 
HETATM    3  C   UNK N   1      30.212  17.284   5.745  0.00  0.00     0.075 A 
HETATM    4  C   UNK N   1      31.511  16.846   5.309  0.00  0.00     0.047 A 
HETATM    5 Br   UNK N   1      31.941  16.839   3.407  0.00  0.00    -0.049 Br
HETATM    6 Br   UNK N   1      28.229  17.842   7.894  0.00  0.00    -0.047 Br
HETATM    7 Br   UNK N   1      33.365  15.889   9.062  0.00  0.00    -0.047 Br
HETATM    8  C   UNK N   1      32.496  16.417   6.264  0.00  0.00     0.075 A 
HETATM    9  C   UNK N   1      32.153  16.437   7.650  0.00  0.00     0.056 A 
ENDROOT
BRANCH   3  10
HETATM   10  C   UNK N   1      29.156  17.737   4.750  0.00  0.00     0.179 C 
HETATM   11  O   UNK N   1      28.406  16.942   4.216  0.00  0.00    -0.646 OA
BRANCH  10  12
HETATM   12  O   UNK N   1      29.010  19.032   4.427  0.00  0.00    -0.773 OA
HETATM   13  H   UNK N   1      28.575  19.616   5.016  0.00  0.00     0.167 HD
ENDBRANCH  10  12
ENDBRANCH   3  10
BRANCH   1  14
HETATM   14  N   UNK N   1      30.580  16.873   9.443  0.00  0.00    -0.397 N 
HETATM   15  H   UNK N   1      31.169  16.412  10.082  0.00  0.00     0.156 HD
HETATM   16  H   UNK N   1      29.773  17.339   9.763  0.00  0.00     0.156 HD
ENDBRANCH   1  14
BRANCH   8  17
HETATM   17  C   UNK N   1      33.875  15.949   5.830  0.00  0.00     0.179 C 
HETATM   18  O   UNK N   1      34.835  16.693   5.895  0.00  0.00    -0.646 OA
BRANCH  17  19
HETATM   19  O   UNK N   1      34.090  14.708   5.363  0.00  0.00    -0.773 OA
HETATM   20  H   UNK N   1      34.679  14.573   4.646  0.00  0.00     0.167 HD
ENDBRANCH  17  19
ENDBRANCH   8  17
TORSDOF 5
ENDMDL
