REMARK  5 active torsions:
REMARK  status: ('A' for Active; 'I' for Inactive)
REMARK    1  A    between atoms: C_1  and  C_5 
REMARK    2  A    between atoms: C_1  and  O_16 
REMARK    3  A    between atoms: C_2  and  C_11 
REMARK    4  A    between atoms: C_2  and  O_13 
REMARK    5  A    between atoms: C_3  and  N_7 
ROOT
HETATM    1  C   UNK N   1       1.628   1.181   0.004  0.00  0.00     0.063 A 
HETATM    2  C   UNK N   1       1.662  -0.215   0.003  0.00  0.00     0.056 A 
HETATM    3  C   UNK N   1       0.450  -0.967  -0.000  0.00  0.00     0.075 A 
HETATM    4  C   UNK N   1      -0.800  -0.256   0.000  0.00  0.00     0.047 A 
HETATM    5 Br   UNK N   1      -2.478  -1.250   0.004  0.00  0.00    -0.049 Br
HETATM    6 Br   UNK N   1       3.427  -1.017   0.002  0.00  0.00    -0.047 Br
HETATM    7 Br   UNK N   1       0.563   3.816   0.001  0.00  0.00    -0.047 Br
HETATM    8  C   UNK N   1      -0.823   1.181   0.001  0.00  0.00     0.075 A 
HETATM    9  C   UNK N   1       0.421   1.881   0.002  0.00  0.00     0.056 A 
ENDROOT
BRANCH   3  10
HETATM   10  C   UNK N   1       0.495  -2.486  -0.005  0.00  0.00     0.179 C 
HETATM   11  O   UNK N   1      -0.525  -3.150  -0.035  0.00  0.00    -0.646 OA
BRANCH  10  12
HETATM   12  O   UNK N   1       1.660  -3.152   0.020  0.00  0.00    -0.773 OA
HETATM   13  H   UNK N   1       1.664  -4.089   0.037  0.00  0.00     0.167 HD
ENDBRANCH  10  12
ENDBRANCH   3  10
BRANCH   1  14
HETATM   14  N   UNK N   1       2.846   1.903   0.004  0.00  0.00    -0.397 N 
HETATM   15  H   UNK N   1       3.704   1.421   0.005  0.00  0.00     0.156 HD
HETATM   16  H   UNK N   1       2.834   2.888   0.004  0.00  0.00     0.156 HD
ENDBRANCH   1  14
BRANCH   8  17
HETATM   17  C   UNK N   1      -2.130   1.957   0.000  0.00  0.00     0.179 C 
HETATM   18  O   UNK N   1      -2.133   3.173   0.000  0.00  0.00    -0.646 OA
BRANCH  17  19
HETATM   19  O   UNK N   1      -3.323   1.340  -0.001  0.00  0.00    -0.773 OA
HETATM   20  H   UNK N   1      -4.112   1.846  -0.001  0.00  0.00     0.167 HD
ENDBRANCH  17  19
ENDBRANCH   8  17
TORSDOF 5
