MODEL 1
REMARK VINA RESULT:      -6.2      0.000      0.000
REMARK  8 active torsions:
REMARK  status: ('A' for Active; 'I' for Inactive)
REMARK       I    between atoms: C_2  and  N_3 
REMARK    1  A    between atoms: C_2  and  C_18 
REMARK    2  A    between atoms: C_4  and  N_3 
REMARK    3  A    between atoms: C_4  and  C_5 
REMARK    4  A    between atoms: C_4  and  C_7 
REMARK    5  A    between atoms: C_5  and  O_6 
REMARK    6  A    between atoms: C_7  and  O_8 
REMARK    7  A    between atoms: C_7  and  C_9 
REMARK    8  A    between atoms: C_12  and  N_13 
ROOT
HETATM    1  C   UNK N   1      30.084  16.365   5.808  0.00  0.00     0.176 C 
ENDROOT
BRANCH   1   2
HETATM    2  C   UNK N   1      29.440  17.324   4.764  0.00  0.00     0.141 C 
BRANCH   2   3
HETATM    3  N   UNK N   1      28.211  17.930   5.252  0.00  0.00    -0.350 N 
HETATM    4  C   UNK N   1      27.836  19.227   5.085  0.00  0.00     0.243 C 
HETATM    5  O   UNK N   1      28.564  20.030   4.522  0.00  0.00    -0.271 OA
HETATM    6  H   UNK N   1      27.593  17.348   5.749  0.00  0.00     0.163 HD
BRANCH   4   7
HETATM    7  C   UNK N   1      26.510  19.671   5.600  0.00  0.00     0.221 C 
HETATM    8 Br   UNK N   1      26.648  21.406   6.451  0.00  0.00    -0.069 Br
HETATM    9 Br   UNK N   1      25.244  19.756   4.138  0.00  0.00    -0.069 Br
ENDBRANCH   4   7
ENDBRANCH   2   3
BRANCH   2  10
HETATM   10  C   UNK N   1      29.283  16.767   3.334  0.00  0.00     0.192 C 
BRANCH  10  11
HETATM   11  O   UNK N   1      30.459  16.847   2.586  0.00  0.00    -0.399 OA
HETATM   12  H   UNK N   1      31.175  16.769   1.936  0.00  0.00     0.209 HD
ENDBRANCH  10  11
ENDBRANCH   2  10
ENDBRANCH   1   2
BRANCH   1  13
HETATM   13  O   UNK N   1      30.496  15.160   5.233  0.00  0.00    -0.389 OA
HETATM   14  H   UNK N   1      30.439  14.359   4.688  0.00  0.00     0.210 HD
ENDBRANCH   1  13
BRANCH   1  15
HETATM   15  C   UNK N   1      31.253  17.051   6.466  0.00  0.00    -0.028 A 
HETATM   16  C   UNK N   1      32.485  17.141   5.804  0.00  0.00     0.012 A 
HETATM   17  C   UNK N   1      33.624  17.559   6.500  0.00  0.00     0.037 A 
HETATM   18  C   UNK N   1      33.543  17.874   7.869  0.00  0.00     0.102 A 
HETATM   19  C   UNK N   1      32.304  17.814   8.514  0.00  0.00     0.037 A 
HETATM   20  C   UNK N   1      31.173  17.397   7.822  0.00  0.00     0.012 A 
BRANCH  18  21
HETATM   21  N   UNK N   1      34.710  18.197   8.612  0.00  0.00    -0.116 N 
HETATM   22  O   UNK N   1      35.320  19.348   8.411  0.00  0.00    -0.532 OA
HETATM   23  O   UNK N   1      35.087  17.478   9.487  0.00  0.00    -0.532 OA
ENDBRANCH  18  21
ENDBRANCH   1  15
TORSDOF 8
ENDMDL
MODEL 2
REMARK VINA RESULT:      -6.1      6.890     10.005
REMARK  8 active torsions:
REMARK  status: ('A' for Active; 'I' for Inactive)
REMARK       I    between atoms: C_2  and  N_3 
REMARK    1  A    between atoms: C_2  and  C_18 
REMARK    2  A    between atoms: C_4  and  N_3 
REMARK    3  A    between atoms: C_4  and  C_5 
REMARK    4  A    between atoms: C_4  and  C_7 
REMARK    5  A    between atoms: C_5  and  O_6 
REMARK    6  A    between atoms: C_7  and  O_8 
REMARK    7  A    between atoms: C_7  and  C_9 
REMARK    8  A    between atoms: C_12  and  N_13 
ROOT
HETATM    1  C   UNK N   1      36.095  15.732  11.419  0.00  0.00     0.176 C 
ENDROOT
BRANCH   1   2
HETATM    2  C   UNK N   1      36.169  14.282  11.980  0.00  0.00     0.141 C 
BRANCH   2   3
HETATM    3  N   UNK N   1      36.604  14.246  13.368  0.00  0.00    -0.350 N 
HETATM    4  C   UNK N   1      35.899  13.742  14.416  0.00  0.00     0.243 C 
HETATM    5  O   UNK N   1      34.770  13.301  14.267  0.00  0.00    -0.271 OA
HETATM    6  H   UNK N   1      37.492  14.621  13.567  0.00  0.00     0.163 HD
BRANCH   4   7
HETATM    7  C   UNK N   1      36.521  13.730  15.771  0.00  0.00     0.221 C 
HETATM    8 Br   UNK N   1      37.290  15.457  16.191  0.00  0.00    -0.069 Br
HETATM    9 Br   UNK N   1      35.182  13.268  17.091  0.00  0.00    -0.069 Br
ENDBRANCH   4   7
ENDBRANCH   2   3
BRANCH   2  10
HETATM   10  C   UNK N   1      36.919  13.251  11.111  0.00  0.00     0.192 C 
BRANCH  10  11
HETATM   11  O   UNK N   1      38.297  13.255  11.329  0.00  0.00    -0.399 OA
HETATM   12  H   UNK N   1      39.208  13.116  11.632  0.00  0.00     0.209 HD
ENDBRANCH  10  11
ENDBRANCH   2  10
ENDBRANCH   1   2
BRANCH   1  13
HETATM   13  O   UNK N   1      37.221  16.061  10.659  0.00  0.00    -0.389 OA
HETATM   14  H   UNK N   1      38.105  15.957  10.273  0.00  0.00     0.210 HD
ENDBRANCH   1  13
BRANCH   1  15
HETATM   15  C   UNK N   1      34.847  15.886  10.589  0.00  0.00    -0.028 A 
HETATM   16  C   UNK N   1      33.874  14.878  10.579  0.00  0.00     0.012 A 
HETATM   17  C   UNK N   1      32.842  14.910   9.635  0.00  0.00     0.037 A 
HETATM   18  C   UNK N   1      32.786  15.943   8.682  0.00  0.00     0.102 A 
HETATM   19  C   UNK N   1      33.740  16.964   8.719  0.00  0.00     0.037 A 
HETATM   20  C   UNK N   1      34.766  16.930   9.656  0.00  0.00     0.012 A 
BRANCH  18  21
HETATM   21  N   UNK N   1      31.806  15.931   7.653  0.00  0.00    -0.116 N 
HETATM   22  O   UNK N   1      30.748  16.712   7.742  0.00  0.00    -0.532 OA
HETATM   23  O   UNK N   1      31.981  15.293   6.660  0.00  0.00    -0.532 OA
ENDBRANCH  18  21
ENDBRANCH   1  15
TORSDOF 8
ENDMDL
MODEL 3
REMARK VINA RESULT:      -6.0      2.613      3.617
REMARK  8 active torsions:
REMARK  status: ('A' for Active; 'I' for Inactive)
REMARK       I    between atoms: C_2  and  N_3 
REMARK    1  A    between atoms: C_2  and  C_18 
REMARK    2  A    between atoms: C_4  and  N_3 
REMARK    3  A    between atoms: C_4  and  C_5 
REMARK    4  A    between atoms: C_4  and  C_7 
REMARK    5  A    between atoms: C_5  and  O_6 
REMARK    6  A    between atoms: C_7  and  O_8 
REMARK    7  A    between atoms: C_7  and  C_9 
REMARK    8  A    between atoms: C_12  and  N_13 
ROOT
HETATM    1  C   UNK N   1      30.343  18.217   8.506  0.00  0.00     0.176 C 
ENDROOT
BRANCH   1   2
HETATM    2  C   UNK N   1      29.028  17.874   7.746  0.00  0.00     0.141 C 
BRANCH   2   3
HETATM    3  N   UNK N   1      28.557  18.979   6.926  0.00  0.00    -0.350 N 
HETATM    4  C   UNK N   1      28.234  18.917   5.606  0.00  0.00     0.243 C 
HETATM    5  O   UNK N   1      28.367  17.884   4.969  0.00  0.00    -0.271 OA
HETATM    6  H   UNK N   1      28.463  19.854   7.367  0.00  0.00     0.163 HD
BRANCH   4   7
HETATM    7  C   UNK N   1      27.708  20.137   4.929  0.00  0.00     0.221 C 
HETATM    8 Br   UNK N   1      26.264  19.684   3.720  0.00  0.00    -0.069 Br
HETATM    9 Br   UNK N   1      27.081  21.394   6.261  0.00  0.00    -0.069 Br
ENDBRANCH   4   7
ENDBRANCH   2   3
BRANCH   2  10
HETATM   10  C   UNK N   1      27.895  17.254   8.589  0.00  0.00     0.192 C 
BRANCH  10  11
HETATM   11  O   UNK N   1      27.330  18.158   9.490  0.00  0.00    -0.399 OA
HETATM   12  H   UNK N   1      26.839  18.613  10.192  0.00  0.00     0.209 HD
ENDBRANCH  10  11
ENDBRANCH   2  10
ENDBRANCH   1   2
BRANCH   1  13
HETATM   13  O   UNK N   1      30.243  17.959   9.875  0.00  0.00    -0.389 OA
HETATM   14  H   UNK N   1      30.248  18.147  10.827  0.00  0.00     0.210 HD
ENDBRANCH   1  13
BRANCH   1  15
HETATM   15  C   UNK N   1      31.485  17.432   7.913  0.00  0.00    -0.028 A 
HETATM   16  C   UNK N   1      32.794  17.926   7.983  0.00  0.00     0.012 A 
HETATM   17  C   UNK N   1      33.810  17.324   7.233  0.00  0.00     0.037 A 
HETATM   18  C   UNK N   1      33.519  16.234   6.392  0.00  0.00     0.102 A 
HETATM   19  C   UNK N   1      32.218  15.726   6.352  0.00  0.00     0.037 A 
HETATM   20  C   UNK N   1      31.209  16.326   7.098  0.00  0.00     0.012 A 
BRANCH  18  21
HETATM   21  N   UNK N   1      34.518  15.681   5.545  0.00  0.00    -0.116 N 
HETATM   22  O   UNK N   1      34.209  15.312   4.318  0.00  0.00    -0.532 OA
HETATM   23  O   UNK N   1      35.656  15.639   5.901  0.00  0.00    -0.532 OA
ENDBRANCH  18  21
ENDBRANCH   1  15
TORSDOF 8
ENDMDL
MODEL 4
REMARK VINA RESULT:      -5.8      3.924      7.417
REMARK  8 active torsions:
REMARK  status: ('A' for Active; 'I' for Inactive)
REMARK       I    between atoms: C_2  and  N_3 
REMARK    1  A    between atoms: C_2  and  C_18 
REMARK    2  A    between atoms: C_4  and  N_3 
REMARK    3  A    between atoms: C_4  and  C_5 
REMARK    4  A    between atoms: C_4  and  C_7 
REMARK    5  A    between atoms: C_5  and  O_6 
REMARK    6  A    between atoms: C_7  and  O_8 
REMARK    7  A    between atoms: C_7  and  C_9 
REMARK    8  A    between atoms: C_12  and  N_13 
ROOT
HETATM    1  C   UNK N   1      27.590  16.875   6.454  0.00  0.00     0.176 C 
ENDROOT
BRANCH   1   2
HETATM    2  C   UNK N   1      28.776  17.552   7.203  0.00  0.00     0.141 C 
BRANCH   2   3
HETATM    3  N   UNK N   1      30.063  16.992   6.823  0.00  0.00    -0.350 N 
HETATM    4  C   UNK N   1      30.750  17.263   5.681  0.00  0.00     0.243 C 
HETATM    5  O   UNK N   1      30.288  18.001   4.824  0.00  0.00    -0.271 OA
HETATM    6  H   UNK N   1      30.477  16.357   7.452  0.00  0.00     0.163 HD
BRANCH   4   7
HETATM    7  C   UNK N   1      32.091  16.645   5.475  0.00  0.00     0.221 C 
HETATM    8 Br   UNK N   1      32.667  16.847   3.637  0.00  0.00    -0.069 Br
HETATM    9 Br   UNK N   1      33.374  17.478   6.662  0.00  0.00    -0.069 Br
ENDBRANCH   4   7
ENDBRANCH   2   3
BRANCH   2  10
HETATM   10  C   UNK N   1      28.630  17.684   8.733  0.00  0.00     0.192 C 
BRANCH  10  11
HETATM   11  O   UNK N   1      27.452  18.327   9.114  0.00  0.00    -0.399 OA
HETATM   12  H   UNK N   1      26.606  18.799   9.170  0.00  0.00     0.209 HD
ENDBRANCH  10  11
ENDBRANCH   2  10
ENDBRANCH   1   2
BRANCH   1  13
HETATM   13  O   UNK N   1      26.574  16.478   7.327  0.00  0.00    -0.389 OA
HETATM   14  H   UNK N   1      26.169  16.053   8.100  0.00  0.00     0.210 HD
ENDBRANCH   1  13
BRANCH   1  15
HETATM   15  C   UNK N   1      27.043  17.824   5.420  0.00  0.00    -0.028 A 
HETATM   16  C   UNK N   1      27.070  19.207   5.643  0.00  0.00     0.012 A 
HETATM   17  C   UNK N   1      26.354  20.066   4.803  0.00  0.00     0.037 A 
HETATM   18  C   UNK N   1      25.589  19.545   3.742  0.00  0.00     0.102 A 
HETATM   19  C   UNK N   1      25.593  18.168   3.506  0.00  0.00     0.037 A 
HETATM   20  C   UNK N   1      26.304  17.315   4.342  0.00  0.00     0.012 A 
BRANCH  18  21
HETATM   21  N   UNK N   1      24.774  20.395   2.947  0.00  0.00    -0.116 N 
HETATM   22  O   UNK N   1      23.538  20.659   3.321  0.00  0.00    -0.532 OA
HETATM   23  O   UNK N   1      25.230  20.951   1.995  0.00  0.00    -0.532 OA
ENDBRANCH  18  21
ENDBRANCH   1  15
TORSDOF 8
ENDMDL
MODEL 5
REMARK VINA RESULT:      -5.8      2.402      3.049
REMARK  8 active torsions:
REMARK  status: ('A' for Active; 'I' for Inactive)
REMARK       I    between atoms: C_2  and  N_3 
REMARK    1  A    between atoms: C_2  and  C_18 
REMARK    2  A    between atoms: C_4  and  N_3 
REMARK    3  A    between atoms: C_4  and  C_5 
REMARK    4  A    between atoms: C_4  and  C_7 
REMARK    5  A    between atoms: C_5  and  O_6 
REMARK    6  A    between atoms: C_7  and  O_8 
REMARK    7  A    between atoms: C_7  and  C_9 
REMARK    8  A    between atoms: C_12  and  N_13 
ROOT
HETATM    1  C   UNK N   1      28.267  17.833   7.503  0.00  0.00     0.176 C 
ENDROOT
BRANCH   1   2
HETATM    2  C   UNK N   1      27.509  17.183   6.309  0.00  0.00     0.141 C 
BRANCH   2   3
HETATM    3  N   UNK N   1      26.418  18.014   5.826  0.00  0.00    -0.350 N 
HETATM    4  C   UNK N   1      26.520  19.025   4.921  0.00  0.00     0.243 C 
HETATM    5  O   UNK N   1      27.601  19.355   4.459  0.00  0.00    -0.271 OA
HETATM    6  H   UNK N   1      25.521  17.827   6.187  0.00  0.00     0.163 HD
BRANCH   4   7
HETATM    7  C   UNK N   1      25.285  19.740   4.489  0.00  0.00     0.221 C 
HETATM    8 Br   UNK N   1      25.506  20.483   2.714  0.00  0.00    -0.069 Br
HETATM    9 Br   UNK N   1      23.789  18.511   4.506  0.00  0.00    -0.069 Br
ENDBRANCH   4   7
ENDBRANCH   2   3
BRANCH   2  10
HETATM   10  C   UNK N   1      27.081  15.713   6.493  0.00  0.00     0.192 C 
BRANCH  10  11
HETATM   11  O   UNK N   1      25.949  15.571   7.297  0.00  0.00    -0.399 OA
HETATM   12  H   UNK N   1      25.082  15.623   7.729  0.00  0.00     0.209 HD
ENDBRANCH  10  11
ENDBRANCH   2  10
ENDBRANCH   1   2
BRANCH   1  13
HETATM   13  O   UNK N   1      27.781  17.394   8.738  0.00  0.00    -0.389 OA
HETATM   14  H   UNK N   1      27.320  16.817   9.367  0.00  0.00     0.210 HD
ENDBRANCH   1  13
BRANCH   1  15
HETATM   15  C   UNK N   1      29.739  17.531   7.389  0.00  0.00    -0.028 A 
HETATM   16  C   UNK N   1      30.595  17.763   8.474  0.00  0.00     0.012 A 
HETATM   17  C   UNK N   1      31.981  17.711   8.294  0.00  0.00     0.037 A 
HETATM   18  C   UNK N   1      32.522  17.444   7.023  0.00  0.00     0.102 A 
HETATM   19  C   UNK N   1      31.662  17.181   5.953  0.00  0.00     0.037 A 
HETATM   20  C   UNK N   1      30.284  17.234   6.132  0.00  0.00     0.012 A 
BRANCH  18  21
HETATM   21  N   UNK N   1      33.925  17.493   6.803  0.00  0.00    -0.116 N 
HETATM   22  O   UNK N   1      34.482  16.684   5.925  0.00  0.00    -0.532 OA
HETATM   23  O   UNK N   1      34.591  18.328   7.336  0.00  0.00    -0.532 OA
ENDBRANCH  18  21
ENDBRANCH   1  15
TORSDOF 8
ENDMDL
MODEL 6
REMARK VINA RESULT:      -5.7      2.489      3.558
REMARK  8 active torsions:
REMARK  status: ('A' for Active; 'I' for Inactive)
REMARK       I    between atoms: C_2  and  N_3 
REMARK    1  A    between atoms: C_2  and  C_18 
REMARK    2  A    between atoms: C_4  and  N_3 
REMARK    3  A    between atoms: C_4  and  C_5 
REMARK    4  A    between atoms: C_4  and  C_7 
REMARK    5  A    between atoms: C_5  and  O_6 
REMARK    6  A    between atoms: C_7  and  O_8 
REMARK    7  A    between atoms: C_7  and  C_9 
REMARK    8  A    between atoms: C_12  and  N_13 
ROOT
HETATM    1  C   UNK N   1      30.311  18.526   8.702  0.00  0.00     0.176 C 
ENDROOT
BRANCH   1   2
HETATM    2  C   UNK N   1      29.142  17.926   7.867  0.00  0.00     0.141 C 
BRANCH   2   3
HETATM    3  N   UNK N   1      28.604  18.875   6.905  0.00  0.00    -0.350 N 
HETATM    4  C   UNK N   1      28.313  18.617   5.601  0.00  0.00     0.243 C 
HETATM    5  O   UNK N   1      28.539  17.524   5.106  0.00  0.00    -0.271 OA
HETATM    6  H   UNK N   1      28.432  19.789   7.228  0.00  0.00     0.163 HD
BRANCH   4   7
HETATM    7  C   UNK N   1      27.707  19.693   4.766  0.00  0.00     0.221 C 
HETATM    8 Br   UNK N   1      26.162  19.031   3.804  0.00  0.00    -0.069 Br
HETATM    9 Br   UNK N   1      27.191  21.176   5.899  0.00  0.00    -0.069 Br
ENDBRANCH   4   7
ENDBRANCH   2   3
BRANCH   2  10
HETATM   10  C   UNK N   1      28.030  17.214   8.664  0.00  0.00     0.192 C 
BRANCH  10  11
HETATM   11  O   UNK N   1      27.276  18.089   9.447  0.00  0.00    -0.399 OA
HETATM   12  H   UNK N   1      26.773  18.828   9.824  0.00  0.00     0.209 HD
ENDBRANCH  10  11
ENDBRANCH   2  10
ENDBRANCH   1   2
BRANCH   1  13
HETATM   13  O   UNK N   1      29.993  18.625  10.059  0.00  0.00    -0.389 OA
HETATM   14  H   UNK N   1      30.141  18.636  11.017  0.00  0.00     0.210 HD
ENDBRANCH   1  13
BRANCH   1  15
HETATM   15  C   UNK N   1      31.545  17.681   8.519  0.00  0.00    -0.028 A 
HETATM   16  C   UNK N   1      31.497  16.299   8.750  0.00  0.00     0.012 A 
HETATM   17  C   UNK N   1      32.682  15.559   8.815  0.00  0.00     0.037 A 
HETATM   18  C   UNK N   1      33.926  16.199   8.665  0.00  0.00     0.102 A 
HETATM   19  C   UNK N   1      33.965  17.571   8.402  0.00  0.00     0.037 A 
HETATM   20  C   UNK N   1      32.787  18.306   8.340  0.00  0.00     0.012 A 
BRANCH  18  21
HETATM   21  N   UNK N   1      35.140  15.479   8.834  0.00  0.00    -0.116 N 
HETATM   22  O   UNK N   1      35.431  14.483   8.022  0.00  0.00    -0.532 OA
HETATM   23  O   UNK N   1      35.944  15.831   9.642  0.00  0.00    -0.532 OA
ENDBRANCH  18  21
ENDBRANCH   1  15
TORSDOF 8
ENDMDL
MODEL 7
REMARK VINA RESULT:      -5.7     13.958     15.401
REMARK  8 active torsions:
REMARK  status: ('A' for Active; 'I' for Inactive)
REMARK       I    between atoms: C_2  and  N_3 
REMARK    1  A    between atoms: C_2  and  C_18 
REMARK    2  A    between atoms: C_4  and  N_3 
REMARK    3  A    between atoms: C_4  and  C_5 
REMARK    4  A    between atoms: C_4  and  C_7 
REMARK    5  A    between atoms: C_5  and  O_6 
REMARK    6  A    between atoms: C_7  and  O_8 
REMARK    7  A    between atoms: C_7  and  C_9 
REMARK    8  A    between atoms: C_12  and  N_13 
ROOT
HETATM    1  C   UNK N   1      26.030  23.952  -7.935  0.00  0.00     0.176 C 
ENDROOT
BRANCH   1   2
HETATM    2  C   UNK N   1      26.110  22.521  -7.326  0.00  0.00     0.141 C 
BRANCH   2   3
HETATM    3  N   UNK N   1      27.388  21.878  -7.586  0.00  0.00    -0.350 N 
HETATM    4  C   UNK N   1      28.511  21.992  -6.829  0.00  0.00     0.243 C 
HETATM    5  O   UNK N   1      28.544  22.719  -5.849  0.00  0.00    -0.271 OA
HETATM    6  H   UNK N   1      27.444  21.305  -8.385  0.00  0.00     0.163 HD
BRANCH   4   7
HETATM    7  C   UNK N   1      29.725  21.212  -7.208  0.00  0.00     0.221 C 
HETATM    8 Br   UNK N   1      30.907  20.997  -5.689  0.00  0.00    -0.069 Br
HETATM    9 Br   UNK N   1      29.192  19.475  -7.878  0.00  0.00    -0.069 Br
ENDBRANCH   4   7
ENDBRANCH   2   3
BRANCH   2  10
HETATM   10  C   UNK N   1      24.919  21.587  -7.623  0.00  0.00     0.192 C 
BRANCH  10  11
HETATM   11  O   UNK N   1      24.794  21.276  -8.977  0.00  0.00    -0.399 OA
HETATM   12  H   UNK N   1      24.696  21.271  -9.943  0.00  0.00     0.209 HD
ENDBRANCH  10  11
ENDBRANCH   2  10
ENDBRANCH   1   2
BRANCH   1  13
HETATM   13  O   UNK N   1      25.041  24.052  -8.917  0.00  0.00    -0.389 OA
HETATM   14  H   UNK N   1      24.640  23.984  -9.797  0.00  0.00     0.210 HD
ENDBRANCH   1  13
BRANCH   1  15
HETATM   15  C   UNK N   1      25.775  24.952  -6.838  0.00  0.00    -0.028 A 
HETATM   16  C   UNK N   1      25.714  26.321  -7.128  0.00  0.00     0.012 A 
HETATM   17  C   UNK N   1      25.717  27.257  -6.089  0.00  0.00     0.037 A 
HETATM   18  C   UNK N   1      25.798  26.831  -4.750  0.00  0.00     0.102 A 
HETATM   19  C   UNK N   1      25.825  25.463  -4.467  0.00  0.00     0.037 A 
HETATM   20  C   UNK N   1      25.823  24.533  -5.501  0.00  0.00     0.012 A 
BRANCH  18  21
HETATM   21  N   UNK N   1      25.909  27.773  -3.692  0.00  0.00    -0.116 N 
HETATM   22  O   UNK N   1      25.945  29.062  -3.959  0.00  0.00    -0.532 OA
HETATM   23  O   UNK N   1      25.869  27.410  -2.555  0.00  0.00    -0.532 OA
ENDBRANCH  18  21
ENDBRANCH   1  15
TORSDOF 8
ENDMDL
MODEL 8
REMARK VINA RESULT:      -5.7      6.954      9.851
REMARK  8 active torsions:
REMARK  status: ('A' for Active; 'I' for Inactive)
REMARK       I    between atoms: C_2  and  N_3 
REMARK    1  A    between atoms: C_2  and  C_18 
REMARK    2  A    between atoms: C_4  and  N_3 
REMARK    3  A    between atoms: C_4  and  C_5 
REMARK    4  A    between atoms: C_4  and  C_7 
REMARK    5  A    between atoms: C_5  and  O_6 
REMARK    6  A    between atoms: C_7  and  O_8 
REMARK    7  A    between atoms: C_7  and  C_9 
REMARK    8  A    between atoms: C_12  and  N_13 
ROOT
HETATM    1  C   UNK N   1      35.324  14.822  11.949  0.00  0.00     0.176 C 
ENDROOT
BRANCH   1   2
HETATM    2  C   UNK N   1      35.512  13.318  11.591  0.00  0.00     0.141 C 
BRANCH   2   3
HETATM    3  N   UNK N   1      35.268  12.443  12.727  0.00  0.00    -0.350 N 
HETATM    4  C   UNK N   1      35.829  12.556  13.960  0.00  0.00     0.243 C 
HETATM    5  O   UNK N   1      36.659  13.418  14.203  0.00  0.00    -0.271 OA
HETATM    6  H   UNK N   1      34.636  11.701  12.590  0.00  0.00     0.163 HD
BRANCH   4   7
HETATM    7  C   UNK N   1      35.421  11.605  15.034  0.00  0.00     0.221 C 
HETATM    8 Br   UNK N   1      35.264  12.515  16.736  0.00  0.00    -0.069 Br
HETATM    9 Br   UNK N   1      33.728  10.791  14.565  0.00  0.00    -0.069 Br
ENDBRANCH   4   7
ENDBRANCH   2   3
BRANCH   2  10
HETATM   10  C   UNK N   1      36.813  12.952  10.846  0.00  0.00     0.192 C 
BRANCH  10  11
HETATM   11  O   UNK N   1      37.962  13.260  11.575  0.00  0.00    -0.399 OA
HETATM   12  H   UNK N   1      38.844  13.307  11.978  0.00  0.00     0.209 HD
ENDBRANCH  10  11
ENDBRANCH   2  10
ENDBRANCH   1   2
BRANCH   1  13
HETATM   13  O   UNK N   1      36.532  15.440  12.279  0.00  0.00    -0.389 OA
HETATM   14  H   UNK N   1      37.477  15.653  12.222  0.00  0.00     0.210 HD
ENDBRANCH   1  13
BRANCH   1  15
HETATM   15  C   UNK N   1      34.676  15.536  10.791  0.00  0.00    -0.028 A 
HETATM   16  C   UNK N   1      33.714  14.886  10.007  0.00  0.00     0.012 A 
HETATM   17  C   UNK N   1      33.292  15.456   8.801  0.00  0.00     0.037 A 
HETATM   18  C   UNK N   1      33.844  16.673   8.362  0.00  0.00     0.102 A 
HETATM   19  C   UNK N   1      34.779  17.332   9.165  0.00  0.00     0.037 A 
HETATM   20  C   UNK N   1      35.198  16.764  10.362  0.00  0.00     0.012 A 
BRANCH  18  21
HETATM   21  N   UNK N   1      33.504  17.210   7.090  0.00  0.00    -0.116 N 
HETATM   22  O   UNK N   1      32.253  17.179   6.677  0.00  0.00    -0.532 OA
HETATM   23  O   UNK N   1      34.324  17.777   6.435  0.00  0.00    -0.532 OA
ENDBRANCH  18  21
ENDBRANCH   1  15
TORSDOF 8
ENDMDL
MODEL 9
REMARK VINA RESULT:      -5.7      2.371      3.098
REMARK  8 active torsions:
REMARK  status: ('A' for Active; 'I' for Inactive)
REMARK       I    between atoms: C_2  and  N_3 
REMARK    1  A    between atoms: C_2  and  C_18 
REMARK    2  A    between atoms: C_4  and  N_3 
REMARK    3  A    between atoms: C_4  and  C_5 
REMARK    4  A    between atoms: C_4  and  C_7 
REMARK    5  A    between atoms: C_5  and  O_6 
REMARK    6  A    between atoms: C_7  and  O_8 
REMARK    7  A    between atoms: C_7  and  C_9 
REMARK    8  A    between atoms: C_12  and  N_13 
ROOT
HETATM    1  C   UNK N   1      30.403  16.884   4.917  0.00  0.00     0.176 C 
ENDROOT
BRANCH   1   2
HETATM    2  C   UNK N   1      29.074  17.390   5.551  0.00  0.00     0.141 C 
BRANCH   2   3
HETATM    3  N   UNK N   1      27.982  16.446   5.375  0.00  0.00    -0.350 N 
HETATM    4  C   UNK N   1      27.096  16.058   6.331  0.00  0.00     0.243 C 
HETATM    5  O   UNK N   1      27.186  16.461   7.480  0.00  0.00    -0.271 OA
HETATM    6  H   UNK N   1      27.873  16.051   4.480  0.00  0.00     0.163 HD
BRANCH   4   7
HETATM    7  C   UNK N   1      25.994  15.122   5.963  0.00  0.00     0.221 C 
HETATM    8 Br   UNK N   1      25.345  14.177   7.524  0.00  0.00    -0.069 Br
HETATM    9 Br   UNK N   1      24.547  16.118   5.149  0.00  0.00    -0.069 Br
ENDBRANCH   4   7
ENDBRANCH   2   3
BRANCH   2  10
HETATM   10  C   UNK N   1      28.656  18.832   5.199  0.00  0.00     0.192 C 
BRANCH  10  11
HETATM   11  O   UNK N   1      28.202  18.963   3.887  0.00  0.00    -0.399 OA
HETATM   12  H   UNK N   1      27.847  18.845   2.991  0.00  0.00     0.209 HD
ENDBRANCH  10  11
ENDBRANCH   2  10
ENDBRANCH   1   2
BRANCH   1  13
HETATM   13  O   UNK N   1      30.722  17.572   3.744  0.00  0.00    -0.389 OA
HETATM   14  H   UNK N   1      30.856  18.334   3.157  0.00  0.00     0.210 HD
ENDBRANCH   1  13
BRANCH   1  15
HETATM   15  C   UNK N   1      31.521  17.022   5.918  0.00  0.00    -0.028 A 
HETATM   16  C   UNK N   1      31.236  17.221   7.275  0.00  0.00     0.012 A 
HETATM   17  C   UNK N   1      32.257  17.585   8.159  0.00  0.00     0.037 A 
HETATM   18  C   UNK N   1      33.570  17.770   7.688  0.00  0.00     0.102 A 
HETATM   19  C   UNK N   1      33.854  17.538   6.339  0.00  0.00     0.037 A 
HETATM   20  C   UNK N   1      32.838  17.177   5.462  0.00  0.00     0.012 A 
BRANCH  18  21
HETATM   21  N   UNK N   1      34.594  18.242   8.553  0.00  0.00    -0.116 N 
HETATM   22  O   UNK N   1      35.052  17.466   9.514  0.00  0.00    -0.532 OA
HETATM   23  O   UNK N   1      35.112  19.299   8.355  0.00  0.00    -0.532 OA
ENDBRANCH  18  21
ENDBRANCH   1  15
TORSDOF 8
ENDMDL
