MODEL 1
REMARK VINA RESULT:      -7.6      0.000      0.000
REMARK  0 active torsions:
REMARK  status: ('A' for Active; 'I' for Inactive)
ROOT
HETATM    1  C   UNK N   1      26.763  25.428  -5.176  0.00  0.00     0.043 A 
HETATM    2  C   UNK N   1      27.577  24.275  -5.488  0.00  0.00     0.212 A 
HETATM    3  C   UNK N   1      27.168  25.903  -3.947  0.00  0.00     0.047 A 
HETATM    4  N   UNK N   1      28.221  25.128  -3.403  0.00  0.00    -0.351 N 
HETATM    5  C   UNK N   1      26.564  27.018  -3.371  0.00  0.00     0.030 A 
HETATM    6  C   UNK N   1      25.526  27.649  -4.084  0.00  0.00     0.002 A 
HETATM    7  C   UNK N   1      25.117  27.157  -5.344  0.00  0.00     0.001 A 
HETATM    8  C   UNK N   1      25.742  26.030  -5.902  0.00  0.00     0.018 A 
HETATM    9  C   UNK N   1      28.497  24.102  -4.347  0.00  0.00     0.101 A 
HETATM   10  C   UNK N   1      29.449  23.159  -4.175  0.00  0.00     0.075 A 
HETATM   11  C   UNK N   1      30.364  22.995  -3.028  0.00  0.00     0.259 A 
HETATM   12  N   UNK N   1      31.182  21.935  -3.211  0.00  0.00    -0.322 N 
HETATM   13  C   UNK N   1      30.848  21.368  -4.459  0.00  0.00     0.046 A 
HETATM   14  C   UNK N   1      29.825  22.060  -5.069  0.00  0.00     0.010 A 
HETATM   15  C   UNK N   1      31.436  20.253  -5.057  0.00  0.00     0.032 A 
HETATM   16  C   UNK N   1      30.951  19.847  -6.316  0.00  0.00     0.021 A 
HETATM   17  C   UNK N   1      29.903  20.557  -6.940  0.00  0.00     0.011 A 
HETATM   18  C   UNK N   1      29.336  21.672  -6.310  0.00  0.00     0.034 A 
HETATM   19  O   UNK N   1      30.403  23.704  -2.033  0.00  0.00    -0.267 OA
HETATM   20  O   UNK N   1      27.493  23.604  -6.502  0.00  0.00    -0.285 OA
HETATM   21 Br   UNK N   1      29.241  20.017  -8.641  0.00  0.00    -0.051 Br
HETATM   22  H   UNK N   1      28.672  25.271  -2.539  0.00  0.00     0.166 HD
HETATM   23  H   UNK N   1      31.879  21.619  -2.590  0.00  0.00     0.169 HD
ENDROOT
TORSDOF 0
ENDMDL
MODEL 2
REMARK VINA RESULT:      -7.5      2.637      3.927
REMARK  0 active torsions:
REMARK  status: ('A' for Active; 'I' for Inactive)
ROOT
HETATM    1  C   UNK N   1      26.871  25.890  -4.945  0.00  0.00     0.043 A 
HETATM    2  C   UNK N   1      27.472  24.669  -5.430  0.00  0.00     0.212 A 
HETATM    3  C   UNK N   1      25.689  26.073  -5.631  0.00  0.00     0.047 A 
HETATM    4  N   UNK N   1      25.454  25.033  -6.564  0.00  0.00    -0.351 N 
HETATM    5  C   UNK N   1      24.874  27.175  -5.382  0.00  0.00     0.030 A 
HETATM    6  C   UNK N   1      25.295  28.099  -4.406  0.00  0.00     0.002 A 
HETATM    7  C   UNK N   1      26.507  27.905  -3.707  0.00  0.00     0.001 A 
HETATM    8  C   UNK N   1      27.310  26.785  -3.977  0.00  0.00     0.018 A 
HETATM    9  C   UNK N   1      26.555  24.140  -6.459  0.00  0.00     0.101 A 
HETATM   10  C   UNK N   1      26.685  23.018  -7.199  0.00  0.00     0.075 A 
HETATM   11  C   UNK N   1      25.761  22.499  -8.227  0.00  0.00     0.259 A 
HETATM   12  N   UNK N   1      26.226  21.346  -8.757  0.00  0.00    -0.322 N 
HETATM   13  C   UNK N   1      27.450  21.063  -8.115  0.00  0.00     0.046 A 
HETATM   14  C   UNK N   1      27.764  22.027  -7.182  0.00  0.00     0.010 A 
HETATM   15  C   UNK N   1      28.283  19.968  -8.345  0.00  0.00     0.032 A 
HETATM   16  C   UNK N   1      29.469  19.871  -7.592  0.00  0.00     0.021 A 
HETATM   17  C   UNK N   1      29.791  20.860  -6.637  0.00  0.00     0.011 A 
HETATM   18  C   UNK N   1      28.931  21.945  -6.431  0.00  0.00     0.034 A 
HETATM   19  O   UNK N   1      24.709  23.017  -8.574  0.00  0.00    -0.267 OA
HETATM   20  O   UNK N   1      28.528  24.199  -5.043  0.00  0.00    -0.285 OA
HETATM   21 Br   UNK N   1      31.392  20.738  -5.614  0.00  0.00    -0.051 Br
HETATM   22  H   UNK N   1      24.680  24.947  -7.167  0.00  0.00     0.166 HD
HETATM   23  H   UNK N   1      25.792  20.807  -9.458  0.00  0.00     0.169 HD
ENDROOT
TORSDOF 0
ENDMDL
MODEL 3
REMARK VINA RESULT:      -7.2      2.832      6.794
REMARK  0 active torsions:
REMARK  status: ('A' for Active; 'I' for Inactive)
ROOT
HETATM    1  C   UNK N   1      30.488  22.868  -4.148  0.00  0.00     0.043 A 
HETATM    2  C   UNK N   1      29.501  23.921  -4.228  0.00  0.00     0.212 A 
HETATM    3  C   UNK N   1      30.109  21.875  -5.026  0.00  0.00     0.047 A 
HETATM    4  N   UNK N   1      28.908  22.200  -5.703  0.00  0.00    -0.351 N 
HETATM    5  C   UNK N   1      30.868  20.718  -5.176  0.00  0.00     0.030 A 
HETATM    6  C   UNK N   1      32.038  20.591  -4.402  0.00  0.00     0.002 A 
HETATM    7  C   UNK N   1      32.421  21.612  -3.504  0.00  0.00     0.001 A 
HETATM    8  C   UNK N   1      31.637  22.770  -3.372  0.00  0.00     0.018 A 
HETATM    9  C   UNK N   1      28.505  23.476  -5.222  0.00  0.00     0.101 A 
HETATM   10  C   UNK N   1      27.394  24.120  -5.640  0.00  0.00     0.075 A 
HETATM   11  C   UNK N   1      26.404  23.664  -6.636  0.00  0.00     0.259 A 
HETATM   12  N   UNK N   1      25.422  24.579  -6.795  0.00  0.00    -0.322 N 
HETATM   13  C   UNK N   1      25.717  25.653  -5.929  0.00  0.00     0.046 A 
HETATM   14  C   UNK N   1      26.878  25.426  -5.222  0.00  0.00     0.010 A 
HETATM   15  C   UNK N   1      24.974  26.822  -5.760  0.00  0.00     0.032 A 
HETATM   16  C   UNK N   1      25.446  27.776  -4.838  0.00  0.00     0.021 A 
HETATM   17  C   UNK N   1      26.636  27.543  -4.115  0.00  0.00     0.011 A 
HETATM   18  C   UNK N   1      27.356  26.358  -4.309  0.00  0.00     0.034 A 
HETATM   19  O   UNK N   1      26.438  22.608  -7.251  0.00  0.00    -0.267 OA
HETATM   20  O   UNK N   1      29.519  24.957  -3.586  0.00  0.00    -0.285 OA
HETATM   21 Br   UNK N   1      27.281  28.827  -2.866  0.00  0.00    -0.051 Br
HETATM   22  H   UNK N   1      28.443  21.650  -6.375  0.00  0.00     0.166 HD
HETATM   23  H   UNK N   1      24.648  24.509  -7.400  0.00  0.00     0.169 HD
ENDROOT
TORSDOF 0
ENDMDL
MODEL 4
REMARK VINA RESULT:      -7.1     11.625     13.015
REMARK  0 active torsions:
REMARK  status: ('A' for Active; 'I' for Inactive)
ROOT
HETATM    1  C   UNK N   1      27.777  18.946   5.015  0.00  0.00     0.043 A 
HETATM    2  C   UNK N   1      28.787  17.968   5.350  0.00  0.00     0.212 A 
HETATM    3  C   UNK N   1      27.474  19.642   6.166  0.00  0.00     0.047 A 
HETATM    4  N   UNK N   1      28.230  19.185   7.273  0.00  0.00    -0.351 N 
HETATM    5  C   UNK N   1      26.525  20.661   6.162  0.00  0.00     0.030 A 
HETATM    6  C   UNK N   1      25.882  20.961   4.945  0.00  0.00     0.002 A 
HETATM    7  C   UNK N   1      26.198  20.243   3.769  0.00  0.00     0.001 A 
HETATM    8  C   UNK N   1      27.159  19.219   3.800  0.00  0.00     0.018 A 
HETATM    9  C   UNK N   1      29.060  18.137   6.791  0.00  0.00     0.101 A 
HETATM   10  C   UNK N   1      29.929  17.451   7.564  0.00  0.00     0.075 A 
HETATM   11  C   UNK N   1      30.194  17.630   9.005  0.00  0.00     0.259 A 
HETATM   12  N   UNK N   1      31.134  16.758   9.435  0.00  0.00    -0.322 N 
HETATM   13  C   UNK N   1      31.519  15.985   8.319  0.00  0.00     0.046 A 
HETATM   14  C   UNK N   1      30.831  16.360   7.186  0.00  0.00     0.010 A 
HETATM   15  C   UNK N   1      32.465  14.960   8.296  0.00  0.00     0.032 A 
HETATM   16  C   UNK N   1      32.703  14.310   7.070  0.00  0.00     0.021 A 
HETATM   17  C   UNK N   1      31.998  14.694   5.909  0.00  0.00     0.011 A 
HETATM   18  C   UNK N   1      31.055  15.727   5.969  0.00  0.00     0.034 A 
HETATM   19  O   UNK N   1      29.655  18.445   9.739  0.00  0.00    -0.267 OA
HETATM   20  O   UNK N   1      29.290  17.176   4.571  0.00  0.00    -0.285 OA
HETATM   21 Br   UNK N   1      32.313  13.821   4.247  0.00  0.00    -0.051 Br
HETATM   22  H   UNK N   1      28.188  19.527   8.195  0.00  0.00     0.166 HD
HETATM   23  H   UNK N   1      31.482  16.678  10.353  0.00  0.00     0.169 HD
ENDROOT
TORSDOF 0
ENDMDL
MODEL 5
REMARK VINA RESULT:      -7.0     23.620     25.861
REMARK  0 active torsions:
REMARK  status: ('A' for Active; 'I' for Inactive)
ROOT
HETATM    1  C   UNK N   1      35.736  12.140  14.040  0.00  0.00     0.043 A 
HETATM    2  C   UNK N   1      35.534  11.438  15.288  0.00  0.00     0.212 A 
HETATM    3  C   UNK N   1      35.834  13.484  14.330  0.00  0.00     0.047 A 
HETATM    4  N   UNK N   1      35.708  13.735  15.718  0.00  0.00    -0.351 N 
HETATM    5  C   UNK N   1      36.033  14.426  13.323  0.00  0.00     0.030 A 
HETATM    6  C   UNK N   1      36.132  13.962  11.996  0.00  0.00     0.002 A 
HETATM    7  C   UNK N   1      36.030  12.583  11.707  0.00  0.00     0.001 A 
HETATM    8  C   UNK N   1      35.829  11.654  12.741  0.00  0.00     0.018 A 
HETATM    9  C   UNK N   1      35.520  12.472  16.342  0.00  0.00     0.101 A 
HETATM   10  C   UNK N   1      35.360  12.307  17.673  0.00  0.00     0.075 A 
HETATM   11  C   UNK N   1      35.347  13.349  18.718  0.00  0.00     0.259 A 
HETATM   12  N   UNK N   1      35.163  12.804  19.942  0.00  0.00    -0.322 N 
HETATM   13  C   UNK N   1      35.049  11.410  19.757  0.00  0.00     0.046 A 
HETATM   14  C   UNK N   1      35.159  11.067  18.427  0.00  0.00     0.010 A 
HETATM   15  C   UNK N   1      34.850  10.447  20.747  0.00  0.00     0.032 A 
HETATM   16  C   UNK N   1      34.763   9.099  20.348  0.00  0.00     0.021 A 
HETATM   17  C   UNK N   1      34.876   8.749  18.985  0.00  0.00     0.011 A 
HETATM   18  C   UNK N   1      35.076   9.742  18.019  0.00  0.00     0.034 A 
HETATM   19  O   UNK N   1      35.483  14.551  18.537  0.00  0.00    -0.267 OA
HETATM   20  O   UNK N   1      35.405  10.232  15.407  0.00  0.00    -0.285 OA
HETATM   21 Br   UNK N   1      34.761   6.930  18.437  0.00  0.00    -0.051 Br
HETATM   22  H   UNK N   1      35.745  14.613  16.164  0.00  0.00     0.166 HD
HETATM   23  H   UNK N   1      35.117  13.289  20.798  0.00  0.00     0.169 HD
ENDROOT
TORSDOF 0
ENDMDL
MODEL 6
REMARK VINA RESULT:      -7.0     21.982     24.341
REMARK  0 active torsions:
REMARK  status: ('A' for Active; 'I' for Inactive)
ROOT
HETATM    1  C   UNK N   1      35.947  11.538  17.129  0.00  0.00     0.043 A 
HETATM    2  C   UNK N   1      36.407  11.210  15.799  0.00  0.00     0.212 A 
HETATM    3  C   UNK N   1      35.630  12.880  17.141  0.00  0.00     0.047 A 
HETATM    4  N   UNK N   1      35.853  13.485  15.880  0.00  0.00    -0.351 N 
HETATM    5  C   UNK N   1      35.154  13.498  18.294  0.00  0.00     0.030 A 
HETATM    6  C   UNK N   1      35.004  12.710  19.452  0.00  0.00     0.002 A 
HETATM    7  C   UNK N   1      35.330  11.335  19.433  0.00  0.00     0.001 A 
HETATM    8  C   UNK N   1      35.809  10.736  18.256  0.00  0.00     0.018 A 
HETATM    9  C   UNK N   1      36.339  12.463  15.021  0.00  0.00     0.101 A 
HETATM   10  C   UNK N   1      36.667  12.662  13.726  0.00  0.00     0.075 A 
HETATM   11  C   UNK N   1      36.594  13.920  12.957  0.00  0.00     0.259 A 
HETATM   12  N   UNK N   1      37.006  13.733  11.683  0.00  0.00    -0.322 N 
HETATM   13  C   UNK N   1      37.358  12.372  11.562  0.00  0.00     0.046 A 
HETATM   14  C   UNK N   1      37.174  11.696  12.748  0.00  0.00     0.010 A 
HETATM   15  C   UNK N   1      37.838  11.729  10.420  0.00  0.00     0.032 A 
HETATM   16  C   UNK N   1      38.132  10.355  10.511  0.00  0.00     0.021 A 
HETATM   17  C   UNK N   1      37.943   9.663  11.727  0.00  0.00     0.011 A 
HETATM   18  C   UNK N   1      37.460  10.340  12.853  0.00  0.00     0.034 A 
HETATM   19  O   UNK N   1      36.219  15.002  13.385  0.00  0.00    -0.267 OA
HETATM   20  O   UNK N   1      36.771  10.107  15.430  0.00  0.00    -0.285 OA
HETATM   21 Br   UNK N   1      38.338   7.806  11.859  0.00  0.00    -0.051 Br
HETATM   22  H   UNK N   1      35.701  14.429  15.645  0.00  0.00     0.166 HD
HETATM   23  H   UNK N   1      37.050  14.416  10.976  0.00  0.00     0.169 HD
ENDROOT
TORSDOF 0
ENDMDL
MODEL 7
REMARK VINA RESULT:      -6.9     21.781     24.091
REMARK  0 active torsions:
REMARK  status: ('A' for Active; 'I' for Inactive)
ROOT
HETATM    1  C   UNK N   1      35.171  11.394  17.010  0.00  0.00     0.043 A 
HETATM    2  C   UNK N   1      35.093  10.751  15.718  0.00  0.00     0.212 A 
HETATM    3  C   UNK N   1      35.107  12.756  16.801  0.00  0.00     0.047 A 
HETATM    4  N   UNK N   1      34.988  13.074  15.426  0.00  0.00    -0.351 N 
HETATM    5  C   UNK N   1      35.159  13.651  17.867  0.00  0.00     0.030 A 
HETATM    6  C   UNK N   1      35.280  13.123  19.167  0.00  0.00     0.002 A 
HETATM    7  C   UNK N   1      35.345  11.727  19.373  0.00  0.00     0.001 A 
HETATM    8  C   UNK N   1      35.290  10.845  18.281  0.00  0.00     0.018 A 
HETATM    9  C   UNK N   1      34.976  11.838  14.725  0.00  0.00     0.101 A 
HETATM   10  C   UNK N   1      34.875  11.737  13.382  0.00  0.00     0.075 A 
HETATM   11  C   UNK N   1      34.759  12.831  12.398  0.00  0.00     0.259 A 
HETATM   12  N   UNK N   1      34.677  12.343  11.140  0.00  0.00    -0.322 N 
HETATM   13  C   UNK N   1      34.735  10.937  11.240  0.00  0.00     0.046 A 
HETATM   14  C   UNK N   1      34.852  10.530  12.551  0.00  0.00     0.010 A 
HETATM   15  C   UNK N   1      34.685  10.019  10.191  0.00  0.00     0.032 A 
HETATM   16  C   UNK N   1      34.758   8.649  10.508  0.00  0.00     0.021 A 
HETATM   17  C   UNK N   1      34.878   8.233  11.851  0.00  0.00     0.011 A 
HETATM   18  C   UNK N   1      34.925   9.181  12.880  0.00  0.00     0.034 A 
HETATM   19  O   UNK N   1      34.737  14.027  12.653  0.00  0.00    -0.267 OA
HETATM   20  O   UNK N   1      35.120   9.548  15.525  0.00  0.00    -0.285 OA
HETATM   21 Br   UNK N   1      34.977   6.383  12.290  0.00  0.00    -0.051 Br
HETATM   22  H   UNK N   1      34.925  13.975  15.034  0.00  0.00     0.166 HD
HETATM   23  H   UNK N   1      34.594  12.870  10.312  0.00  0.00     0.169 HD
ENDROOT
TORSDOF 0
ENDMDL
MODEL 8
REMARK VINA RESULT:      -6.9     14.937     16.935
REMARK  0 active torsions:
REMARK  status: ('A' for Active; 'I' for Inactive)
ROOT
HETATM    1  C   UNK N   1      32.021  15.912   7.440  0.00  0.00     0.043 A 
HETATM    2  C   UNK N   1      33.245  15.180   7.672  0.00  0.00     0.212 A 
HETATM    3  C   UNK N   1      31.954  16.919   8.379  0.00  0.00     0.047 A 
HETATM    4  N   UNK N   1      33.076  16.910   9.243  0.00  0.00    -0.351 N 
HETATM    5  C   UNK N   1      30.878  17.803   8.413  0.00  0.00     0.030 A 
HETATM    6  C   UNK N   1      29.858  17.637   7.455  0.00  0.00     0.002 A 
HETATM    7  C   UNK N   1      29.933  16.604   6.496  0.00  0.00     0.001 A 
HETATM    8  C   UNK N   1      31.029  15.725   6.484  0.00  0.00     0.018 A 
HETATM    9  C   UNK N   1      33.901  15.832   8.823  0.00  0.00     0.101 A 
HETATM   10  C   UNK N   1      35.071  15.506   9.413  0.00  0.00     0.075 A 
HETATM   11  C   UNK N   1      35.717  16.166  10.565  0.00  0.00     0.259 A 
HETATM   12  N   UNK N   1      36.885  15.559  10.876  0.00  0.00    -0.322 N 
HETATM   13  C   UNK N   1      37.053  14.498   9.962  0.00  0.00     0.046 A 
HETATM   14  C   UNK N   1      36.002  14.427   9.074  0.00  0.00     0.010 A 
HETATM   15  C   UNK N   1      38.119  13.600   9.907  0.00  0.00     0.032 A 
HETATM   16  C   UNK N   1      38.095  12.606   8.909  0.00  0.00     0.021 A 
HETATM   17  C   UNK N   1      37.017  12.534   8.000  0.00  0.00     0.011 A 
HETATM   18  C   UNK N   1      35.963  13.452   8.084  0.00  0.00     0.034 A 
HETATM   19  O   UNK N   1      35.283  17.130  11.177  0.00  0.00    -0.267 OA
HETATM   20  O   UNK N   1      33.628  14.221   7.025  0.00  0.00    -0.285 OA
HETATM   21 Br   UNK N   1      36.974  11.194   6.648  0.00  0.00    -0.051 Br
HETATM   22  H   UNK N   1      33.250  17.529   9.989  0.00  0.00     0.166 HD
HETATM   23  H   UNK N   1      37.500  15.811  11.603  0.00  0.00     0.169 HD
ENDROOT
TORSDOF 0
ENDMDL
MODEL 9
REMARK VINA RESULT:      -6.8      2.039      6.347
REMARK  0 active torsions:
REMARK  status: ('A' for Active; 'I' for Inactive)
ROOT
HETATM    1  C   UNK N   1      32.401  20.524  -5.466  0.00  0.00     0.043 A 
HETATM    2  C   UNK N   1      31.187  21.304  -5.550  0.00  0.00     0.212 A 
HETATM    3  C   UNK N   1      32.842  20.579  -4.160  0.00  0.00     0.047 A 
HETATM    4  N   UNK N   1      31.985  21.360  -3.347  0.00  0.00    -0.351 N 
HETATM    5  C   UNK N   1      34.002  19.918  -3.763  0.00  0.00     0.030 A 
HETATM    6  C   UNK N   1      34.713  19.190  -4.737  0.00  0.00     0.002 A 
HETATM    7  C   UNK N   1      34.256  19.138  -6.072  0.00  0.00     0.001 A 
HETATM    8  C   UNK N   1      33.083  19.813  -6.447  0.00  0.00     0.018 A 
HETATM    9  C   UNK N   1      30.941  21.826  -4.191  0.00  0.00     0.101 A 
HETATM   10  C   UNK N   1      29.926  22.610  -3.768  0.00  0.00     0.075 A 
HETATM   11  C   UNK N   1      29.689  23.127  -2.405  0.00  0.00     0.259 A 
HETATM   12  N   UNK N   1      28.567  23.880  -2.362  0.00  0.00    -0.322 N 
HETATM   13  C   UNK N   1      28.029  23.890  -3.667  0.00  0.00     0.046 A 
HETATM   14  C   UNK N   1      28.800  23.150  -4.536  0.00  0.00     0.010 A 
HETATM   15  C   UNK N   1      26.871  24.542  -4.090  0.00  0.00     0.032 A 
HETATM   16  C   UNK N   1      26.505  24.425  -5.445  0.00  0.00     0.021 A 
HETATM   17  C   UNK N   1      27.297  23.666  -6.335  0.00  0.00     0.011 A 
HETATM   18  C   UNK N   1      28.453  23.024  -5.875  0.00  0.00     0.034 A 
HETATM   19  O   UNK N   1      30.393  22.921  -1.427  0.00  0.00    -0.267 OA
HETATM   20  O   UNK N   1      30.525  21.474  -6.559  0.00  0.00    -0.285 OA
HETATM   21 Br   UNK N   1      26.811  23.502  -8.168  0.00  0.00    -0.051 Br
HETATM   22  H   UNK N   1      32.092  21.544  -2.386  0.00  0.00     0.166 HD
HETATM   23  H   UNK N   1      28.197  24.334  -1.571  0.00  0.00     0.169 HD
ENDROOT
TORSDOF 0
ENDMDL
