REMARK  0 active torsions:
REMARK  status: ('A' for Active; 'I' for Inactive)
ROOT
HETATM    1  C   UNK N   1      -0.781   2.339  -0.000  0.00  0.00     0.043 A 
HETATM    2  C   UNK N   1       0.147   1.231  -0.000  0.00  0.00     0.212 A 
HETATM    3  C   UNK N   1      -2.056   1.814   0.000  0.00  0.00     0.047 A 
HETATM    4  N   UNK N   1      -2.043   0.398   0.000  0.00  0.00    -0.351 N 
HETATM    5  C   UNK N   1      -3.176   2.642   0.000  0.00  0.00     0.030 A 
HETATM    6  C   UNK N   1      -2.967   4.035   0.000  0.00  0.00     0.002 A 
HETATM    7  C   UNK N   1      -1.658   4.566  -0.000  0.00  0.00     0.001 A 
HETATM    8  C   UNK N   1      -0.545   3.709  -0.000  0.00  0.00     0.018 A 
HETATM    9  C   UNK N   1      -0.677   0.006  -0.000  0.00  0.00     0.101 A 
HETATM   10  C   UNK N   1      -0.264  -1.280  -0.000  0.00  0.00     0.075 A 
HETATM   11  C   UNK N   1      -1.098  -2.498   0.000  0.00  0.00     0.259 A 
HETATM   12  N   UNK N   1      -0.329  -3.610   0.000  0.00  0.00    -0.322 N 
HETATM   13  C   UNK N   1       1.015  -3.180  -0.000  0.00  0.00     0.046 A 
HETATM   14  C   UNK N   1       1.104  -1.805  -0.000  0.00  0.00     0.010 A 
HETATM   15  C   UNK N   1       2.153  -3.987   0.000  0.00  0.00     0.032 A 
HETATM   16  C   UNK N   1       3.411  -3.354   0.000  0.00  0.00     0.021 A 
HETATM   17  C   UNK N   1       3.501  -1.945   0.000  0.00  0.00     0.011 A 
HETATM   18  C   UNK N   1       2.338  -1.166   0.000  0.00  0.00     0.034 A 
HETATM   19  O   UNK N   1      -2.320  -2.532   0.000  0.00  0.00    -0.267 OA
HETATM   20  O   UNK N   1       1.362   1.327  -0.000  0.00  0.00    -0.285 OA
HETATM   21 Br   UNK N   1       5.197  -1.080   0.000  0.00  0.00    -0.051 Br
HETATM   22  H   UNK N   1      -2.827  -0.198   0.000  0.00  0.00     0.166 HD
HETATM   23  H   UNK N   1      -0.647  -4.542   0.000  0.00  0.00     0.169 HD
ENDROOT
TORSDOF 0
