REMARK  2 active torsions:
REMARK  status: ('A' for Active; 'I' for Inactive)
REMARK    1  A    between atoms: C_9  and  O_11 
REMARK    2  A    between atoms: O_11  and  C_12 
ROOT
HETATM    1  C   UNK N   1       1.103   1.101  -0.079  0.00  0.00     0.189 C 
HETATM    2  C   UNK N   1       0.111   2.243  -0.087  0.00  0.00    -0.019 A 
HETATM    3  C   UNK N   1      -1.011   2.138  -0.923  0.00  0.00     0.011 A 
HETATM    4  C   UNK N   1      -2.000   3.121  -0.913  0.00  0.00     0.001 A 
HETATM    5  C   UNK N   1      -1.880   4.224  -0.065  0.00  0.00     0.001 A 
HETATM    6  C   UNK N   1      -0.757   4.350   0.757  0.00  0.00     0.007 A 
HETATM    7  C   UNK N   1       0.234   3.364   0.752  0.00  0.00    -0.049 A 
HETATM    8  C   UNK N   1       1.457   3.564   1.563  0.00  0.00     0.043 C 
HETATM    9  C   UNK N   1       2.554   3.825   0.550  0.00  0.00     0.043 C 
HETATM   10  C   UNK N   1       3.256   2.581   0.110  0.00  0.00    -0.049 A 
HETATM   11  C   UNK N   1       4.651   2.658   0.009  0.00  0.00     0.007 A 
HETATM   12  C   UNK N   1       5.403   1.554  -0.383  0.00  0.00     0.001 A 
HETATM   13  C   UNK N   1       4.769   0.349  -0.673  0.00  0.00     0.001 A 
HETATM   14  C   UNK N   1       3.380   0.250  -0.574  0.00  0.00     0.011 A 
HETATM   15  C   UNK N   1       2.599   1.351  -0.196  0.00  0.00    -0.019 A 
ENDROOT
BRANCH   1  16
HETATM   16  O   UNK N   1       0.845   0.189   0.971  0.00  0.00    -0.371 OA
BRANCH  16  17
HETATM   17  C   UNK N   1      -0.158  -0.724   0.565  0.00  0.00     0.126 C 
HETATM   18  C   UNK N   1      -0.634  -1.547   1.771  0.00  0.00     0.065 C 
HETATM   19  C   UNK N   1      -1.320  -2.890   1.396  0.00  0.00     0.192 C 
HETATM   20  N   UNK N   1      -1.780  -2.935  -0.008  0.00  0.00    -0.066 N 
HETATM   21  C   UNK N   1      -0.211  -3.942   1.460  0.00  0.00     0.035 C 
HETATM   22  C   UNK N   1      -2.693  -1.863  -0.401  0.00  0.00     0.273 C 
HETATM   23  C   UNK N   1      -2.523  -4.175  -0.260  0.00  0.00     0.273 C 
HETATM   24  C   UNK N   1      -0.490  -2.957  -0.726  0.00  0.00     0.192 C 
HETATM   25  C   UNK N   1       0.349  -3.983   0.037  0.00  0.00     0.035 C 
HETATM   26  C   UNK N   1       0.287  -1.619  -0.614  0.00  0.00     0.065 C 
ENDBRANCH  16  17
ENDBRANCH   1  16
TORSDOF 2
