MODEL 1
REMARK VINA RESULT:      -7.9      0.000      0.000
REMARK  2 active torsions:
REMARK  status: ('A' for Active; 'I' for Inactive)
REMARK    1  A    between atoms: C_9  and  O_11 
REMARK    2  A    between atoms: O_11  and  C_12 
ROOT
HETATM    1  C   UNK N   1      28.294  23.577  -5.302  0.00  0.00     0.189 C 
HETATM    2  C   UNK N   1      27.504  22.873  -6.382  0.00  0.00    -0.019 A 
HETATM    3  C   UNK N   1      26.107  23.010  -6.375  0.00  0.00     0.011 A 
HETATM    4  C   UNK N   1      25.333  22.450  -7.391  0.00  0.00     0.001 A 
HETATM    5  C   UNK N   1      25.946  21.746  -8.429  0.00  0.00     0.001 A 
HETATM    6  C   UNK N   1      27.334  21.585  -8.436  0.00  0.00     0.007 A 
HETATM    7  C   UNK N   1      28.113  22.148  -7.421  0.00  0.00    -0.049 A 
HETATM    8  C   UNK N   1      29.571  21.888  -7.400  0.00  0.00     0.043 C 
HETATM    9  C   UNK N   1      29.780  20.957  -6.222  0.00  0.00     0.043 C 
HETATM   10  C   UNK N   1      30.064  21.680  -4.945  0.00  0.00    -0.049 A 
HETATM   11  C   UNK N   1      31.082  21.147  -4.143  0.00  0.00     0.007 A 
HETATM   12  C   UNK N   1      31.433  21.749  -2.938  0.00  0.00     0.001 A 
HETATM   13  C   UNK N   1      30.775  22.901  -2.519  0.00  0.00     0.001 A 
HETATM   14  C   UNK N   1      29.761  23.451  -3.305  0.00  0.00     0.011 A 
HETATM   15  C   UNK N   1      29.378  22.856  -4.515  0.00  0.00    -0.019 A 
ENDROOT
BRANCH   1  16
HETATM   16  O   UNK N   1      28.768  24.838  -5.736  0.00  0.00    -0.371 OA
BRANCH  16  17
HETATM   17  C   UNK N   1      28.029  25.863  -5.098  0.00  0.00     0.126 C 
HETATM   18  C   UNK N   1      27.175  26.612  -6.132  0.00  0.00     0.065 C 
HETATM   19  C   UNK N   1      26.737  28.035  -5.688  0.00  0.00     0.192 C 
HETATM   20  N   UNK N   1      26.835  28.243  -4.228  0.00  0.00    -0.066 N 
HETATM   21  C   UNK N   1      27.788  28.981  -6.271  0.00  0.00     0.035 C 
HETATM   22  C   UNK N   1      26.087  27.290  -3.410  0.00  0.00     0.273 C 
HETATM   23  C   UNK N   1      26.294  29.558  -3.865  0.00  0.00     0.273 C 
HETATM   24  C   UNK N   1      28.299  28.222  -4.038  0.00  0.00     0.192 C 
HETATM   25  C   UNK N   1      28.838  29.103  -5.165  0.00  0.00     0.035 C 
HETATM   26  C   UNK N   1      28.919  26.820  -4.273  0.00  0.00     0.065 C 
ENDBRANCH  16  17
ENDBRANCH   1  16
TORSDOF 2
ENDMDL
MODEL 2
REMARK VINA RESULT:      -7.8     12.902     16.728
REMARK  2 active torsions:
REMARK  status: ('A' for Active; 'I' for Inactive)
REMARK    1  A    between atoms: C_9  and  O_11 
REMARK    2  A    between atoms: O_11  and  C_12 
ROOT
HETATM    1  C   UNK N   1      31.566  16.898   6.973  0.00  0.00     0.189 C 
HETATM    2  C   UNK N   1      31.706  16.912   5.467  0.00  0.00    -0.019 A 
HETATM    3  C   UNK N   1      32.923  17.346   4.920  0.00  0.00     0.011 A 
HETATM    4  C   UNK N   1      33.139  17.305   3.544  0.00  0.00     0.001 A 
HETATM    5  C   UNK N   1      32.140  16.828   2.693  0.00  0.00     0.001 A 
HETATM    6  C   UNK N   1      30.916  16.412   3.224  0.00  0.00     0.007 A 
HETATM    7  C   UNK N   1      30.697  16.448   4.604  0.00  0.00    -0.049 A 
HETATM    8  C   UNK N   1      29.362  16.089   5.135  0.00  0.00     0.043 C 
HETATM    9  C   UNK N   1      28.770  17.400   5.612  0.00  0.00     0.043 C 
HETATM   10  C   UNK N   1      29.071  17.695   7.046  0.00  0.00    -0.049 A 
HETATM   11  C   UNK N   1      28.012  18.199   7.812  0.00  0.00     0.007 A 
HETATM   12  C   UNK N   1      28.183  18.497   9.161  0.00  0.00     0.001 A 
HETATM   13  C   UNK N   1      29.418  18.288   9.768  0.00  0.00     0.001 A 
HETATM   14  C   UNK N   1      30.485  17.782   9.023  0.00  0.00     0.011 A 
HETATM   15  C   UNK N   1      30.343  17.488   7.660  0.00  0.00    -0.019 A 
ENDROOT
BRANCH   1  16
HETATM   16  O   UNK N   1      31.859  15.625   7.516  0.00  0.00    -0.371 OA
BRANCH  16  17
HETATM   17  C   UNK N   1      32.995  15.721   8.354  0.00  0.00     0.126 C 
HETATM   18  C   UNK N   1      34.253  15.297   7.581  0.00  0.00     0.065 C 
HETATM   19  C   UNK N   1      35.441  14.865   8.484  0.00  0.00     0.192 C 
HETATM   20  N   UNK N   1      35.316  15.343   9.877  0.00  0.00    -0.066 N 
HETATM   21  C   UNK N   1      35.329  13.344   8.599  0.00  0.00     0.035 C 
HETATM   22  C   UNK N   1      35.165  16.789  10.030  0.00  0.00     0.273 C 
HETATM   23  C   UNK N   1      36.524  15.007  10.640  0.00  0.00     0.273 C 
HETATM   24  C   UNK N   1      34.172  14.538  10.349  0.00  0.00     0.192 C 
HETATM   25  C   UNK N   1      34.473  13.125   9.848  0.00  0.00     0.035 C 
HETATM   26  C   UNK N   1      32.833  14.940   9.678  0.00  0.00     0.065 C 
ENDBRANCH  16  17
ENDBRANCH   1  16
TORSDOF 2
ENDMDL
MODEL 3
REMARK VINA RESULT:      -7.7     20.217     24.282
REMARK  2 active torsions:
REMARK  status: ('A' for Active; 'I' for Inactive)
REMARK    1  A    between atoms: C_9  and  O_11 
REMARK    2  A    between atoms: O_11  and  C_12 
ROOT
HETATM    1  C   UNK N   1      36.459  12.812  14.638  0.00  0.00     0.189 C 
HETATM    2  C   UNK N   1      36.467  13.788  15.794  0.00  0.00    -0.019 A 
HETATM    3  C   UNK N   1      37.257  14.942  15.679  0.00  0.00     0.011 A 
HETATM    4  C   UNK N   1      37.242  15.916  16.677  0.00  0.00     0.001 A 
HETATM    5  C   UNK N   1      36.435  15.749  17.804  0.00  0.00     0.001 A 
HETATM    6  C   UNK N   1      35.660  14.594  17.939  0.00  0.00     0.007 A 
HETATM    7  C   UNK N   1      35.670  13.618  16.939  0.00  0.00    -0.049 A 
HETATM    8  C   UNK N   1      34.912  12.362  17.146  0.00  0.00     0.043 C 
HETATM    9  C   UNK N   1      35.973  11.301  17.359  0.00  0.00     0.043 C 
HETATM   10  C   UNK N   1      36.399  10.633  16.091  0.00  0.00    -0.049 A 
HETATM   11  C   UNK N   1      36.554   9.242  16.144  0.00  0.00     0.007 A 
HETATM   12  C   UNK N   1      36.938   8.521  15.017  0.00  0.00     0.001 A 
HETATM   13  C   UNK N   1      37.165   9.182  13.813  0.00  0.00     0.001 A 
HETATM   14  C   UNK N   1      37.011  10.567  13.738  0.00  0.00     0.011 A 
HETATM   15  C   UNK N   1      36.640  11.318  14.862  0.00  0.00    -0.019 A 
ENDROOT
BRANCH   1  16
HETATM   16  O   UNK N   1      35.372  13.043  13.764  0.00  0.00    -0.371 OA
BRANCH  16  17
HETATM   17  C   UNK N   1      35.857  13.221  12.446  0.00  0.00     0.126 C 
HETATM   18  C   UNK N   1      36.035  14.718  12.153  0.00  0.00     0.065 C 
HETATM   19  C   UNK N   1      36.055  15.075  10.641  0.00  0.00     0.192 C 
HETATM   20  N   UNK N   1      36.338  13.911   9.774  0.00  0.00    -0.066 N 
HETATM   21  C   UNK N   1      34.614  15.456  10.296  0.00  0.00     0.035 C 
HETATM   22  C   UNK N   1      37.584  13.204  10.064  0.00  0.00     0.273 C 
HETATM   23  C   UNK N   1      36.463  14.338   8.375  0.00  0.00     0.273 C 
HETATM   24  C   UNK N   1      35.107  13.117   9.958  0.00  0.00     0.192 C 
HETATM   25  C   UNK N   1      33.977  14.141   9.843  0.00  0.00     0.035 C 
HETATM   26  C   UNK N   1      34.981  12.518  11.384  0.00  0.00     0.065 C 
ENDBRANCH  16  17
ENDBRANCH   1  16
TORSDOF 2
ENDMDL
MODEL 4
REMARK VINA RESULT:      -7.5      2.585      6.405
REMARK  2 active torsions:
REMARK  status: ('A' for Active; 'I' for Inactive)
REMARK    1  A    between atoms: C_9  and  O_11 
REMARK    2  A    between atoms: O_11  and  C_12 
ROOT
HETATM    1  C   UNK N   1      28.630  26.889  -4.417  0.00  0.00     0.189 C 
HETATM    2  C   UNK N   1      27.414  26.862  -5.316  0.00  0.00    -0.019 A 
HETATM    3  C   UNK N   1      27.594  26.500  -6.660  0.00  0.00     0.011 A 
HETATM    4  C   UNK N   1      26.501  26.378  -7.517  0.00  0.00     0.001 A 
HETATM    5  C   UNK N   1      25.210  26.617  -7.040  0.00  0.00     0.001 A 
HETATM    6  C   UNK N   1      25.020  26.998  -5.710  0.00  0.00     0.007 A 
HETATM    7  C   UNK N   1      26.114  27.117  -4.847  0.00  0.00    -0.049 A 
HETATM    8  C   UNK N   1      25.897  27.610  -3.468  0.00  0.00     0.043 C 
HETATM    9  C   UNK N   1      26.500  29.001  -3.455  0.00  0.00     0.043 C 
HETATM   10  C   UNK N   1      27.938  29.015  -3.051  0.00  0.00    -0.049 A 
HETATM   11  C   UNK N   1      28.324  30.028  -2.164  0.00  0.00     0.007 A 
HETATM   12  C   UNK N   1      29.639  30.126  -1.716  0.00  0.00     0.001 A 
HETATM   13  C   UNK N   1      30.589  29.203  -2.144  0.00  0.00     0.001 A 
HETATM   14  C   UNK N   1      30.224  28.183  -3.024  0.00  0.00     0.011 A 
HETATM   15  C   UNK N   1      28.911  28.072  -3.501  0.00  0.00    -0.019 A 
ENDROOT
BRANCH   1  16
HETATM   16  O   UNK N   1      28.782  25.678  -3.703  0.00  0.00    -0.371 OA
BRANCH  16  17
HETATM   17  C   UNK N   1      29.650  24.817  -4.418  0.00  0.00     0.126 C 
HETATM   18  C   UNK N   1      28.976  23.453  -4.628  0.00  0.00     0.065 C 
HETATM   19  C   UNK N   1      29.966  22.291  -4.919  0.00  0.00     0.192 C 
HETATM   20  N   UNK N   1      31.294  22.758  -5.368  0.00  0.00    -0.066 N 
HETATM   21  C   UNK N   1      30.238  21.643  -3.560  0.00  0.00     0.035 C 
HETATM   22  C   UNK N   1      31.287  23.619  -6.550  0.00  0.00     0.273 C 
HETATM   23  C   UNK N   1      32.136  21.615  -5.740  0.00  0.00     0.273 C 
HETATM   24  C   UNK N   1      31.804  23.388  -4.134  0.00  0.00     0.192 C 
HETATM   25  C   UNK N   1      31.468  22.383  -3.031  0.00  0.00     0.035 C 
HETATM   26  C   UNK N   1      31.042  24.686  -3.759  0.00  0.00     0.065 C 
ENDBRANCH  16  17
ENDBRANCH   1  16
TORSDOF 2
ENDMDL
MODEL 5
REMARK VINA RESULT:      -7.3     11.261     14.332
REMARK  2 active torsions:
REMARK  status: ('A' for Active; 'I' for Inactive)
REMARK    1  A    between atoms: C_9  and  O_11 
REMARK    2  A    between atoms: O_11  and  C_12 
ROOT
HETATM    1  C   UNK N   1      28.497  17.737   5.383  0.00  0.00     0.189 C 
HETATM    2  C   UNK N   1      27.816  19.012   5.831  0.00  0.00    -0.019 A 
HETATM    3  C   UNK N   1      27.838  19.328   7.197  0.00  0.00     0.011 A 
HETATM    4  C   UNK N   1      27.299  20.528   7.659  0.00  0.00     0.001 A 
HETATM    5  C   UNK N   1      26.730  21.430   6.758  0.00  0.00     0.001 A 
HETATM    6  C   UNK N   1      26.684  21.117   5.397  0.00  0.00     0.007 A 
HETATM    7  C   UNK N   1      27.227  19.917   4.931  0.00  0.00    -0.049 A 
HETATM    8  C   UNK N   1      27.085  19.566   3.499  0.00  0.00     0.043 C 
HETATM    9  C   UNK N   1      26.085  18.427   3.477  0.00  0.00     0.043 C 
HETATM   10  C   UNK N   1      26.727  17.080   3.566  0.00  0.00    -0.049 A 
HETATM   11  C   UNK N   1      26.218  16.092   2.714  0.00  0.00     0.007 A 
HETATM   12  C   UNK N   1      26.750  14.806   2.710  0.00  0.00     0.001 A 
HETATM   13  C   UNK N   1      27.809  14.489   3.556  0.00  0.00     0.001 A 
HETATM   14  C   UNK N   1      28.334  15.461   4.411  0.00  0.00     0.011 A 
HETATM   15  C   UNK N   1      27.806  16.759   4.444  0.00  0.00    -0.019 A 
ENDROOT
BRANCH   1  16
HETATM   16  O   UNK N   1      29.821  17.974   4.946  0.00  0.00    -0.371 OA
BRANCH  16  17
HETATM   17  C   UNK N   1      30.695  17.053   5.573  0.00  0.00     0.126 C 
HETATM   18  C   UNK N   1      30.513  17.115   7.097  0.00  0.00     0.065 C 
HETATM   19  C   UNK N   1      31.722  16.569   7.906  0.00  0.00     0.192 C 
HETATM   20  N   UNK N   1      32.616  15.706   7.104  0.00  0.00    -0.066 N 
HETATM   21  C   UNK N   1      32.578  17.794   8.230  0.00  0.00     0.035 C 
HETATM   22  C   UNK N   1      31.971  14.558   6.469  0.00  0.00     0.273 C 
HETATM   23  C   UNK N   1      33.663  15.129   7.954  0.00  0.00     0.273 C 
HETATM   24  C   UNK N   1      33.199  16.693   6.174  0.00  0.00     0.192 C 
HETATM   25  C   UNK N   1      33.566  17.881   7.066  0.00  0.00     0.035 C 
HETATM   26  C   UNK N   1      32.170  17.244   5.152  0.00  0.00     0.065 C 
ENDBRANCH  16  17
ENDBRANCH   1  16
TORSDOF 2
ENDMDL
MODEL 6
REMARK VINA RESULT:      -7.3     23.392     27.504
REMARK  2 active torsions:
REMARK  status: ('A' for Active; 'I' for Inactive)
REMARK    1  A    between atoms: C_9  and  O_11 
REMARK    2  A    between atoms: O_11  and  C_12 
ROOT
HETATM    1  C   UNK N   1      35.212  11.838  16.046  0.00  0.00     0.189 C 
HETATM    2  C   UNK N   1      35.629  13.196  16.566  0.00  0.00    -0.019 A 
HETATM    3  C   UNK N   1      35.016  13.673  17.734  0.00  0.00     0.011 A 
HETATM    4  C   UNK N   1      35.416  14.880  18.306  0.00  0.00     0.001 A 
HETATM    5  C   UNK N   1      36.438  15.628  17.715  0.00  0.00     0.001 A 
HETATM    6  C   UNK N   1      37.041  15.173  16.540  0.00  0.00     0.007 A 
HETATM    7  C   UNK N   1      36.645  13.961  15.967  0.00  0.00    -0.049 A 
HETATM    8  C   UNK N   1      37.234  13.545  14.674  0.00  0.00     0.043 C 
HETATM    9  C   UNK N   1      36.110  13.700  13.669  0.00  0.00     0.043 C 
HETATM   10  C   UNK N   1      35.296  12.457  13.502  0.00  0.00    -0.049 A 
HETATM   11  C   UNK N   1      34.953  12.112  12.188  0.00  0.00     0.007 A 
HETATM   12  C   UNK N   1      34.205  10.969  11.920  0.00  0.00     0.001 A 
HETATM   13  C   UNK N   1      33.795  10.146  12.966  0.00  0.00     0.001 A 
HETATM   14  C   UNK N   1      34.131  10.470  14.281  0.00  0.00     0.011 A 
HETATM   15  C   UNK N   1      34.870  11.623  14.579  0.00  0.00    -0.019 A 
ENDROOT
BRANCH   1  16
HETATM   16  O   UNK N   1      36.078  10.815  16.496  0.00  0.00    -0.371 OA
BRANCH  16  17
HETATM   17  C   UNK N   1      35.683  10.401  17.791  0.00  0.00     0.126 C 
HETATM   18  C   UNK N   1      36.825   9.623  18.462  0.00  0.00     0.065 C 
HETATM   19  C   UNK N   1      36.369   8.695  19.622  0.00  0.00     0.192 C 
HETATM   20  N   UNK N   1      35.035   9.043  20.155  0.00  0.00    -0.066 N 
HETATM   21  C   UNK N   1      36.169   7.318  18.984  0.00  0.00     0.035 C 
HETATM   22  C   UNK N   1      34.890  10.420  20.625  0.00  0.00     0.273 C 
HETATM   23  C   UNK N   1      34.720   8.211  21.321  0.00  0.00     0.273 C 
HETATM   24  C   UNK N   1      34.172   8.674  19.015  0.00  0.00     0.192 C 
HETATM   25  C   UNK N   1      34.695   7.307  18.572  0.00  0.00     0.035 C 
HETATM   26  C   UNK N   1      34.357   9.607  17.789  0.00  0.00     0.065 C 
ENDBRANCH  16  17
ENDBRANCH   1  16
TORSDOF 2
ENDMDL
MODEL 7
REMARK VINA RESULT:      -7.2     25.902     29.308
REMARK  2 active torsions:
REMARK  status: ('A' for Active; 'I' for Inactive)
REMARK    1  A    between atoms: C_9  and  O_11 
REMARK    2  A    between atoms: O_11  and  C_12 
ROOT
HETATM    1  C   UNK N   1      35.092   9.866  17.678  0.00  0.00     0.189 C 
HETATM    2  C   UNK N   1      35.463   9.227  16.359  0.00  0.00    -0.019 A 
HETATM    3  C   UNK N   1      36.287   8.091  16.384  0.00  0.00     0.011 A 
HETATM    4  C   UNK N   1      36.597   7.411  15.206  0.00  0.00     0.001 A 
HETATM    5  C   UNK N   1      36.086   7.858  13.986  0.00  0.00     0.001 A 
HETATM    6  C   UNK N   1      35.282   9.000  13.946  0.00  0.00     0.007 A 
HETATM    7  C   UNK N   1      34.966   9.682  15.125  0.00  0.00    -0.049 A 
HETATM    8  C   UNK N   1      34.188  10.940  15.048  0.00  0.00     0.043 C 
HETATM    9  C   UNK N   1      35.183  12.031  15.392  0.00  0.00     0.043 C 
HETATM   10  C   UNK N   1      35.226  12.348  16.852  0.00  0.00    -0.049 A 
HETATM   11  C   UNK N   1      35.281  13.706  17.190  0.00  0.00     0.007 A 
HETATM   12  C   UNK N   1      35.314  14.112  18.521  0.00  0.00     0.001 A 
HETATM   13  C   UNK N   1      35.285  13.162  19.538  0.00  0.00     0.001 A 
HETATM   14  C   UNK N   1      35.225  11.803  19.222  0.00  0.00     0.011 A 
HETATM   15  C   UNK N   1      35.206  11.368  17.890  0.00  0.00    -0.019 A 
ENDROOT
BRANCH   1  16
HETATM   16  O   UNK N   1      33.842   9.404  18.152  0.00  0.00    -0.371 OA
BRANCH  16  17
HETATM   17  C   UNK N   1      34.034   8.674  19.350  0.00  0.00     0.126 C 
HETATM   18  C   UNK N   1      33.835   7.175  19.086  0.00  0.00     0.065 C 
HETATM   19  C   UNK N   1      33.506   6.341  20.356  0.00  0.00     0.192 C 
HETATM   20  N   UNK N   1      33.869   7.030  21.613  0.00  0.00    -0.066 N 
HETATM   21  C   UNK N   1      31.979   6.259  20.402  0.00  0.00     0.035 C 
HETATM   22  C   UNK N   1      35.269   7.440  21.719  0.00  0.00     0.273 C 
HETATM   23  C   UNK N   1      33.648   6.144  22.761  0.00  0.00     0.273 C 
HETATM   24  C   UNK N   1      32.888   8.134  21.622  0.00  0.00     0.192 C 
HETATM   25  C   UNK N   1      31.565   7.465  21.248  0.00  0.00     0.035 C 
HETATM   26  C   UNK N   1      33.151   9.185  20.512  0.00  0.00     0.065 C 
ENDBRANCH  16  17
ENDBRANCH   1  16
TORSDOF 2
ENDMDL
MODEL 8
REMARK VINA RESULT:      -7.1     11.682     14.708
REMARK  2 active torsions:
REMARK  status: ('A' for Active; 'I' for Inactive)
REMARK    1  A    between atoms: C_9  and  O_11 
REMARK    2  A    between atoms: O_11  and  C_12 
ROOT
HETATM    1  C   UNK N   1      28.944  17.221   5.859  0.00  0.00     0.189 C 
HETATM    2  C   UNK N   1      28.327  18.601   5.910  0.00  0.00    -0.019 A 
HETATM    3  C   UNK N   1      28.116  19.276   4.698  0.00  0.00     0.011 A 
HETATM    4  C   UNK N   1      27.478  20.516   4.676  0.00  0.00     0.001 A 
HETATM    5  C   UNK N   1      27.041  21.098   5.867  0.00  0.00     0.001 A 
HETATM    6  C   UNK N   1      27.264  20.445   7.083  0.00  0.00     0.007 A 
HETATM    7  C   UNK N   1      27.899  19.200   7.107  0.00  0.00    -0.049 A 
HETATM    8  C   UNK N   1      28.205  18.570   8.413  0.00  0.00     0.043 C 
HETATM    9  C   UNK N   1      29.712  18.672   8.547  0.00  0.00     0.043 C 
HETATM   10  C   UNK N   1      30.432  17.483   7.998  0.00  0.00    -0.049 A 
HETATM   11  C   UNK N   1      31.494  16.991   8.768  0.00  0.00     0.007 A 
HETATM   12  C   UNK N   1      32.226  15.881   8.353  0.00  0.00     0.001 A 
HETATM   13  C   UNK N   1      31.900  15.240   7.161  0.00  0.00     0.001 A 
HETATM   14  C   UNK N   1      30.842  15.712   6.382  0.00  0.00     0.011 A 
HETATM   15  C   UNK N   1      30.100  16.836   6.770  0.00  0.00    -0.019 A 
ENDROOT
BRANCH   1  16
HETATM   16  O   UNK N   1      27.959  16.205   5.871  0.00  0.00    -0.371 OA
BRANCH  16  17
HETATM   17  C   UNK N   1      28.284  15.224   4.903  0.00  0.00     0.126 C 
HETATM   18  C   UNK N   1      28.329  15.863   3.507  0.00  0.00     0.065 C 
HETATM   19  C   UNK N   1      28.158  14.853   2.338  0.00  0.00     0.192 C 
HETATM   20  N   UNK N   1      28.420  13.454   2.736  0.00  0.00    -0.066 N 
HETATM   21  C   UNK N   1      26.666  14.873   2.001  0.00  0.00     0.035 C 
HETATM   22  C   UNK N   1      29.735  13.208   3.326  0.00  0.00     0.273 C 
HETATM   23  C   UNK N   1      28.362  12.573   1.564  0.00  0.00     0.273 C 
HETATM   24  C   UNK N   1      27.272  13.196   3.628  0.00  0.00     0.192 C 
HETATM   25  C   UNK N   1      26.071  13.764   2.871  0.00  0.00     0.035 C 
HETATM   26  C   UNK N   1      27.345  13.997   4.954  0.00  0.00     0.065 C 
ENDBRANCH  16  17
ENDBRANCH   1  16
TORSDOF 2
ENDMDL
MODEL 9
REMARK VINA RESULT:      -6.9      2.047      6.289
REMARK  2 active torsions:
REMARK  status: ('A' for Active; 'I' for Inactive)
REMARK    1  A    between atoms: C_9  and  O_11 
REMARK    2  A    between atoms: O_11  and  C_12 
ROOT
HETATM    1  C   UNK N   1      27.472  24.564  -5.824  0.00  0.00     0.189 C 
HETATM    2  C   UNK N   1      26.909  25.788  -5.136  0.00  0.00    -0.019 A 
HETATM    3  C   UNK N   1      26.751  25.749  -3.742  0.00  0.00     0.011 A 
HETATM    4  C   UNK N   1      26.313  26.874  -3.044  0.00  0.00     0.001 A 
HETATM    5  C   UNK N   1      26.026  28.055  -3.732  0.00  0.00     0.001 A 
HETATM    6  C   UNK N   1      26.160  28.100  -5.122  0.00  0.00     0.007 A 
HETATM    7  C   UNK N   1      26.603  26.975  -5.824  0.00  0.00    -0.049 A 
HETATM    8  C   UNK N   1      26.649  27.017  -7.304  0.00  0.00     0.043 C 
HETATM    9  C   UNK N   1      25.520  26.111  -7.752  0.00  0.00     0.043 C 
HETATM   10  C   UNK N   1      25.948  24.693  -7.950  0.00  0.00    -0.049 A 
HETATM   11  C   UNK N   1      25.455  24.049  -9.093  0.00  0.00     0.007 A 
HETATM   12  C   UNK N   1      25.800  22.731  -9.377  0.00  0.00     0.001 A 
HETATM   13  C   UNK N   1      26.654  22.036  -8.525  0.00  0.00     0.001 A 
HETATM   14  C   UNK N   1      27.160  22.661  -7.384  0.00  0.00     0.011 A 
HETATM   15  C   UNK N   1      26.817  23.982  -7.067  0.00  0.00    -0.019 A 
ENDROOT
BRANCH   1  16
HETATM   16  O   UNK N   1      28.870  24.667  -6.016  0.00  0.00    -0.371 OA
BRANCH  16  17
HETATM   17  C   UNK N   1      29.539  23.938  -5.003  0.00  0.00     0.126 C 
HETATM   18  C   UNK N   1      30.956  24.496  -4.809  0.00  0.00     0.065 C 
HETATM   19  C   UNK N   1      31.945  23.504  -4.135  0.00  0.00     0.192 C 
HETATM   20  N   UNK N   1      31.266  22.403  -3.420  0.00  0.00    -0.066 N 
HETATM   21  C   UNK N   1      32.670  22.809  -5.290  0.00  0.00     0.035 C 
HETATM   22  C   UNK N   1      30.311  22.820  -2.394  0.00  0.00     0.273 C 
HETATM   23  C   UNK N   1      32.248  21.577  -2.708  0.00  0.00     0.273 C 
HETATM   24  C   UNK N   1      30.686  21.649  -4.549  0.00  0.00     0.192 C 
HETATM   25  C   UNK N   1      31.822  21.567  -5.570  0.00  0.00     0.035 C 
HETATM   26  C   UNK N   1      29.541  22.414  -5.262  0.00  0.00     0.065 C 
ENDBRANCH  16  17
ENDBRANCH   1  16
TORSDOF 2
ENDMDL
