MODEL 1
REMARK VINA RESULT:      -7.3      0.000      0.000
REMARK  7 active torsions:
REMARK  status: ('A' for Active; 'I' for Inactive)
REMARK    1  A    between atoms: O_2  and  C_3 
REMARK    2  A    between atoms: C_8  and  C_9 
REMARK    3  A    between atoms: C_10  and  C_11 
REMARK       I    between atoms: C_11  and  N_13 
REMARK    4  A    between atoms: N_13  and  C_14 
REMARK    5  A    between atoms: C_19  and  C_20 
REMARK    6  A    between atoms: C_24  and  O_25 
REMARK    7  A    between atoms: C_27  and  O_28 
ROOT
HETATM    1  C   UNK N   1      31.009  16.812   4.612  0.00  0.00     0.037 A 
HETATM    2  C   UNK N   1      31.272  16.201   3.377  0.00  0.00     0.129 A 
HETATM    3  N   UNK N   1      30.260  16.474   2.533  0.00  0.00    -0.294 N 
ATOM      4  HN  UNK N   1      30.199  16.159   1.565  1.00  0.00     0.187 HD
HETATM    5  N   UNK N   1      29.359  17.215   3.156  0.00  0.00    -0.298 N 
HETATM    6  C   UNK N   1      29.766  17.448   4.419  0.00  0.00     0.074 A 
HETATM    7  H   UNK N   1      28.521  17.546   2.759  0.00  0.00     0.187 HD
ENDROOT
BRANCH   6   8
HETATM    8  C   UNK N   1      28.928  18.231   5.386  0.00  0.00     0.028 A 
HETATM    9  C   UNK N   1      28.868  17.857   6.732  0.00  0.00     0.043 A 
HETATM   10  C   UNK N   1      28.121  18.572   7.662  0.00  0.00     0.068 A 
HETATM   11 Cl   UNK N   1      28.128  18.056   9.339  0.00  0.00    -0.081 Cl
HETATM   12  C   UNK N   1      27.391  19.689   7.251  0.00  0.00     0.090 A 
HETATM   13  C   UNK N   1      27.408  20.070   5.907  0.00  0.00     0.075 A 
HETATM   14  C   UNK N   1      28.162  19.350   4.972  0.00  0.00     0.081 A 
BRANCH  12  15
HETATM   15  O   UNK N   1      26.676  20.400   8.138  0.00  0.00    -0.359 OA
HETATM   16  H   UNK N   1      27.049  21.159   8.543  0.00  0.00     0.217 HD
ENDBRANCH  12  15
BRANCH  14  17
HETATM   17  O   UNK N   1      28.158  19.755   3.690  0.00  0.00    -0.360 OA
HETATM   18  H   UNK N   1      28.639  19.293   3.031  0.00  0.00     0.217 HD
ENDBRANCH  14  17
ENDBRANCH   6   8
BRANCH   1  19
HETATM   19  C   UNK N   1      31.889  16.845   5.823  0.00  0.00    -0.021 A 
HETATM   20  C   UNK N   1      33.040  17.645   5.835  0.00  0.00     0.015 A 
HETATM   21  C   UNK N   1      33.881  17.688   6.946  0.00  0.00     0.037 A 
HETATM   22  C   UNK N   1      33.594  16.921   8.073  0.00  0.00     0.068 A 
HETATM   23  C   UNK N   1      32.454  16.098   8.070  0.00  0.00     0.037 A 
HETATM   24  C   UNK N   1      31.616  16.060   6.951  0.00  0.00     0.015 A 
BRANCH  22  25
HETATM   25  O   UNK N   1      34.425  16.989   9.139  0.00  0.00    -0.356 OA
HETATM   26  C   UNK N   1      35.039  15.886   9.689  0.00  0.00     0.210 C 
ENDBRANCH  22  25
ENDBRANCH   1  19
BRANCH   2  27
HETATM   27  C   UNK N   1      32.473  15.456   2.914  0.00  0.00     0.270 C 
HETATM   28  O   UNK N   1      33.479  16.042   2.554  0.00  0.00    -0.266 OA
HETATM   29  N   UNK N   1      32.417  14.104   2.839  0.00  0.00    -0.356 N 
HETATM   30  H   UNK N   1      31.602  13.641   3.141  0.00  0.00     0.162 HD
BRANCH  29  31
HETATM   31  C   UNK N   1      33.517  13.322   2.328  0.00  0.00     0.118 C 
HETATM   32  C   UNK N   1      32.987  12.204   1.458  0.00  0.00     0.026 C 
ENDBRANCH  29  31
ENDBRANCH   2  27
TORSDOF 7
ENDMDL
MODEL 2
REMARK VINA RESULT:      -7.2      3.016      5.259
REMARK  7 active torsions:
REMARK  status: ('A' for Active; 'I' for Inactive)
REMARK    1  A    between atoms: O_2  and  C_3 
REMARK    2  A    between atoms: C_8  and  C_9 
REMARK    3  A    between atoms: C_10  and  C_11 
REMARK       I    between atoms: C_11  and  N_13 
REMARK    4  A    between atoms: N_13  and  C_14 
REMARK    5  A    between atoms: C_19  and  C_20 
REMARK    6  A    between atoms: C_24  and  O_25 
REMARK    7  A    between atoms: C_27  and  O_28 
ROOT
HETATM    1  C   UNK N   1      31.312  17.276   6.909  0.00  0.00     0.037 A 
HETATM    2  C   UNK N   1      31.942  17.676   8.096  0.00  0.00     0.129 A 
HETATM    3  N   UNK N   1      31.000  17.965   9.012  0.00  0.00    -0.294 N 
ATOM      4  HN  UNK N   1      31.180  18.275   9.966  1.00  0.00     0.187 HD
HETATM    5  N   UNK N   1      29.802  17.784   8.479  0.00  0.00    -0.298 N 
HETATM    6  C   UNK N   1      29.937  17.366   7.206  0.00  0.00     0.074 A 
HETATM    7  H   UNK N   1      28.945  17.930   8.941  0.00  0.00     0.187 HD
ENDROOT
BRANCH   6   8
HETATM    8  C   UNK N   1      28.747  17.113   6.329  0.00  0.00     0.028 A 
HETATM    9  C   UNK N   1      28.531  15.844   5.780  0.00  0.00     0.043 A 
HETATM   10  C   UNK N   1      27.428  15.566   4.981  0.00  0.00     0.068 A 
HETATM   11 Cl   UNK N   1      27.213  13.939   4.360  0.00  0.00    -0.081 Cl
HETATM   12  C   UNK N   1      26.508  16.577   4.697  0.00  0.00     0.090 A 
HETATM   13  C   UNK N   1      26.711  17.862   5.206  0.00  0.00     0.075 A 
HETATM   14  C   UNK N   1      27.822  18.139   6.012  0.00  0.00     0.081 A 
BRANCH  12  15
HETATM   15  O   UNK N   1      25.428  16.322   3.939  0.00  0.00    -0.359 OA
HETATM   16  H   UNK N   1      24.903  17.028   3.615  0.00  0.00     0.217 HD
ENDBRANCH  12  15
BRANCH  14  17
HETATM   17  O   UNK N   1      27.977  19.387   6.491  0.00  0.00    -0.360 OA
HETATM   18  H   UNK N   1      27.985  19.558   7.412  0.00  0.00     0.217 HD
ENDBRANCH  14  17
ENDBRANCH   6   8
BRANCH   1  19
HETATM   19  C   UNK N   1      31.958  16.788   5.649  0.00  0.00    -0.021 A 
HETATM   20  C   UNK N   1      32.490  15.492   5.586  0.00  0.00     0.015 A 
HETATM   21  C   UNK N   1      33.103  15.016   4.429  0.00  0.00     0.037 A 
HETATM   22  C   UNK N   1      33.210  15.832   3.305  0.00  0.00     0.068 A 
HETATM   23  C   UNK N   1      32.699  17.141   3.357  0.00  0.00     0.037 A 
HETATM   24  C   UNK N   1      32.086  17.611   4.523  0.00  0.00     0.015 A 
BRANCH  22  25
HETATM   25  O   UNK N   1      33.804  15.339   2.194  0.00  0.00    -0.356 OA
HETATM   26  C   UNK N   1      34.483  14.141   2.169  0.00  0.00     0.210 C 
ENDBRANCH  22  25
ENDBRANCH   1  19
BRANCH   2  27
HETATM   27  C   UNK N   1      33.386  17.706   8.450  0.00  0.00     0.270 C 
HETATM   28  O   UNK N   1      34.188  18.330   7.778  0.00  0.00    -0.266 OA
HETATM   29  N   UNK N   1      33.817  16.973   9.507  0.00  0.00    -0.356 N 
HETATM   30  H   UNK N   1      33.158  16.480  10.047  0.00  0.00     0.162 HD
BRANCH  29  31
HETATM   31  C   UNK N   1      35.213  16.895   9.861  0.00  0.00     0.118 C 
HETATM   32  C   UNK N   1      35.363  16.184  11.188  0.00  0.00     0.026 C 
ENDBRANCH  29  31
ENDBRANCH   2  27
TORSDOF 7
ENDMDL
MODEL 3
REMARK VINA RESULT:      -7.1     11.667     13.585
REMARK  7 active torsions:
REMARK  status: ('A' for Active; 'I' for Inactive)
REMARK    1  A    between atoms: O_2  and  C_3 
REMARK    2  A    between atoms: C_8  and  C_9 
REMARK    3  A    between atoms: C_10  and  C_11 
REMARK       I    between atoms: C_11  and  N_13 
REMARK    4  A    between atoms: N_13  and  C_14 
REMARK    5  A    between atoms: C_19  and  C_20 
REMARK    6  A    between atoms: C_24  and  O_25 
REMARK    7  A    between atoms: C_27  and  O_28 
ROOT
HETATM    1  C   UNK N   1      27.143  24.952  -5.018  0.00  0.00     0.037 A 
HETATM    2  C   UNK N   1      26.208  24.479  -5.949  0.00  0.00     0.129 A 
HETATM    3  N   UNK N   1      25.463  25.512  -6.381  0.00  0.00    -0.294 N 
ATOM      4  HN  UNK N   1      24.711  25.451  -7.068  1.00  0.00     0.187 HD
HETATM    5  N   UNK N   1      25.858  26.619  -5.775  0.00  0.00    -0.298 N 
HETATM    6  C   UNK N   1      26.874  26.334  -4.939  0.00  0.00     0.074 A 
HETATM    7  H   UNK N   1      25.470  27.514  -5.913  0.00  0.00     0.187 HD
ENDROOT
BRANCH   6   8
HETATM    8  C   UNK N   1      27.508  27.387  -4.079  0.00  0.00     0.028 A 
HETATM    9  C   UNK N   1      28.900  27.515  -4.031  0.00  0.00     0.043 A 
HETATM   10  C   UNK N   1      29.523  28.494  -3.264  0.00  0.00     0.068 A 
HETATM   11 Cl   UNK N   1      31.274  28.608  -3.285  0.00  0.00    -0.081 Cl
HETATM   12  C   UNK N   1      28.750  29.371  -2.502  0.00  0.00     0.090 A 
HETATM   13  C   UNK N   1      27.357  29.250  -2.507  0.00  0.00     0.075 A 
HETATM   14  C   UNK N   1      26.732  28.265  -3.281  0.00  0.00     0.081 A 
BRANCH  12  15
HETATM   15  O   UNK N   1      29.334  30.332  -1.767  0.00  0.00    -0.359 OA
HETATM   16  H   UNK N   1      29.971  30.899  -2.155  0.00  0.00     0.217 HD
ENDBRANCH  12  15
BRANCH  14  17
HETATM   17  O   UNK N   1      25.390  28.187  -3.265  0.00  0.00    -0.360 OA
HETATM   18  H   UNK N   1      24.873  28.522  -3.971  0.00  0.00     0.217 HD
ENDBRANCH  14  17
ENDBRANCH   6   8
BRANCH   1  19
HETATM   19  C   UNK N   1      28.227  24.178  -4.334  0.00  0.00    -0.021 A 
HETATM   20  C   UNK N   1      28.088  23.810  -2.989  0.00  0.00     0.015 A 
HETATM   21  C   UNK N   1      29.086  23.097  -2.325  0.00  0.00     0.037 A 
HETATM   22  C   UNK N   1      30.256  22.743  -2.993  0.00  0.00     0.068 A 
HETATM   23  C   UNK N   1      30.421  23.121  -4.337  0.00  0.00     0.037 A 
HETATM   24  C   UNK N   1      29.415  23.837  -4.995  0.00  0.00     0.015 A 
BRANCH  22  25
HETATM   25  O   UNK N   1      31.203  22.044  -2.325  0.00  0.00    -0.356 OA
HETATM   26  C   UNK N   1      32.342  21.554  -2.923  0.00  0.00     0.210 C 
ENDBRANCH  22  25
ENDBRANCH   1  19
BRANCH   2  27
HETATM   27  C   UNK N   1      26.041  23.120  -6.532  0.00  0.00     0.270 C 
HETATM   28  O   UNK N   1      25.086  22.422  -6.242  0.00  0.00    -0.266 OA
HETATM   29  N   UNK N   1      27.007  22.636  -7.352  0.00  0.00    -0.356 N 
HETATM   30  H   UNK N   1      27.769  23.213  -7.585  0.00  0.00     0.162 HD
BRANCH  29  31
HETATM   31  C   UNK N   1      26.948  21.300  -7.892  0.00  0.00     0.118 C 
HETATM   32  C   UNK N   1      28.347  20.737  -8.013  0.00  0.00     0.026 C 
ENDBRANCH  29  31
ENDBRANCH   2  27
TORSDOF 7
ENDMDL
MODEL 4
REMARK VINA RESULT:      -7.1      2.623      6.429
REMARK  7 active torsions:
REMARK  status: ('A' for Active; 'I' for Inactive)
REMARK    1  A    between atoms: O_2  and  C_3 
REMARK    2  A    between atoms: C_8  and  C_9 
REMARK    3  A    between atoms: C_10  and  C_11 
REMARK       I    between atoms: C_11  and  N_13 
REMARK    4  A    between atoms: N_13  and  C_14 
REMARK    5  A    between atoms: C_19  and  C_20 
REMARK    6  A    between atoms: C_24  and  O_25 
REMARK    7  A    between atoms: C_27  and  O_28 
ROOT
HETATM    1  C   UNK N   1      28.425  16.895   4.120  0.00  0.00     0.037 A 
HETATM    2  C   UNK N   1      27.637  16.006   3.374  0.00  0.00     0.129 A 
HETATM    3  N   UNK N   1      28.386  14.941   3.035  0.00  0.00    -0.294 N 
ATOM      4  HN  UNK N   1      28.060  14.139   2.496  1.00  0.00     0.187 HD
HETATM    5  N   UNK N   1      29.611  15.099   3.510  0.00  0.00    -0.298 N 
HETATM    6  C   UNK N   1      29.686  16.267   4.175  0.00  0.00     0.074 A 
HETATM    7  H   UNK N   1      30.352  14.461   3.396  0.00  0.00     0.187 HD
ENDROOT
BRANCH   6   8
HETATM    8  C   UNK N   1      30.968  16.740   4.795  0.00  0.00     0.028 A 
HETATM    9  C   UNK N   1      31.138  16.700   6.183  0.00  0.00     0.043 A 
HETATM   10  C   UNK N   1      32.319  17.109   6.792  0.00  0.00     0.068 A 
HETATM   11 Cl   UNK N   1      32.464  16.994   8.536  0.00  0.00    -0.081 Cl
HETATM   12  C   UNK N   1      33.370  17.590   6.008  0.00  0.00     0.090 A 
HETATM   13  C   UNK N   1      33.219  17.670   4.621  0.00  0.00     0.075 A 
HETATM   14  C   UNK N   1      32.029  17.256   4.010  0.00  0.00     0.081 A 
BRANCH  12  15
HETATM   15  O   UNK N   1      34.524  17.975   6.578  0.00  0.00    -0.359 OA
HETATM   16  H   UNK N   1      34.704  17.754   7.471  0.00  0.00     0.217 HD
ENDBRANCH  12  15
BRANCH  14  17
HETATM   17  O   UNK N   1      31.927  17.340   2.672  0.00  0.00    -0.360 OA
HETATM   18  H   UNK N   1      31.272  17.872   2.265  0.00  0.00     0.217 HD
ENDBRANCH  14  17
ENDBRANCH   6   8
BRANCH   1  19
HETATM   19  C   UNK N   1      27.997  18.172   4.772  0.00  0.00    -0.021 A 
HETATM   20  C   UNK N   1      28.015  18.291   6.169  0.00  0.00     0.015 A 
HETATM   21  C   UNK N   1      27.614  19.466   6.803  0.00  0.00     0.037 A 
HETATM   22  C   UNK N   1      27.172  20.552   6.051  0.00  0.00     0.068 A 
HETATM   23  C   UNK N   1      27.129  20.444   4.650  0.00  0.00     0.037 A 
HETATM   24  C   UNK N   1      27.533  19.261   4.022  0.00  0.00     0.015 A 
BRANCH  22  25
HETATM   25  O   UNK N   1      26.796  21.682   6.694  0.00  0.00    -0.356 OA
HETATM   26  C   UNK N   1      25.891  21.694   7.732  0.00  0.00     0.210 C 
ENDBRANCH  22  25
ENDBRANCH   1  19
BRANCH   2  27
HETATM   27  C   UNK N   1      26.187  16.056   3.048  0.00  0.00     0.270 C 
HETATM   28  O   UNK N   1      25.799  16.042   1.893  0.00  0.00    -0.266 OA
HETATM   29  N   UNK N   1      25.292  16.180   4.058  0.00  0.00    -0.356 N 
HETATM   30  H   UNK N   1      25.617  16.182   4.987  0.00  0.00     0.162 HD
BRANCH  29  31
HETATM   31  C   UNK N   1      23.876  16.311   3.811  0.00  0.00     0.118 C 
HETATM   32  C   UNK N   1      23.450  17.745   4.032  0.00  0.00     0.026 C 
ENDBRANCH  29  31
ENDBRANCH   2  27
TORSDOF 7
ENDMDL
MODEL 5
REMARK VINA RESULT:      -7.0      2.914      5.198
REMARK  7 active torsions:
REMARK  status: ('A' for Active; 'I' for Inactive)
REMARK    1  A    between atoms: O_2  and  C_3 
REMARK    2  A    between atoms: C_8  and  C_9 
REMARK    3  A    between atoms: C_10  and  C_11 
REMARK       I    between atoms: C_11  and  N_13 
REMARK    4  A    between atoms: N_13  and  C_14 
REMARK    5  A    between atoms: C_19  and  C_20 
REMARK    6  A    between atoms: C_24  and  O_25 
REMARK    7  A    between atoms: C_27  and  O_28 
ROOT
HETATM    1  C   UNK N   1      31.487  17.201   6.822  0.00  0.00     0.037 A 
HETATM    2  C   UNK N   1      32.070  17.433   8.076  0.00  0.00     0.129 A 
HETATM    3  N   UNK N   1      31.115  17.836   8.933  0.00  0.00    -0.294 N 
ATOM      4  HN  UNK N   1      31.262  18.067   9.916  1.00  0.00     0.187 HD
HETATM    5  N   UNK N   1      29.954  17.887   8.300  0.00  0.00    -0.298 N 
HETATM    6  C   UNK N   1      30.125  17.511   7.019  0.00  0.00     0.074 A 
HETATM    7  H   UNK N   1      29.097  18.156   8.704  0.00  0.00     0.187 HD
ENDROOT
BRANCH   6   8
HETATM    8  C   UNK N   1      28.989  17.506   6.039  0.00  0.00     0.028 A 
HETATM    9  C   UNK N   1      28.380  18.706   5.659  0.00  0.00     0.043 A 
HETATM   10  C   UNK N   1      27.339  18.744   4.737  0.00  0.00     0.068 A 
HETATM   11 Cl   UNK N   1      26.652  20.295   4.289  0.00  0.00    -0.081 Cl
HETATM   12  C   UNK N   1      26.868  17.555   4.178  0.00  0.00     0.090 A 
HETATM   13  C   UNK N   1      27.437  16.337   4.561  0.00  0.00     0.075 A 
HETATM   14  C   UNK N   1      28.486  16.302   5.487  0.00  0.00     0.081 A 
BRANCH  12  15
HETATM   15  O   UNK N   1      25.873  17.573   3.275  0.00  0.00    -0.359 OA
HETATM   16  H   UNK N   1      25.859  16.945   2.579  0.00  0.00     0.217 HD
ENDBRANCH  12  15
BRANCH  14  17
HETATM   17  O   UNK N   1      29.012  15.110   5.822  0.00  0.00    -0.360 OA
HETATM   18  H   UNK N   1      29.126  14.432   5.186  0.00  0.00     0.217 HD
ENDBRANCH  14  17
ENDBRANCH   6   8
BRANCH   1  19
HETATM   19  C   UNK N   1      32.147  16.669   5.589  0.00  0.00    -0.021 A 
HETATM   20  C   UNK N   1      32.297  17.488   4.461  0.00  0.00     0.015 A 
HETATM   21  C   UNK N   1      32.901  17.015   3.297  0.00  0.00     0.037 A 
HETATM   22  C   UNK N   1      33.362  15.702   3.230  0.00  0.00     0.068 A 
HETATM   23  C   UNK N   1      33.202  14.861   4.345  0.00  0.00     0.037 A 
HETATM   24  C   UNK N   1      32.594  15.343   5.509  0.00  0.00     0.015 A 
BRANCH  22  25
HETATM   25  O   UNK N   1      33.950  15.273   2.089  0.00  0.00    -0.356 OA
HETATM   26  C   UNK N   1      34.639  14.085   1.995  0.00  0.00     0.210 C 
ENDBRANCH  22  25
ENDBRANCH   1  19
BRANCH   2  27
HETATM   27  C   UNK N   1      33.464  17.199   8.541  0.00  0.00     0.270 C 
HETATM   28  O   UNK N   1      34.384  17.897   8.152  0.00  0.00    -0.266 OA
HETATM   29  N   UNK N   1      33.713  16.151   9.364  0.00  0.00    -0.356 N 
HETATM   30  H   UNK N   1      32.960  15.600   9.678  0.00  0.00     0.162 HD
BRANCH  29  31
HETATM   31  C   UNK N   1      35.050  15.820   9.793  0.00  0.00     0.118 C 
HETATM   32  C   UNK N   1      35.342  16.491  11.117  0.00  0.00     0.026 C 
ENDBRANCH  29  31
ENDBRANCH   2  27
TORSDOF 7
ENDMDL
MODEL 6
REMARK VINA RESULT:      -6.8      2.950      6.442
REMARK  7 active torsions:
REMARK  status: ('A' for Active; 'I' for Inactive)
REMARK    1  A    between atoms: O_2  and  C_3 
REMARK    2  A    between atoms: C_8  and  C_9 
REMARK    3  A    between atoms: C_10  and  C_11 
REMARK       I    between atoms: C_11  and  N_13 
REMARK    4  A    between atoms: N_13  and  C_14 
REMARK    5  A    between atoms: C_19  and  C_20 
REMARK    6  A    between atoms: C_24  and  O_25 
REMARK    7  A    between atoms: C_27  and  O_28 
ROOT
HETATM    1  C   UNK N   1      30.799  16.671   6.737  0.00  0.00     0.037 A 
HETATM    2  C   UNK N   1      29.435  16.989   6.806  0.00  0.00     0.129 A 
HETATM    3  N   UNK N   1      29.118  17.271   8.083  0.00  0.00    -0.294 N 
ATOM      4  HN  UNK N   1      28.192  17.541   8.415  1.00  0.00     0.187 HD
HETATM    5  N   UNK N   1      30.196  17.142   8.839  0.00  0.00    -0.298 N 
HETATM    6  C   UNK N   1      31.241  16.780   8.072  0.00  0.00     0.074 A 
HETATM    7  H   UNK N   1      30.229  17.288   9.813  0.00  0.00     0.187 HD
ENDROOT
BRANCH   6   8
HETATM    8  C   UNK N   1      32.597  16.519   8.658  0.00  0.00     0.028 A 
HETATM    9  C   UNK N   1      32.885  15.283   9.248  0.00  0.00     0.043 A 
HETATM   10  C   UNK N   1      34.136  14.996   9.782  0.00  0.00     0.068 A 
HETATM   11 Cl   UNK N   1      34.425  13.410  10.474  0.00  0.00    -0.081 Cl
HETATM   12  C   UNK N   1      35.141  15.965   9.748  0.00  0.00     0.090 A 
HETATM   13  C   UNK N   1      34.875  17.219   9.191  0.00  0.00     0.075 A 
HETATM   14  C   UNK N   1      33.614  17.505   8.653  0.00  0.00     0.081 A 
BRANCH  12  15
HETATM   15  O   UNK N   1      36.361  15.700  10.246  0.00  0.00    -0.359 OA
HETATM   16  H   UNK N   1      36.534  14.872  10.649  0.00  0.00     0.217 HD
ENDBRANCH  12  15
BRANCH  14  17
HETATM   17  O   UNK N   1      33.402  18.721   8.118  0.00  0.00    -0.360 OA
HETATM   18  H   UNK N   1      33.316  19.482   8.657  0.00  0.00     0.217 HD
ENDBRANCH  14  17
ENDBRANCH   6   8
BRANCH   1  19
HETATM   19  C   UNK N   1      31.608  16.368   5.515  0.00  0.00    -0.021 A 
HETATM   20  C   UNK N   1      31.991  15.049   5.233  0.00  0.00     0.015 A 
HETATM   21  C   UNK N   1      32.752  14.740   4.106  0.00  0.00     0.037 A 
HETATM   22  C   UNK N   1      33.158  15.749   3.236  0.00  0.00     0.068 A 
HETATM   23  C   UNK N   1      32.800  17.080   3.514  0.00  0.00     0.037 A 
HETATM   24  C   UNK N   1      32.037  17.381   4.648  0.00  0.00     0.015 A 
BRANCH  22  25
HETATM   25  O   UNK N   1      33.889  15.418   2.147  0.00  0.00    -0.356 OA
HETATM   26  C   UNK N   1      34.532  14.208   2.009  0.00  0.00     0.210 C 
ENDBRANCH  22  25
ENDBRANCH   1  19
BRANCH   2  27
HETATM   27  C   UNK N   1      28.432  17.142   5.718  0.00  0.00     0.270 C 
HETATM   28  O   UNK N   1      28.166  16.217   4.971  0.00  0.00    -0.266 OA
HETATM   29  N   UNK N   1      27.854  18.353   5.525  0.00  0.00    -0.356 N 
HETATM   30  H   UNK N   1      28.071  19.090   6.141  0.00  0.00     0.162 HD
BRANCH  29  31
HETATM   31  C   UNK N   1      26.931  18.593   4.443  0.00  0.00     0.118 C 
HETATM   32  C   UNK N   1      27.205  19.948   3.830  0.00  0.00     0.026 C 
ENDBRANCH  29  31
ENDBRANCH   2  27
TORSDOF 7
ENDMDL
MODEL 7
REMARK VINA RESULT:      -6.7      3.480      7.435
REMARK  7 active torsions:
REMARK  status: ('A' for Active; 'I' for Inactive)
REMARK    1  A    between atoms: O_2  and  C_3 
REMARK    2  A    between atoms: C_8  and  C_9 
REMARK    3  A    between atoms: C_10  and  C_11 
REMARK       I    between atoms: C_11  and  N_13 
REMARK    4  A    between atoms: N_13  and  C_14 
REMARK    5  A    between atoms: C_19  and  C_20 
REMARK    6  A    between atoms: C_24  and  O_25 
REMARK    7  A    between atoms: C_27  and  O_28 
ROOT
HETATM    1  C   UNK N   1      30.552  17.055   7.207  0.00  0.00     0.037 A 
HETATM    2  C   UNK N   1      29.996  17.919   8.161  0.00  0.00     0.129 A 
HETATM    3  N   UNK N   1      30.903  18.138   9.130  0.00  0.00    -0.294 N 
ATOM      4  HN  UNK N   1      30.764  18.735   9.945  1.00  0.00     0.187 HD
HETATM    5  N   UNK N   1      32.005  17.458   8.859  0.00  0.00    -0.298 N 
HETATM    6  C   UNK N   1      31.843  16.785   7.704  0.00  0.00     0.074 A 
HETATM    7  H   UNK N   1      32.818  17.445   9.415  0.00  0.00     0.187 HD
ENDROOT
BRANCH   6   8
HETATM    8  C   UNK N   1      32.915  15.889   7.156  0.00  0.00     0.028 A 
HETATM    9  C   UNK N   1      32.759  14.499   7.193  0.00  0.00     0.043 A 
HETATM   10  C   UNK N   1      33.719  13.637   6.675  0.00  0.00     0.068 A 
HETATM   11 Cl   UNK N   1      33.431  11.907   6.730  0.00  0.00    -0.081 Cl
HETATM   12  C   UNK N   1      34.886  14.159   6.113  0.00  0.00     0.090 A 
HETATM   13  C   UNK N   1      35.083  15.542   6.089  0.00  0.00     0.075 A 
HETATM   14  C   UNK N   1      34.114  16.409   6.609  0.00  0.00     0.081 A 
BRANCH  12  15
HETATM   15  O   UNK N   1      35.818  13.342   5.595  0.00  0.00    -0.359 OA
HETATM   16  H   UNK N   1      36.618  13.188   6.058  0.00  0.00     0.217 HD
ENDBRANCH  12  15
BRANCH  14  17
HETATM   17  O   UNK N   1      34.338  17.734   6.558  0.00  0.00    -0.360 OA
HETATM   18  H   UNK N   1      33.957  18.317   7.184  0.00  0.00     0.217 HD
ENDBRANCH  14  17
ENDBRANCH   6   8
BRANCH   1  19
HETATM   19  C   UNK N   1      29.940  16.596   5.920  0.00  0.00    -0.021 A 
HETATM   20  C   UNK N   1      30.412  17.096   4.698  0.00  0.00     0.015 A 
HETATM   21  C   UNK N   1      29.855  16.692   3.485  0.00  0.00     0.037 A 
HETATM   22  C   UNK N   1      28.800  15.783   3.467  0.00  0.00     0.068 A 
HETATM   23  C   UNK N   1      28.301  15.286   4.684  0.00  0.00     0.037 A 
HETATM   24  C   UNK N   1      28.866  15.697   5.896  0.00  0.00     0.015 A 
BRANCH  22  25
HETATM   25  O   UNK N   1      28.285  15.404   2.274  0.00  0.00    -0.356 OA
HETATM   26  C   UNK N   1      27.777  14.147   2.037  0.00  0.00     0.210 C 
ENDBRANCH  22  25
ENDBRANCH   1  19
BRANCH   2  27
HETATM   27  C   UNK N   1      28.691  18.632   8.161  0.00  0.00     0.270 C 
HETATM   28  O   UNK N   1      27.850  18.410   9.015  0.00  0.00    -0.266 OA
HETATM   29  N   UNK N   1      28.418  19.498   7.154  0.00  0.00    -0.356 N 
HETATM   30  H   UNK N   1      29.108  19.676   6.476  0.00  0.00     0.162 HD
BRANCH  29  31
HETATM   31  C   UNK N   1      27.144  20.167   7.049  0.00  0.00     0.118 C 
HETATM   32  C   UNK N   1      27.287  21.406   6.194  0.00  0.00     0.026 C 
ENDBRANCH  29  31
ENDBRANCH   2  27
TORSDOF 7
ENDMDL
MODEL 8
REMARK VINA RESULT:      -6.6      4.803      6.870
REMARK  7 active torsions:
REMARK  status: ('A' for Active; 'I' for Inactive)
REMARK    1  A    between atoms: O_2  and  C_3 
REMARK    2  A    between atoms: C_8  and  C_9 
REMARK    3  A    between atoms: C_10  and  C_11 
REMARK       I    between atoms: C_11  and  N_13 
REMARK    4  A    between atoms: N_13  and  C_14 
REMARK    5  A    between atoms: C_19  and  C_20 
REMARK    6  A    between atoms: C_24  and  O_25 
REMARK    7  A    between atoms: C_27  and  O_28 
ROOT
HETATM    1  C   UNK N   1      26.742  17.792   3.869  0.00  0.00     0.037 A 
HETATM    2  C   UNK N   1      28.064  18.177   4.138  0.00  0.00     0.129 A 
HETATM    3  N   UNK N   1      28.088  19.496   4.400  0.00  0.00    -0.294 N 
ATOM      4  HN  UNK N   1      28.921  20.035   4.634  1.00  0.00     0.187 HD
HETATM    5  N   UNK N   1      26.861  19.983   4.305  0.00  0.00    -0.298 N 
HETATM    6  C   UNK N   1      26.009  18.990   3.985  0.00  0.00     0.074 A 
HETATM    7  H   UNK N   1      26.610  20.924   4.446  0.00  0.00     0.187 HD
ENDROOT
BRANCH   6   8
HETATM    8  C   UNK N   1      24.547  19.246   3.769  0.00  0.00     0.028 A 
HETATM    9  C   UNK N   1      23.589  18.478   4.440  0.00  0.00     0.043 A 
HETATM   10  C   UNK N   1      22.226  18.699   4.283  0.00  0.00     0.068 A 
HETATM   11 Cl   UNK N   1      21.091  17.713   5.188  0.00  0.00    -0.081 Cl
HETATM   12  C   UNK N   1      21.784  19.705   3.421  0.00  0.00     0.090 A 
HETATM   13  C   UNK N   1      22.716  20.470   2.715  0.00  0.00     0.075 A 
HETATM   14  C   UNK N   1      24.089  20.246   2.876  0.00  0.00     0.081 A 
BRANCH  12  15
HETATM   15  O   UNK N   1      20.471  19.944   3.269  0.00  0.00    -0.359 OA
HETATM   16  H   UNK N   1      19.844  19.286   3.498  0.00  0.00     0.217 HD
ENDBRANCH  12  15
BRANCH  14  17
HETATM   17  O   UNK N   1      24.953  21.010   2.184  0.00  0.00    -0.360 OA
HETATM   18  H   UNK N   1      25.045  20.924   1.256  0.00  0.00     0.217 HD
ENDBRANCH  14  17
ENDBRANCH   6   8
BRANCH   1  19
HETATM   19  C   UNK N   1      26.226  16.412   3.603  0.00  0.00    -0.021 A 
HETATM   20  C   UNK N   1      25.951  15.545   4.670  0.00  0.00     0.015 A 
HETATM   21  C   UNK N   1      25.478  14.252   4.450  0.00  0.00     0.037 A 
HETATM   22  C   UNK N   1      25.277  13.791   3.152  0.00  0.00     0.068 A 
HETATM   23  C   UNK N   1      25.566  14.640   2.069  0.00  0.00     0.037 A 
HETATM   24  C   UNK N   1      26.041  15.936   2.298  0.00  0.00     0.015 A 
BRANCH  22  25
HETATM   25  O   UNK N   1      24.809  12.534   2.970  0.00  0.00    -0.356 OA
HETATM   26  C   UNK N   1      23.740  12.018   3.668  0.00  0.00     0.210 C 
ENDBRANCH  22  25
ENDBRANCH   1  19
BRANCH   2  27
HETATM   27  C   UNK N   1      29.294  17.350   4.262  0.00  0.00     0.270 C 
HETATM   28  O   UNK N   1      29.831  17.175   5.341  0.00  0.00    -0.266 OA
HETATM   29  N   UNK N   1      29.855  16.838   3.138  0.00  0.00    -0.356 N 
HETATM   30  H   UNK N   1      29.408  16.980   2.273  0.00  0.00     0.162 HD
BRANCH  29  31
HETATM   31  C   UNK N   1      31.089  16.092   3.175  0.00  0.00     0.118 C 
HETATM   32  C   UNK N   1      32.251  17.011   2.867  0.00  0.00     0.026 C 
ENDBRANCH  29  31
ENDBRANCH   2  27
TORSDOF 7
ENDMDL
MODEL 9
REMARK VINA RESULT:      -6.6      3.907      7.221
REMARK  7 active torsions:
REMARK  status: ('A' for Active; 'I' for Inactive)
REMARK    1  A    between atoms: O_2  and  C_3 
REMARK    2  A    between atoms: C_8  and  C_9 
REMARK    3  A    between atoms: C_10  and  C_11 
REMARK       I    between atoms: C_11  and  N_13 
REMARK    4  A    between atoms: N_13  and  C_14 
REMARK    5  A    between atoms: C_19  and  C_20 
REMARK    6  A    between atoms: C_24  and  O_25 
REMARK    7  A    between atoms: C_27  and  O_28 
ROOT
HETATM    1  C   UNK N   1      26.899  18.055   5.426  0.00  0.00     0.037 A 
HETATM    2  C   UNK N   1      25.943  19.041   5.143  0.00  0.00     0.129 A 
HETATM    3  N   UNK N   1      26.095  20.056   6.012  0.00  0.00    -0.294 N 
ATOM      4  HN  UNK N   1      25.535  20.908   6.027  1.00  0.00     0.187 HD
HETATM    5  N   UNK N   1      27.085  19.775   6.844  0.00  0.00    -0.298 N 
HETATM    6  C   UNK N   1      27.605  18.573   6.531  0.00  0.00     0.074 A 
HETATM    7  H   UNK N   1      27.394  20.355   7.577  0.00  0.00     0.187 HD
ENDROOT
BRANCH   6   8
HETATM    8  C   UNK N   1      28.722  17.966   7.327  0.00  0.00     0.028 A 
HETATM    9  C   UNK N   1      29.888  17.529   6.688  0.00  0.00     0.043 A 
HETATM   10  C   UNK N   1      30.953  16.982   7.394  0.00  0.00     0.068 A 
HETATM   11 Cl   UNK N   1      32.393  16.489   6.521  0.00  0.00    -0.081 Cl
HETATM   12  C   UNK N   1      30.866  16.845   8.781  0.00  0.00     0.090 A 
HETATM   13  C   UNK N   1      29.703  17.246   9.444  0.00  0.00     0.075 A 
HETATM   14  C   UNK N   1      28.632  17.798   8.731  0.00  0.00     0.081 A 
BRANCH  12  15
HETATM   15  O   UNK N   1      31.891  16.333   9.482  0.00  0.00    -0.359 OA
HETATM   16  H   UNK N   1      31.814  15.487   9.878  0.00  0.00     0.217 HD
ENDBRANCH  12  15
BRANCH  14  17
HETATM   17  O   UNK N   1      27.534  18.180   9.408  0.00  0.00    -0.360 OA
HETATM   18  H   UNK N   1      26.674  17.972   9.099  0.00  0.00     0.217 HD
ENDBRANCH  14  17
ENDBRANCH   6   8
BRANCH   1  19
HETATM   19  C   UNK N   1      27.157  16.786   4.675  0.00  0.00    -0.021 A 
HETATM   20  C   UNK N   1      27.918  16.807   3.497  0.00  0.00     0.015 A 
HETATM   21  C   UNK N   1      28.167  15.642   2.773  0.00  0.00     0.037 A 
HETATM   22  C   UNK N   1      27.648  14.424   3.206  0.00  0.00     0.068 A 
HETATM   23  C   UNK N   1      26.866  14.387   4.374  0.00  0.00     0.037 A 
HETATM   24  C   UNK N   1      26.621  15.561   5.095  0.00  0.00     0.015 A 
BRANCH  22  25
HETATM   25  O   UNK N   1      27.912  13.308   2.487  0.00  0.00    -0.356 OA
HETATM   26  C   UNK N   1      26.930  12.484   1.984  0.00  0.00     0.210 C 
ENDBRANCH  22  25
ENDBRANCH   1  19
BRANCH   2  27
HETATM   27  C   UNK N   1      24.958  19.127   4.032  0.00  0.00     0.270 C 
HETATM   28  O   UNK N   1      24.611  18.133   3.418  0.00  0.00    -0.266 OA
HETATM   29  N   UNK N   1      24.488  20.345   3.665  0.00  0.00    -0.356 N 
HETATM   30  H   UNK N   1      24.769  21.139   4.174  0.00  0.00     0.162 HD
BRANCH  29  31
HETATM   31  C   UNK N   1      23.589  20.510   2.549  0.00  0.00     0.118 C 
HETATM   32  C   UNK N   1      22.169  20.245   2.995  0.00  0.00     0.026 C 
ENDBRANCH  29  31
ENDBRANCH   2  27
TORSDOF 7
ENDMDL
