MODEL 1
REMARK VINA RESULT:      -6.4      0.000      0.000
REMARK  2 active torsions:
REMARK  status: ('A' for Active; 'I' for Inactive)
REMARK       I    between atoms: N_1  and  C_2 
REMARK    1  A    between atoms: N_1  and  C_5 
REMARK       I    between atoms: C_2  and  N_3 
REMARK    2  A    between atoms: N_3  and  C_11 
ROOT
HETATM    1  N   UNK N   1      36.803  13.813  14.424  0.00  0.00    -0.309 N 
HETATM    2  C   UNK N   1      36.093  14.108  13.300  0.00  0.00     0.325 C 
HETATM    3  N   UNK N   1      36.673  14.858  12.321  0.00  0.00    -0.309 N 
HETATM    4  O   UNK N   1      34.948  13.702  13.170  0.00  0.00    -0.247 OA
HETATM    5  H   UNK N   1      37.724  14.159  14.485  0.00  0.00     0.170 HD
HETATM    6  H   UNK N   1      37.598  15.162  12.469  0.00  0.00     0.170 HD
ENDROOT
BRANCH   1   7
HETATM    7  C   UNK N   1      36.315  13.041  15.524  0.00  0.00     0.036 A 
HETATM    8  C   UNK N   1      36.509  11.650  15.600  0.00  0.00     0.029 A 
HETATM    9  C   UNK N   1      36.022  10.920  16.684  0.00  0.00     0.002 A 
HETATM   10  C   UNK N   1      35.334  11.572  17.708  0.00  0.00     0.000 A 
HETATM   11  C   UNK N   1      35.135  12.954  17.645  0.00  0.00     0.002 A 
HETATM   12  C   UNK N   1      35.623  13.687  16.556  0.00  0.00     0.029 A 
ENDBRANCH   1   7
BRANCH   3  13
HETATM   13  C   UNK N   1      36.040  15.239  11.098  0.00  0.00     0.036 A 
HETATM   14  C   UNK N   1      36.125  14.385   9.992  0.00  0.00     0.029 A 
HETATM   15  C   UNK N   1      35.514  14.734   8.781  0.00  0.00     0.002 A 
HETATM   16  C   UNK N   1      34.814  15.939   8.669  0.00  0.00     0.000 A 
HETATM   17  C   UNK N   1      34.724  16.796   9.765  0.00  0.00     0.002 A 
HETATM   18  C   UNK N   1      35.333  16.448  10.971  0.00  0.00     0.029 A 
ENDBRANCH   3  13
TORSDOF 2
ENDMDL
MODEL 2
REMARK VINA RESULT:      -6.4      0.058      6.741
REMARK  2 active torsions:
REMARK  status: ('A' for Active; 'I' for Inactive)
REMARK       I    between atoms: N_1  and  C_2 
REMARK    1  A    between atoms: N_1  and  C_5 
REMARK       I    between atoms: C_2  and  N_3 
REMARK    2  A    between atoms: N_3  and  C_11 
ROOT
HETATM    1  N   UNK N   1      36.670  14.816  12.299  0.00  0.00    -0.309 N 
HETATM    2  C   UNK N   1      36.085  14.090  13.292  0.00  0.00     0.325 C 
HETATM    3  N   UNK N   1      36.799  13.800  14.416  0.00  0.00    -0.309 N 
HETATM    4  O   UNK N   1      34.932  13.704  13.177  0.00  0.00    -0.247 OA
HETATM    5  H   UNK N   1      37.601  15.108  12.436  0.00  0.00     0.170 HD
HETATM    6  H   UNK N   1      37.724  14.133  14.466  0.00  0.00     0.170 HD
ENDROOT
BRANCH   1   7
HETATM    7  C   UNK N   1      36.037  15.186  11.072  0.00  0.00     0.036 A 
HETATM    8  C   UNK N   1      36.042  14.340   9.948  0.00  0.00     0.029 A 
HETATM    9  C   UNK N   1      35.417  14.725   8.762  0.00  0.00     0.002 A 
HETATM   10  C   UNK N   1      34.777  15.962   8.685  0.00  0.00     0.000 A 
HETATM   11  C   UNK N   1      34.764  16.812   9.794  0.00  0.00     0.002 A 
HETATM   12  C   UNK N   1      35.392  16.425  10.984  0.00  0.00     0.029 A 
ENDBRANCH   1   7
BRANCH   3  13
HETATM   13  C   UNK N   1      36.307  13.048  15.527  0.00  0.00     0.036 A 
HETATM   14  C   UNK N   1      36.545  11.669  15.575  0.00  0.00     0.029 A 
HETATM   15  C   UNK N   1      36.074  10.907  16.652  0.00  0.00     0.002 A 
HETATM   16  C   UNK N   1      35.364  11.521  17.689  0.00  0.00     0.000 A 
HETATM   17  C   UNK N   1      35.123  12.894  17.650  0.00  0.00     0.002 A 
HETATM   18  C   UNK N   1      35.591  13.651  16.577  0.00  0.00     0.029 A 
ENDBRANCH   3  13
TORSDOF 2
ENDMDL
MODEL 3
REMARK VINA RESULT:      -5.8     19.087     21.598
REMARK  2 active torsions:
REMARK  status: ('A' for Active; 'I' for Inactive)
REMARK       I    between atoms: N_1  and  C_2 
REMARK    1  A    between atoms: N_1  and  C_5 
REMARK       I    between atoms: C_2  and  N_3 
REMARK    2  A    between atoms: N_3  and  C_11 
ROOT
HETATM    1  N   UNK N   1      28.941  22.865  -2.992  0.00  0.00    -0.309 N 
HETATM    2  C   UNK N   1      28.342  23.857  -3.708  0.00  0.00     0.325 C 
HETATM    3  N   UNK N   1      27.203  24.431  -3.230  0.00  0.00    -0.309 N 
HETATM    4  O   UNK N   1      28.823  24.228  -4.768  0.00  0.00    -0.247 OA
HETATM    5  H   UNK N   1      28.520  22.599  -2.142  0.00  0.00     0.170 HD
HETATM    6  H   UNK N   1      26.853  24.101  -2.371  0.00  0.00     0.170 HD
ENDROOT
BRANCH   1   7
HETATM    7  C   UNK N   1      30.134  22.179  -3.379  0.00  0.00     0.036 A 
HETATM    8  C   UNK N   1      30.157  21.283  -4.463  0.00  0.00     0.029 A 
HETATM    9  C   UNK N   1      31.335  20.626  -4.820  0.00  0.00     0.002 A 
HETATM   10  C   UNK N   1      32.506  20.857  -4.098  0.00  0.00     0.000 A 
HETATM   11  C   UNK N   1      32.496  21.746  -3.019  0.00  0.00     0.002 A 
HETATM   12  C   UNK N   1      31.314  22.405  -2.660  0.00  0.00     0.029 A 
ENDBRANCH   1   7
BRANCH   3  13
HETATM   13  C   UNK N   1      26.477  25.475  -3.882  0.00  0.00     0.036 A 
HETATM   14  C   UNK N   1      26.444  26.749  -3.299  0.00  0.00     0.029 A 
HETATM   15  C   UNK N   1      25.739  27.790  -3.916  0.00  0.00     0.002 A 
HETATM   16  C   UNK N   1      25.064  27.565  -5.119  0.00  0.00     0.000 A 
HETATM   17  C   UNK N   1      25.091  26.300  -5.708  0.00  0.00     0.002 A 
HETATM   18  C   UNK N   1      25.793  25.264  -5.092  0.00  0.00     0.029 A 
ENDBRANCH   3  13
TORSDOF 2
ENDMDL
MODEL 4
REMARK VINA RESULT:      -5.8     19.133     22.026
REMARK  2 active torsions:
REMARK  status: ('A' for Active; 'I' for Inactive)
REMARK       I    between atoms: N_1  and  C_2 
REMARK    1  A    between atoms: N_1  and  C_5 
REMARK       I    between atoms: C_2  and  N_3 
REMARK    2  A    between atoms: N_3  and  C_11 
ROOT
HETATM    1  N   UNK N   1      27.165  24.376  -3.244  0.00  0.00    -0.309 N 
HETATM    2  C   UNK N   1      28.338  23.848  -3.691  0.00  0.00     0.325 C 
HETATM    3  N   UNK N   1      28.907  22.813  -3.012  0.00  0.00    -0.309 N 
HETATM    4  O   UNK N   1      28.875  24.297  -4.692  0.00  0.00    -0.247 OA
HETATM    5  H   UNK N   1      26.767  23.981  -2.434  0.00  0.00     0.170 HD
HETATM    6  H   UNK N   1      28.438  22.482  -2.211  0.00  0.00     0.170 HD
ENDROOT
BRANCH   1   7
HETATM    7  C   UNK N   1      26.466  25.461  -3.859  0.00  0.00     0.036 A 
HETATM    8  C   UNK N   1      26.437  26.746  -3.288  0.00  0.00     0.029 A 
HETATM    9  C   UNK N   1      25.747  27.788  -3.909  0.00  0.00     0.002 A 
HETATM   10  C   UNK N   1      25.078  27.557  -5.112  0.00  0.00     0.000 A 
HETATM   11  C   UNK N   1      25.100  26.285  -5.690  0.00  0.00     0.002 A 
HETATM   12  C   UNK N   1      25.792  25.240  -5.066  0.00  0.00     0.029 A 
ENDBRANCH   1   7
BRANCH   3  13
HETATM   13  C   UNK N   1      30.132  22.172  -3.371  0.00  0.00     0.036 A 
HETATM   14  C   UNK N   1      30.135  21.250  -4.425  0.00  0.00     0.029 A 
HETATM   15  C   UNK N   1      31.322  20.607  -4.798  0.00  0.00     0.002 A 
HETATM   16  C   UNK N   1      32.513  20.883  -4.119  0.00  0.00     0.000 A 
HETATM   17  C   UNK N   1      32.520  21.800  -3.068  0.00  0.00     0.002 A 
HETATM   18  C   UNK N   1      31.337  22.439  -2.697  0.00  0.00     0.029 A 
ENDBRANCH   3  13
TORSDOF 2
ENDMDL
MODEL 5
REMARK VINA RESULT:      -5.6      1.888      2.956
REMARK  2 active torsions:
REMARK  status: ('A' for Active; 'I' for Inactive)
REMARK       I    between atoms: N_1  and  C_2 
REMARK    1  A    between atoms: N_1  and  C_5 
REMARK       I    between atoms: C_2  and  N_3 
REMARK    2  A    between atoms: N_3  and  C_11 
ROOT
HETATM    1  N   UNK N   1      35.023  12.185  15.227  0.00  0.00    -0.309 N 
HETATM    2  C   UNK N   1      35.890  12.727  14.328  0.00  0.00     0.325 C 
HETATM    3  N   UNK N   1      35.656  12.569  12.995  0.00  0.00    -0.309 N 
HETATM    4  O   UNK N   1      36.868  13.350  14.713  0.00  0.00    -0.247 OA
HETATM    5  H   UNK N   1      34.247  11.693  14.872  0.00  0.00     0.170 HD
HETATM    6  H   UNK N   1      34.855  12.061  12.731  0.00  0.00     0.170 HD
ENDROOT
BRANCH   1   7
HETATM    7  C   UNK N   1      35.152  12.274  16.648  0.00  0.00     0.036 A 
HETATM    8  C   UNK N   1      34.995  13.492  17.334  0.00  0.00     0.029 A 
HETATM    9  C   UNK N   1      35.127  13.551  18.722  0.00  0.00     0.002 A 
HETATM   10  C   UNK N   1      35.418  12.393  19.442  0.00  0.00     0.000 A 
HETATM   11  C   UNK N   1      35.577  11.176  18.772  0.00  0.00     0.002 A 
HETATM   12  C   UNK N   1      35.445  11.117  17.380  0.00  0.00     0.029 A 
ENDBRANCH   1   7
BRANCH   3  13
HETATM   13  C   UNK N   1      36.485  13.083  11.951  0.00  0.00     0.036 A 
HETATM   14  C   UNK N   1      36.106  14.263  11.298  0.00  0.00     0.029 A 
HETATM   15  C   UNK N   1      36.900  14.789  10.271  0.00  0.00     0.002 A 
HETATM   16  C   UNK N   1      38.078  14.139   9.892  0.00  0.00     0.000 A 
HETATM   17  C   UNK N   1      38.464  12.963  10.536  0.00  0.00     0.002 A 
HETATM   18  C   UNK N   1      37.673  12.440  11.559  0.00  0.00     0.029 A 
ENDBRANCH   3  13
TORSDOF 2
ENDMDL
MODEL 6
REMARK VINA RESULT:      -5.5      1.803      7.010
REMARK  2 active torsions:
REMARK  status: ('A' for Active; 'I' for Inactive)
REMARK       I    between atoms: N_1  and  C_2 
REMARK    1  A    between atoms: N_1  and  C_5 
REMARK       I    between atoms: C_2  and  N_3 
REMARK    2  A    between atoms: N_3  and  C_11 
ROOT
HETATM    1  N   UNK N   1      35.193  13.010  13.040  0.00  0.00    -0.309 N 
HETATM    2  C   UNK N   1      35.569  12.913  14.346  0.00  0.00     0.325 C 
HETATM    3  N   UNK N   1      34.663  12.491  15.272  0.00  0.00    -0.309 N 
HETATM    4  O   UNK N   1      36.707  13.201  14.683  0.00  0.00    -0.247 OA
HETATM    5  H   UNK N   1      34.266  12.766  12.814  0.00  0.00     0.170 HD
HETATM    6  H   UNK N   1      33.758  12.269  14.955  0.00  0.00     0.170 HD
ENDROOT
BRANCH   1   7
HETATM    7  C   UNK N   1      36.041  13.441  11.973  0.00  0.00     0.036 A 
HETATM    8  C   UNK N   1      37.019  12.598  11.414  0.00  0.00     0.029 A 
HETATM    9  C   UNK N   1      37.833  13.043  10.372  0.00  0.00     0.002 A 
HETATM   10  C   UNK N   1      37.680  14.338   9.876  0.00  0.00     0.000 A 
HETATM   11  C   UNK N   1      36.712  15.185  10.422  0.00  0.00     0.002 A 
HETATM   12  C   UNK N   1      35.895  14.738  11.468  0.00  0.00     0.029 A 
ENDBRANCH   1   7
BRANCH   3  13
HETATM   13  C   UNK N   1      34.926  12.348  16.669  0.00  0.00     0.036 A 
HETATM   14  C   UNK N   1      34.918  13.487  17.484  0.00  0.00     0.029 A 
HETATM   15  C   UNK N   1      35.172  13.376  18.857  0.00  0.00     0.002 A 
HETATM   16  C   UNK N   1      35.435  12.125  19.423  0.00  0.00     0.000 A 
HETATM   17  C   UNK N   1      35.446  10.985  18.620  0.00  0.00     0.002 A 
HETATM   18  C   UNK N   1      35.193  11.097  17.253  0.00  0.00     0.029 A 
ENDBRANCH   3  13
TORSDOF 2
ENDMDL
MODEL 7
REMARK VINA RESULT:      -5.2      2.694      7.684
REMARK  2 active torsions:
REMARK  status: ('A' for Active; 'I' for Inactive)
REMARK       I    between atoms: N_1  and  C_2 
REMARK    1  A    between atoms: N_1  and  C_5 
REMARK       I    between atoms: C_2  and  N_3 
REMARK    2  A    between atoms: N_3  and  C_11 
ROOT
HETATM    1  N   UNK N   1      34.226  17.049   9.575  0.00  0.00    -0.309 N 
HETATM    2  C   UNK N   1      34.687  15.868  10.073  0.00  0.00     0.325 C 
HETATM    3  N   UNK N   1      35.461  15.872  11.195  0.00  0.00    -0.309 N 
HETATM    4  O   UNK N   1      34.409  14.814   9.520  0.00  0.00    -0.247 OA
HETATM    5  H   UNK N   1      34.474  17.873  10.055  0.00  0.00     0.170 HD
HETATM    6  H   UNK N   1      35.658  16.744  11.607  0.00  0.00     0.170 HD
ENDROOT
BRANCH   1   7
HETATM    7  C   UNK N   1      33.412  17.185   8.409  0.00  0.00     0.036 A 
HETATM    8  C   UNK N   1      32.007  17.158   8.475  0.00  0.00     0.029 A 
HETATM    9  C   UNK N   1      31.235  17.293   7.321  0.00  0.00     0.002 A 
HETATM   10  C   UNK N   1      31.858  17.456   6.084  0.00  0.00     0.000 A 
HETATM   11  C   UNK N   1      33.253  17.485   6.003  0.00  0.00     0.002 A 
HETATM   12  C   UNK N   1      34.028  17.349   7.162  0.00  0.00     0.029 A 
ENDBRANCH   1   7
BRANCH   3  13
HETATM   13  C   UNK N   1      36.008  14.708  11.817  0.00  0.00     0.036 A 
HETATM   14  C   UNK N   1      36.925  13.923  11.106  0.00  0.00     0.029 A 
HETATM   15  C   UNK N   1      37.478  12.778  11.692  0.00  0.00     0.002 A 
HETATM   16  C   UNK N   1      37.117  12.410  12.992  0.00  0.00     0.000 A 
HETATM   17  C   UNK N   1      36.205  13.185  13.707  0.00  0.00     0.002 A 
HETATM   18  C   UNK N   1      35.655  14.326  13.123  0.00  0.00     0.029 A 
ENDBRANCH   3  13
TORSDOF 2
ENDMDL
MODEL 8
REMARK VINA RESULT:      -5.2      3.927      8.058
REMARK  2 active torsions:
REMARK  status: ('A' for Active; 'I' for Inactive)
REMARK       I    between atoms: N_1  and  C_2 
REMARK    1  A    between atoms: N_1  and  C_5 
REMARK       I    between atoms: C_2  and  N_3 
REMARK    2  A    between atoms: N_3  and  C_11 
ROOT
HETATM    1  N   UNK N   1      32.755  17.646   8.702  0.00  0.00    -0.309 N 
HETATM    2  C   UNK N   1      33.365  16.564   9.260  0.00  0.00     0.325 C 
HETATM    3  N   UNK N   1      34.669  16.656   9.644  0.00  0.00    -0.309 N 
HETATM    4  O   UNK N   1      32.749  15.520   9.416  0.00  0.00    -0.247 OA
HETATM    5  H   UNK N   1      33.289  18.467   8.598  0.00  0.00     0.170 HD
HETATM    6  H   UNK N   1      35.125  17.517   9.500  0.00  0.00     0.170 HD
ENDROOT
BRANCH   1   7
HETATM    7  C   UNK N   1      31.398  17.682   8.255  0.00  0.00     0.036 A 
HETATM    8  C   UNK N   1      31.009  17.148   7.013  0.00  0.00     0.029 A 
HETATM    9  C   UNK N   1      29.677  17.196   6.600  0.00  0.00     0.002 A 
HETATM   10  C   UNK N   1      28.716  17.780   7.425  0.00  0.00     0.000 A 
HETATM   11  C   UNK N   1      29.088  18.315   8.661  0.00  0.00     0.002 A 
HETATM   12  C   UNK N   1      30.425  18.267   9.075  0.00  0.00     0.029 A 
ENDBRANCH   1   7
BRANCH   3  13
HETATM   13  C   UNK N   1      35.426  15.599  10.237  0.00  0.00     0.036 A 
HETATM   14  C   UNK N   1      35.425  15.459  11.630  0.00  0.00     0.029 A 
HETATM   15  C   UNK N   1      36.158  14.432  12.238  0.00  0.00     0.002 A 
HETATM   16  C   UNK N   1      36.894  13.538  11.456  0.00  0.00     0.000 A 
HETATM   17  C   UNK N   1      36.901  13.668  10.067  0.00  0.00     0.002 A 
HETATM   18  C   UNK N   1      36.171  14.692   9.463  0.00  0.00     0.029 A 
ENDBRANCH   3  13
TORSDOF 2
ENDMDL
MODEL 9
REMARK VINA RESULT:      -5.1     20.595     21.544
REMARK  2 active torsions:
REMARK  status: ('A' for Active; 'I' for Inactive)
REMARK       I    between atoms: N_1  and  C_2 
REMARK    1  A    between atoms: N_1  and  C_5 
REMARK       I    between atoms: C_2  and  N_3 
REMARK    2  A    between atoms: N_3  and  C_11 
ROOT
HETATM    1  N   UNK N   1      53.708  25.247  12.786  0.00  0.00    -0.309 N 
HETATM    2  C   UNK N   1      53.339  26.240  11.929  0.00  0.00     0.325 C 
HETATM    3  N   UNK N   1      53.691  27.526  12.206  0.00  0.00    -0.309 N 
HETATM    4  O   UNK N   1      52.700  25.979  10.921  0.00  0.00    -0.247 OA
HETATM    5  H   UNK N   1      54.224  25.503  13.584  0.00  0.00     0.170 HD
HETATM    6  H   UNK N   1      54.207  27.689  13.029  0.00  0.00     0.170 HD
ENDROOT
BRANCH   1   7
HETATM    7  C   UNK N   1      53.402  23.861  12.615  0.00  0.00     0.036 A 
HETATM    8  C   UNK N   1      52.163  23.319  13.003  0.00  0.00     0.029 A 
HETATM    9  C   UNK N   1      51.890  21.963  12.825  0.00  0.00     0.002 A 
HETATM   10  C   UNK N   1      52.854  21.129  12.257  0.00  0.00     0.000 A 
HETATM   11  C   UNK N   1      54.089  21.654  11.867  0.00  0.00     0.002 A 
HETATM   12  C   UNK N   1      54.363  23.016  12.046  0.00  0.00     0.029 A 
ENDBRANCH   1   7
BRANCH   3  13
HETATM   13  C   UNK N   1      53.366  28.657  11.396  0.00  0.00     0.036 A 
HETATM   14  C   UNK N   1      52.208  29.391  11.682  0.00  0.00     0.029 A 
HETATM   15  C   UNK N   1      51.866  30.504  10.904  0.00  0.00     0.002 A 
HETATM   16  C   UNK N   1      52.681  30.891   9.836  0.00  0.00     0.000 A 
HETATM   17  C   UNK N   1      53.837  30.166   9.543  0.00  0.00     0.002 A 
HETATM   18  C   UNK N   1      54.176  29.058  10.318  0.00  0.00     0.029 A 
ENDBRANCH   3  13
TORSDOF 2
ENDMDL
