MODEL 1
REMARK VINA RESULT:      -5.2      0.000      0.000
REMARK  5 active torsions:
REMARK  status: ('A' for Active; 'I' for Inactive)
REMARK    1  A    between atoms: C_1  and  C_3 
REMARK    2  A    between atoms: C_3  and  C_4 
REMARK    3  A    between atoms: C_4  and  C_5 
REMARK    4  A    between atoms: C_5  and  C_6 
REMARK    5  A    between atoms: C_7  and  C_6 
ROOT
HETATM    1  C   UNK N   1      36.093  14.036  11.420  0.00  0.00     0.072 C 
HETATM    2  S   UNK N   1      37.327  12.721  11.588  0.00  0.00    -0.160 SA
HETATM    3  C   UNK N   1      36.111  11.897  12.677  0.00  0.00     0.101 C 
HETATM    4  C   UNK N   1      35.416  12.964  13.529  0.00  0.00     0.119 C 
HETATM    5  N   UNK N   1      36.138  13.104  14.770  0.00  0.00    -0.336 N 
HETATM    6  C   UNK N   1      36.792  14.261  14.771  0.00  0.00     0.316 C 
HETATM    7  O   UNK N   1      37.517  14.611  15.689  0.00  0.00    -0.247 OA
HETATM    8  N   UNK N   1      36.591  14.999  13.679  0.00  0.00    -0.335 N 
HETATM    9  C   UNK N   1      35.614  14.344  12.833  0.00  0.00     0.123 C 
HETATM   10  H   UNK N   1      36.144  12.445  15.501  0.00  0.00     0.164 HD
HETATM   11  H   UNK N   1      37.037  15.854  13.479  0.00  0.00     0.164 HD
ENDROOT
BRANCH   1  12
HETATM   12  C   UNK N   1      36.528  15.237  10.581  0.00  0.00     0.017 C 
BRANCH  12  13
HETATM   13  C   UNK N   1      35.537  16.387  10.486  0.00  0.00     0.002 C 
BRANCH  13  14
HETATM   14  C   UNK N   1      34.594  16.116   9.319  0.00  0.00     0.007 C 
BRANCH  14  15
HETATM   15  C   UNK N   1      33.799  17.368   8.970  0.00  0.00     0.069 C 
BRANCH  15  16
HETATM   16  C   UNK N   1      34.578  18.226   8.033  0.00  0.00     0.231 C 
HETATM   17  O   UNK N   1      35.116  19.242   8.442  0.00  0.00    -0.307 OA
ENDBRANCH  15  16
ENDBRANCH  14  15
ENDBRANCH  13  14
ENDBRANCH  12  13
ENDBRANCH   1  12
TORSDOF 5
ENDMDL
MODEL 2
REMARK VINA RESULT:      -5.2      5.094      6.902
REMARK  5 active torsions:
REMARK  status: ('A' for Active; 'I' for Inactive)
REMARK    1  A    between atoms: C_1  and  C_3 
REMARK    2  A    between atoms: C_3  and  C_4 
REMARK    3  A    between atoms: C_4  and  C_5 
REMARK    4  A    between atoms: C_5  and  C_6 
REMARK    5  A    between atoms: C_7  and  C_6 
ROOT
HETATM    1  C   UNK N   1      31.981  16.378   7.213  0.00  0.00     0.072 C 
HETATM    2  S   UNK N   1      33.386  15.727   6.274  0.00  0.00    -0.160 SA
HETATM    3  C   UNK N   1      34.029  15.148   7.885  0.00  0.00     0.101 C 
HETATM    4  C   UNK N   1      33.723  16.212   8.943  0.00  0.00     0.119 C 
HETATM    5  N   UNK N   1      34.850  17.107   9.037  0.00  0.00    -0.336 N 
HETATM    6  C   UNK N   1      34.529  18.280   8.502  0.00  0.00     0.316 C 
HETATM    7  O   UNK N   1      35.319  19.206   8.414  0.00  0.00    -0.247 OA
HETATM    8  N   UNK N   1      33.272  18.350   8.065  0.00  0.00    -0.335 N 
HETATM    9  C   UNK N   1      32.579  17.122   8.399  0.00  0.00     0.123 C 
HETATM   10  H   UNK N   1      35.722  16.882   9.435  0.00  0.00     0.164 HD
HETATM   11  H   UNK N   1      32.876  19.115   7.588  0.00  0.00     0.164 HD
ENDROOT
BRANCH   1  12
HETATM   12  C   UNK N   1      30.946  17.146   6.391  0.00  0.00     0.017 C 
BRANCH  12  13
HETATM   13  C   UNK N   1      29.488  16.804   6.656  0.00  0.00     0.002 C 
BRANCH  13  14
HETATM   14  C   UNK N   1      28.744  18.091   6.993  0.00  0.00     0.007 C 
BRANCH  14  15
HETATM   15  C   UNK N   1      29.130  18.588   8.380  0.00  0.00     0.069 C 
BRANCH  15  16
HETATM   16  C   UNK N   1      28.758  17.576   9.409  0.00  0.00     0.231 C 
HETATM   17  O   UNK N   1      27.587  17.279   9.577  0.00  0.00    -0.307 OA
ENDBRANCH  15  16
ENDBRANCH  14  15
ENDBRANCH  13  14
ENDBRANCH  12  13
ENDBRANCH   1  12
TORSDOF 5
ENDMDL
MODEL 3
REMARK VINA RESULT:      -5.1      6.780      8.735
REMARK  5 active torsions:
REMARK  status: ('A' for Active; 'I' for Inactive)
REMARK    1  A    between atoms: C_1  and  C_3 
REMARK    2  A    between atoms: C_3  and  C_4 
REMARK    3  A    between atoms: C_4  and  C_5 
REMARK    4  A    between atoms: C_5  and  C_6 
REMARK    5  A    between atoms: C_7  and  C_6 
ROOT
HETATM    1  C   UNK N   1      30.360  17.186   7.742  0.00  0.00     0.072 C 
HETATM    2  S   UNK N   1      30.847  18.474   8.918  0.00  0.00    -0.160 SA
HETATM    3  C   UNK N   1      29.330  18.028   9.837  0.00  0.00     0.101 C 
HETATM    4  C   UNK N   1      28.219  17.727   8.827  0.00  0.00     0.119 C 
HETATM    5  N   UNK N   1      27.478  18.940   8.582  0.00  0.00    -0.336 N 
HETATM    6  C   UNK N   1      27.760  19.391   7.364  0.00  0.00     0.316 C 
HETATM    7  O   UNK N   1      27.297  20.429   6.919  0.00  0.00    -0.247 OA
HETATM    8  N   UNK N   1      28.597  18.613   6.678  0.00  0.00    -0.335 N 
HETATM    9  C   UNK N   1      28.884  17.421   7.451  0.00  0.00     0.123 C 
HETATM   10  H   UNK N   1      26.860  19.366   9.219  0.00  0.00     0.164 HD
HETATM   11  H   UNK N   1      28.963  18.817   5.787  0.00  0.00     0.164 HD
ENDROOT
BRANCH   1  12
HETATM   12  C   UNK N   1      31.270  17.036   6.523  0.00  0.00     0.017 C 
BRANCH  12  13
HETATM   13  C   UNK N   1      32.213  15.843   6.530  0.00  0.00     0.002 C 
BRANCH  13  14
HETATM   14  C   UNK N   1      33.332  16.117   7.529  0.00  0.00     0.007 C 
BRANCH  14  15
HETATM   15  C   UNK N   1      34.079  17.393   7.160  0.00  0.00     0.069 C 
BRANCH  15  16
HETATM   16  C   UNK N   1      34.618  18.044   8.388  0.00  0.00     0.231 C 
HETATM   17  O   UNK N   1      35.033  19.191   8.338  0.00  0.00    -0.307 OA
ENDBRANCH  15  16
ENDBRANCH  14  15
ENDBRANCH  13  14
ENDBRANCH  12  13
ENDBRANCH   1  12
TORSDOF 5
ENDMDL
MODEL 4
REMARK VINA RESULT:      -4.9      4.303      6.006
REMARK  5 active torsions:
REMARK  status: ('A' for Active; 'I' for Inactive)
REMARK    1  A    between atoms: C_1  and  C_3 
REMARK    2  A    between atoms: C_3  and  C_4 
REMARK    3  A    between atoms: C_4  and  C_5 
REMARK    4  A    between atoms: C_5  and  C_6 
REMARK    5  A    between atoms: C_7  and  C_6 
ROOT
HETATM    1  C   UNK N   1      32.611  16.082   7.391  0.00  0.00     0.072 C 
HETATM    2  S   UNK N   1      34.138  16.060   6.418  0.00  0.00    -0.160 SA
HETATM    3  C   UNK N   1      34.630  14.642   7.463  0.00  0.00     0.101 C 
HETATM    4  C   UNK N   1      34.162  14.906   8.897  0.00  0.00     0.119 C 
HETATM    5  N   UNK N   1      35.229  15.555   9.618  0.00  0.00    -0.336 N 
HETATM    6  C   UNK N   1      34.912  16.829   9.824  0.00  0.00     0.316 C 
HETATM    7  O   UNK N   1      35.662  17.617  10.378  0.00  0.00    -0.247 OA
HETATM    8  N   UNK N   1      33.707  17.168   9.366  0.00  0.00    -0.335 N 
HETATM    9  C   UNK N   1      33.042  15.989   8.849  0.00  0.00     0.123 C 
HETATM   10  H   UNK N   1      36.063  15.121   9.911  0.00  0.00     0.164 HD
HETATM   11  H   UNK N   1      33.329  18.077   9.375  0.00  0.00     0.164 HD
ENDROOT
BRANCH   1  12
HETATM   12  C   UNK N   1      31.635  17.207   7.050  0.00  0.00     0.017 C 
BRANCH  12  13
HETATM   13  C   UNK N   1      30.184  16.801   6.845  0.00  0.00     0.002 C 
BRANCH  13  14
HETATM   14  C   UNK N   1      29.291  17.887   7.434  0.00  0.00     0.007 C 
BRANCH  14  15
HETATM   15  C   UNK N   1      29.725  18.228   8.854  0.00  0.00     0.069 C 
BRANCH  15  16
HETATM   16  C   UNK N   1      28.846  17.537   9.839  0.00  0.00     0.231 C 
HETATM   17  O   UNK N   1      27.693  17.267   9.544  0.00  0.00    -0.307 OA
ENDBRANCH  15  16
ENDBRANCH  14  15
ENDBRANCH  13  14
ENDBRANCH  12  13
ENDBRANCH   1  12
TORSDOF 5
ENDMDL
MODEL 5
REMARK VINA RESULT:      -4.9     16.850     18.258
REMARK  5 active torsions:
REMARK  status: ('A' for Active; 'I' for Inactive)
REMARK    1  A    between atoms: C_1  and  C_3 
REMARK    2  A    between atoms: C_3  and  C_4 
REMARK    3  A    between atoms: C_4  and  C_5 
REMARK    4  A    between atoms: C_5  and  C_6 
REMARK    5  A    between atoms: C_7  and  C_6 
ROOT
HETATM    1  C   UNK N   1      20.605  17.165   4.440  0.00  0.00     0.072 C 
HETATM    2  S   UNK N   1      22.220  17.843   3.976  0.00  0.00    -0.160 SA
HETATM    3  C   UNK N   1      21.312  19.371   3.547  0.00  0.00     0.101 C 
HETATM    4  C   UNK N   1      19.978  18.981   2.901  0.00  0.00     0.119 C 
HETATM    5  N   UNK N   1      20.159  18.921   1.471  0.00  0.00    -0.336 N 
HETATM    6  C   UNK N   1      20.136  17.652   1.076  0.00  0.00     0.316 C 
HETATM    7  O   UNK N   1      20.308  17.317  -0.085  0.00  0.00    -0.247 OA
HETATM    8  N   UNK N   1      19.916  16.782   2.061  0.00  0.00    -0.335 N 
HETATM    9  C   UNK N   1      19.664  17.505   3.292  0.00  0.00     0.123 C 
HETATM   10  H   UNK N   1      20.281  19.700   0.881  0.00  0.00     0.164 HD
HETATM   11  H   UNK N   1      19.924  15.802   1.968  0.00  0.00     0.164 HD
ENDROOT
BRANCH   1  12
HETATM   12  C   UNK N   1      20.615  15.706   4.892  0.00  0.00     0.017 C 
BRANCH  12  13
HETATM   13  C   UNK N   1      20.645  15.467   6.394  0.00  0.00     0.002 C 
BRANCH  13  14
HETATM   14  C   UNK N   1      20.621  16.819   7.098  0.00  0.00     0.007 C 
BRANCH  14  15
HETATM   15  C   UNK N   1      19.507  16.863   8.137  0.00  0.00     0.069 C 
BRANCH  15  16
HETATM   16  C   UNK N   1      19.606  18.113   8.943  0.00  0.00     0.231 C 
HETATM   17  O   UNK N   1      20.233  19.068   8.513  0.00  0.00    -0.307 OA
ENDBRANCH  15  16
ENDBRANCH  14  15
ENDBRANCH  13  14
ENDBRANCH  12  13
ENDBRANCH   1  12
TORSDOF 5
ENDMDL
MODEL 6
REMARK VINA RESULT:      -4.9     17.768     19.245
REMARK  5 active torsions:
REMARK  status: ('A' for Active; 'I' for Inactive)
REMARK    1  A    between atoms: C_1  and  C_3 
REMARK    2  A    between atoms: C_3  and  C_4 
REMARK    3  A    between atoms: C_4  and  C_5 
REMARK    4  A    between atoms: C_5  and  C_6 
REMARK    5  A    between atoms: C_7  and  C_6 
ROOT
HETATM    1  C   UNK N   1      20.195  17.566   3.293  0.00  0.00     0.072 C 
HETATM    2  S   UNK N   1      21.955  17.847   3.618  0.00  0.00    -0.160 SA
HETATM    3  C   UNK N   1      21.445  19.485   4.250  0.00  0.00     0.101 C 
HETATM    4  C   UNK N   1      20.320  20.023   3.361  0.00  0.00     0.119 C 
HETATM    5  N   UNK N   1      20.904  20.827   2.316  0.00  0.00    -0.336 N 
HETATM    6  C   UNK N   1      20.815  20.179   1.159  0.00  0.00     0.316 C 
HETATM    7  O   UNK N   1      21.272  20.620   0.116  0.00  0.00    -0.247 OA
HETATM    8  N   UNK N   1      20.190  19.005   1.241  0.00  0.00    -0.335 N 
HETATM    9  C   UNK N   1      19.694  18.821   2.591  0.00  0.00     0.123 C 
HETATM   10  H   UNK N   1      21.306  21.717   2.441  0.00  0.00     0.164 HD
HETATM   11  H   UNK N   1      20.084  18.362   0.503  0.00  0.00     0.164 HD
ENDROOT
BRANCH   1  12
HETATM   12  C   UNK N   1      19.860  16.238   2.617  0.00  0.00     0.017 C 
BRANCH  12  13
HETATM   13  C   UNK N   1      21.041  15.356   2.241  0.00  0.00     0.002 C 
BRANCH  13  14
HETATM   14  C   UNK N   1      20.731  14.674   0.913  0.00  0.00     0.007 C 
BRANCH  14  15
HETATM   15  C   UNK N   1      19.304  14.978   0.474  0.00  0.00     0.069 C 
BRANCH  15  16
HETATM   16  C   UNK N   1      18.519  13.716   0.369  0.00  0.00     0.231 C 
HETATM   17  O   UNK N   1      18.006  13.232   1.365  0.00  0.00    -0.307 OA
ENDBRANCH  15  16
ENDBRANCH  14  15
ENDBRANCH  13  14
ENDBRANCH  12  13
ENDBRANCH   1  12
TORSDOF 5
ENDMDL
MODEL 7
REMARK VINA RESULT:      -4.9     13.250     14.064
REMARK  5 active torsions:
REMARK  status: ('A' for Active; 'I' for Inactive)
REMARK    1  A    between atoms: C_1  and  C_3 
REMARK    2  A    between atoms: C_3  and  C_4 
REMARK    3  A    between atoms: C_4  and  C_5 
REMARK    4  A    between atoms: C_5  and  C_6 
REMARK    5  A    between atoms: C_7  and  C_6 
ROOT
HETATM    1  C   UNK N   1      42.456  20.827   3.018  0.00  0.00     0.072 C 
HETATM    2  S   UNK N   1      43.625  20.424   1.694  0.00  0.00    -0.160 SA
HETATM    3  C   UNK N   1      44.901  20.401   3.004  0.00  0.00     0.101 C 
HETATM    4  C   UNK N   1      44.602  21.529   3.997  0.00  0.00     0.119 C 
HETATM    5  N   UNK N   1      45.326  22.707   3.587  0.00  0.00    -0.336 N 
HETATM    6  C   UNK N   1      44.472  23.602   3.099  0.00  0.00     0.316 C 
HETATM    7  O   UNK N   1      44.828  24.676   2.642  0.00  0.00    -0.247 OA
HETATM    8  N   UNK N   1      43.197  23.218   3.149  0.00  0.00    -0.335 N 
HETATM    9  C   UNK N   1      43.107  21.940   3.827  0.00  0.00     0.123 C 
HETATM   10  H   UNK N   1      46.300  22.828   3.657  0.00  0.00     0.164 HD
HETATM   11  H   UNK N   1      42.435  23.722   2.781  0.00  0.00     0.164 HD
ENDROOT
BRANCH   1  12
HETATM   12  C   UNK N   1      41.018  21.079   2.564  0.00  0.00     0.017 C 
BRANCH  12  13
HETATM   13  C   UNK N   1      40.653  20.581   1.175  0.00  0.00     0.002 C 
BRANCH  13  14
HETATM   14  C   UNK N   1      40.055  21.741   0.388  0.00  0.00     0.007 C 
BRANCH  14  15
HETATM   15  C   UNK N   1      41.136  22.744   0.003  0.00  0.00     0.069 C 
BRANCH  15  16
HETATM   16  C   UNK N   1      40.757  24.109   0.463  0.00  0.00     0.231 C 
HETATM   17  O   UNK N   1      41.128  24.511   1.554  0.00  0.00    -0.307 OA
ENDBRANCH  15  16
ENDBRANCH  14  15
ENDBRANCH  13  14
ENDBRANCH  12  13
ENDBRANCH   1  12
TORSDOF 5
ENDMDL
MODEL 8
REMARK VINA RESULT:      -4.9      4.397      5.709
REMARK  5 active torsions:
REMARK  status: ('A' for Active; 'I' for Inactive)
REMARK    1  A    between atoms: C_1  and  C_3 
REMARK    2  A    between atoms: C_3  and  C_4 
REMARK    3  A    between atoms: C_4  and  C_5 
REMARK    4  A    between atoms: C_5  and  C_6 
REMARK    5  A    between atoms: C_7  and  C_6 
ROOT
HETATM    1  C   UNK N   1      32.298  16.177   8.388  0.00  0.00     0.072 C 
HETATM    2  S   UNK N   1      33.660  17.360   8.553  0.00  0.00    -0.160 SA
HETATM    3  C   UNK N   1      34.737  16.004   7.966  0.00  0.00     0.101 C 
HETATM    4  C   UNK N   1      34.249  14.690   8.584  0.00  0.00     0.119 C 
HETATM    5  N   UNK N   1      34.967  14.464   9.814  0.00  0.00    -0.336 N 
HETATM    6  C   UNK N   1      34.151  14.659  10.844  0.00  0.00     0.316 C 
HETATM    7  O   UNK N   1      34.517  14.573  12.005  0.00  0.00    -0.247 OA
HETATM    8  N   UNK N   1      32.900  14.961  10.495  0.00  0.00    -0.335 N 
HETATM    9  C   UNK N   1      32.776  14.893   9.052  0.00  0.00     0.123 C 
HETATM   10  H   UNK N   1      35.916  14.207   9.879  0.00  0.00     0.164 HD
HETATM   11  H   UNK N   1      32.175  15.196  11.118  0.00  0.00     0.164 HD
ENDROOT
BRANCH   1  12
HETATM   12  C   UNK N   1      30.929  16.693   8.829  0.00  0.00     0.017 C 
BRANCH  12  13
HETATM   13  C   UNK N   1      30.738  18.202   8.806  0.00  0.00     0.002 C 
BRANCH  13  14
HETATM   14  C   UNK N   1      29.566  18.554   9.715  0.00  0.00     0.007 C 
BRANCH  14  15
HETATM   15  C   UNK N   1      28.244  18.385   8.977  0.00  0.00     0.069 C 
BRANCH  15  16
HETATM   16  C   UNK N   1      28.349  18.951   7.602  0.00  0.00     0.231 C 
HETATM   17  O   UNK N   1      27.550  19.794   7.226  0.00  0.00    -0.307 OA
ENDBRANCH  15  16
ENDBRANCH  14  15
ENDBRANCH  13  14
ENDBRANCH  12  13
ENDBRANCH   1  12
TORSDOF 5
ENDMDL
MODEL 9
REMARK VINA RESULT:      -4.9      4.147      5.716
REMARK  5 active torsions:
REMARK  status: ('A' for Active; 'I' for Inactive)
REMARK    1  A    between atoms: C_1  and  C_3 
REMARK    2  A    between atoms: C_3  and  C_4 
REMARK    3  A    between atoms: C_4  and  C_5 
REMARK    4  A    between atoms: C_5  and  C_6 
REMARK    5  A    between atoms: C_7  and  C_6 
ROOT
HETATM    1  C   UNK N   1      32.878  15.944   7.456  0.00  0.00     0.072 C 
HETATM    2  S   UNK N   1      34.394  15.097   6.943  0.00  0.00    -0.160 SA
HETATM    3  C   UNK N   1      34.174  14.070   8.440  0.00  0.00     0.101 C 
HETATM    4  C   UNK N   1      33.661  14.964   9.573  0.00  0.00     0.119 C 
HETATM    5  N   UNK N   1      34.792  15.458  10.319  0.00  0.00    -0.336 N 
HETATM    6  C   UNK N   1      34.958  16.752  10.063  0.00  0.00     0.316 C 
HETATM    7  O   UNK N   1      35.873  17.408  10.534  0.00  0.00    -0.247 OA
HETATM    8  N   UNK N   1      34.041  17.264   9.241  0.00  0.00    -0.335 N 
HETATM    9  C   UNK N   1      33.051  16.250   8.938  0.00  0.00     0.123 C 
HETATM   10  H   UNK N   1      35.354  14.920  10.922  0.00  0.00     0.164 HD
HETATM   11  H   UNK N   1      34.038  18.185   8.894  0.00  0.00     0.164 HD
ENDROOT
BRANCH   1  12
HETATM   12  C   UNK N   1      32.454  17.117   6.573  0.00  0.00     0.017 C 
BRANCH  12  13
HETATM   13  C   UNK N   1      33.348  17.418   5.379  0.00  0.00     0.002 C 
BRANCH  13  14
HETATM   14  C   UNK N   1      32.463  17.813   4.202  0.00  0.00     0.007 C 
BRANCH  14  15
HETATM   15  C   UNK N   1      32.149  16.600   3.336  0.00  0.00     0.069 C 
BRANCH  15  16
HETATM   16  C   UNK N   1      33.355  15.733   3.210  0.00  0.00     0.231 C 
HETATM   17  O   UNK N   1      33.875  15.567   2.119  0.00  0.00    -0.307 OA
ENDBRANCH  15  16
ENDBRANCH  14  15
ENDBRANCH  13  14
ENDBRANCH  12  13
ENDBRANCH   1  12
TORSDOF 5
ENDMDL
