MODEL 1
REMARK VINA RESULT:      -6.5      0.000      0.000
REMARK  7 active torsions:
REMARK  status: ('A' for Active; 'I' for Inactive)
REMARK    1  A    between atoms: C_3  and  N_7 
REMARK    2  A    between atoms: C_5  and  C_10 
REMARK    3  A    between atoms: C_13  and  C_14 
REMARK    4  A    between atoms: C_14  and  C_15 
REMARK    5  A    between atoms: C_15  and  C_16 
REMARK    6  A    between atoms: C_16  and  C_17 
REMARK    7  A    between atoms: C_17  and  O_19 
ROOT
HETATM    1  C   UNK N   1      27.562  23.448  -6.030  0.00  0.00     0.138 A 
HETATM    2  N   UNK N   1      27.590  24.776  -6.251  0.00  0.00    -0.323 N 
ATOM      3  HN  UNK N   1      28.363  25.428  -6.118  1.00  0.00     0.169 HD
HETATM    4  C   UNK N   1      26.347  25.028  -6.689  0.00  0.00     0.148 A 
HETATM    5  O   UNK N   1      25.632  23.928  -6.729  0.00  0.00    -0.223 OA
HETATM    6  N   UNK N   1      26.353  22.927  -6.322  0.00  0.00    -0.242 N 
ATOM      7  HN  UNK N   1      26.065  21.952  -6.239  1.00  0.00     0.196 HD
ENDROOT
BRANCH   1   8
HETATM    8  C   UNK N   1      28.711  22.674  -5.550  0.00  0.00     0.012 A 
HETATM    9  C   UNK N   1      29.240  22.905  -4.275  0.00  0.00     0.051 A 
HETATM   10  C   UNK N   1      30.349  22.174  -3.822  0.00  0.00     0.103 A 
HETATM   11  C   UNK N   1      30.920  21.203  -4.659  0.00  0.00     0.036 A 
HETATM   12  C   UNK N   1      30.389  20.965  -5.929  0.00  0.00     0.003 A 
HETATM   13  C   UNK N   1      29.290  21.700  -6.374  0.00  0.00     0.015 A 
BRANCH  10  14
HETATM   14  N   UNK N   1      30.897  22.418  -2.534  0.00  0.00    -0.116 N 
HETATM   15  O   UNK N   1      32.065  21.911  -2.204  0.00  0.00    -0.532 OA
HETATM   16  O   UNK N   1      30.308  23.097  -1.746  0.00  0.00    -0.532 OA
ENDBRANCH  10  14
ENDBRANCH   1   8
BRANCH   4  17
HETATM   17  C   UNK N   1      25.880  26.366  -7.129  0.00  0.00     0.087 C 
BRANCH  17  18
HETATM   18  C   UNK N   1      25.060  26.968  -6.003  0.00  0.00     0.018 C 
BRANCH  18  19
HETATM   19  C   UNK N   1      25.920  27.773  -5.045  0.00  0.00     0.110 C 
BRANCH  19  20
HETATM   20  C   UNK N   1      25.893  27.171  -3.677  0.00  0.00     0.139 C 
HETATM   21  O   UNK N   1      25.537  27.845  -2.725  0.00  0.00    -0.650 OA
BRANCH  20  22
HETATM   22  O   UNK N   1      26.277  25.893  -3.490  0.00  0.00    -0.776 OA
HETATM   23  H   UNK N   1      25.694  25.257  -3.125  0.00  0.00     0.167 HD
ENDBRANCH  20  22
ENDBRANCH  19  20
ENDBRANCH  18  19
ENDBRANCH  17  18
ENDBRANCH   4  17
TORSDOF 7
ENDMDL
MODEL 2
REMARK VINA RESULT:      -6.5     20.457     23.499
REMARK  7 active torsions:
REMARK  status: ('A' for Active; 'I' for Inactive)
REMARK    1  A    between atoms: C_3  and  N_7 
REMARK    2  A    between atoms: C_5  and  C_10 
REMARK    3  A    between atoms: C_13  and  C_14 
REMARK    4  A    between atoms: C_14  and  C_15 
REMARK    5  A    between atoms: C_15  and  C_16 
REMARK    6  A    between atoms: C_16  and  C_17 
REMARK    7  A    between atoms: C_17  and  O_19 
ROOT
HETATM    1  C   UNK N   1      35.727  12.627  14.100  0.00  0.00     0.138 A 
HETATM    2  N   UNK N   1      34.862  12.331  13.111  0.00  0.00    -0.323 N 
ATOM      3  HN  UNK N   1      33.996  11.794  13.161  1.00  0.00     0.169 HD
HETATM    4  C   UNK N   1      35.422  12.920  12.043  0.00  0.00     0.148 A 
HETATM    5  O   UNK N   1      36.539  13.525  12.374  0.00  0.00    -0.223 OA
HETATM    6  N   UNK N   1      36.763  13.359  13.642  0.00  0.00    -0.242 N 
ATOM      7  HN  UNK N   1      37.556  13.709  14.181  1.00  0.00     0.196 HD
ENDROOT
BRANCH   1   8
HETATM    8  C   UNK N   1      35.547  12.214  15.495  0.00  0.00     0.012 A 
HETATM    9  C   UNK N   1      35.403  13.171  16.505  0.00  0.00     0.051 A 
HETATM   10  C   UNK N   1      35.245  12.775  17.843  0.00  0.00     0.103 A 
HETATM   11  C   UNK N   1      35.227  11.408  18.156  0.00  0.00     0.036 A 
HETATM   12  C   UNK N   1      35.363  10.450  17.148  0.00  0.00     0.003 A 
HETATM   13  C   UNK N   1      35.525  10.852  15.822  0.00  0.00     0.015 A 
BRANCH  10  14
HETATM   14  N   UNK N   1      35.114  13.745  18.872  0.00  0.00    -0.116 N 
HETATM   15  O   UNK N   1      35.264  15.024  18.600  0.00  0.00    -0.532 OA
HETATM   16  O   UNK N   1      34.851  13.409  19.989  0.00  0.00    -0.532 OA
ENDBRANCH  10  14
ENDBRANCH   1   8
BRANCH   4  17
HETATM   17  C   UNK N   1      34.813  12.933  10.690  0.00  0.00     0.087 C 
BRANCH  17  18
HETATM   18  C   UNK N   1      35.513  14.004   9.873  0.00  0.00     0.018 C 
BRANCH  18  19
HETATM   19  C   UNK N   1      34.816  15.348   9.987  0.00  0.00     0.110 C 
BRANCH  19  20
HETATM   20  C   UNK N   1      35.767  16.399  10.463  0.00  0.00     0.139 C 
HETATM   21  O   UNK N   1      35.459  17.576  10.385  0.00  0.00    -0.650 OA
BRANCH  20  22
HETATM   22  O   UNK N   1      36.969  16.050  10.963  0.00  0.00    -0.776 OA
HETATM   23  H   UNK N   1      37.131  15.185  11.285  0.00  0.00     0.167 HD
ENDBRANCH  20  22
ENDBRANCH  19  20
ENDBRANCH  18  19
ENDBRANCH  17  18
ENDBRANCH   4  17
TORSDOF 7
ENDMDL
MODEL 3
REMARK VINA RESULT:      -6.5     14.474     18.078
REMARK  7 active torsions:
REMARK  status: ('A' for Active; 'I' for Inactive)
REMARK    1  A    between atoms: C_3  and  N_7 
REMARK    2  A    between atoms: C_5  and  C_10 
REMARK    3  A    between atoms: C_13  and  C_14 
REMARK    4  A    between atoms: C_14  and  C_15 
REMARK    5  A    between atoms: C_15  and  C_16 
REMARK    6  A    between atoms: C_16  and  C_17 
REMARK    7  A    between atoms: C_17  and  O_19 
ROOT
HETATM    1  C   UNK N   1      33.322  17.482   8.665  0.00  0.00     0.138 A 
HETATM    2  N   UNK N   1      33.683  16.573   9.591  0.00  0.00    -0.323 N 
ATOM      3  HN  UNK N   1      33.154  15.773   9.939  1.00  0.00     0.169 HD
HETATM    4  C   UNK N   1      34.912  16.981   9.940  0.00  0.00     0.148 A 
HETATM    5  O   UNK N   1      35.259  18.054   9.269  0.00  0.00    -0.223 OA
HETATM    6  N   UNK N   1      34.293  18.397   8.472  0.00  0.00    -0.242 N 
ATOM      7  HN  UNK N   1      34.273  19.192   7.832  1.00  0.00     0.196 HD
ENDROOT
BRANCH   1   8
HETATM    8  C   UNK N   1      32.040  17.460   7.954  0.00  0.00     0.012 A 
HETATM    9  C   UNK N   1      30.862  17.850   8.602  0.00  0.00     0.051 A 
HETATM   10  C   UNK N   1      29.633  17.815   7.924  0.00  0.00     0.103 A 
HETATM   11  C   UNK N   1      29.598  17.391   6.587  0.00  0.00     0.036 A 
HETATM   12  C   UNK N   1      30.774  17.010   5.936  0.00  0.00     0.003 A 
HETATM   13  C   UNK N   1      31.990  17.042   6.618  0.00  0.00     0.015 A 
BRANCH  10  14
HETATM   14  N   UNK N   1      28.434  18.196   8.584  0.00  0.00    -0.116 N 
HETATM   15  O   UNK N   1      27.952  17.457   9.560  0.00  0.00    -0.532 OA
HETATM   16  O   UNK N   1      27.863  19.197   8.269  0.00  0.00    -0.532 OA
ENDBRANCH  10  14
ENDBRANCH   1   8
BRANCH   4  17
HETATM   17  C   UNK N   1      35.778  16.264  10.909  0.00  0.00     0.087 C 
BRANCH  17  18
HETATM   18  C   UNK N   1      35.606  14.774  10.676  0.00  0.00     0.018 C 
BRANCH  18  19
HETATM   19  C   UNK N   1      36.476  13.950  11.608  0.00  0.00     0.110 C 
BRANCH  19  20
HETATM   20  C   UNK N   1      36.028  14.106  13.025  0.00  0.00     0.139 C 
HETATM   21  O   UNK N   1      34.935  13.686  13.366  0.00  0.00    -0.650 OA
BRANCH  20  22
HETATM   22  O   UNK N   1      36.820  14.724  13.923  0.00  0.00    -0.776 OA
HETATM   23  H   UNK N   1      36.950  14.374  14.782  0.00  0.00     0.167 HD
ENDBRANCH  20  22
ENDBRANCH  19  20
ENDBRANCH  18  19
ENDBRANCH  17  18
ENDBRANCH   4  17
TORSDOF 7
ENDMDL
MODEL 4
REMARK VINA RESULT:      -6.3     18.763     21.701
REMARK  7 active torsions:
REMARK  status: ('A' for Active; 'I' for Inactive)
REMARK    1  A    between atoms: C_3  and  N_7 
REMARK    2  A    between atoms: C_5  and  C_10 
REMARK    3  A    between atoms: C_13  and  C_14 
REMARK    4  A    between atoms: C_14  and  C_15 
REMARK    5  A    between atoms: C_15  and  C_16 
REMARK    6  A    between atoms: C_16  and  C_17 
REMARK    7  A    between atoms: C_17  and  O_19 
ROOT
HETATM    1  C   UNK N   1      35.482  13.371  12.614  0.00  0.00     0.138 A 
HETATM    2  N   UNK N   1      34.668  13.715  11.598  0.00  0.00    -0.323 N 
ATOM      3  HN  UNK N   1      33.695  13.450  11.443  1.00  0.00     0.169 HD
HETATM    4  C   UNK N   1      35.455  14.494  10.841  0.00  0.00     0.148 A 
HETATM    5  O   UNK N   1      36.651  14.608  11.370  0.00  0.00    -0.223 OA
HETATM    6  N   UNK N   1      36.705  13.919  12.469  0.00  0.00    -0.242 N 
ATOM      7  HN  UNK N   1      37.506  13.813  13.093  1.00  0.00     0.196 HD
ENDROOT
BRANCH   1   8
HETATM    8  C   UNK N   1      35.074  12.521  13.737  0.00  0.00     0.012 A 
HETATM    9  C   UNK N   1      35.278  12.943  15.056  0.00  0.00     0.051 A 
HETATM   10  C   UNK N   1      34.900  12.122  16.131  0.00  0.00     0.103 A 
HETATM   11  C   UNK N   1      34.309  10.877  15.869  0.00  0.00     0.036 A 
HETATM   12  C   UNK N   1      34.097  10.458  14.554  0.00  0.00     0.003 A 
HETATM   13  C   UNK N   1      34.481  11.277  13.492  0.00  0.00     0.015 A 
BRANCH  10  14
HETATM   14  N   UNK N   1      35.121  12.541  17.470  0.00  0.00    -0.116 N 
HETATM   15  O   UNK N   1      35.237  13.821  17.754  0.00  0.00    -0.532 OA
HETATM   16  O   UNK N   1      35.187  11.736  18.352  0.00  0.00    -0.532 OA
ENDBRANCH  10  14
ENDBRANCH   1   8
BRANCH   4  17
HETATM   17  C   UNK N   1      34.999  15.183   9.608  0.00  0.00     0.087 C 
BRANCH  17  18
HETATM   18  C   UNK N   1      34.895  16.667   9.913  0.00  0.00     0.018 C 
BRANCH  18  19
HETATM   19  C   UNK N   1      33.892  17.361   9.010  0.00  0.00     0.110 C 
BRANCH  19  20
HETATM   20  C   UNK N   1      34.584  18.296   8.071  0.00  0.00     0.139 C 
HETATM   21  O   UNK N   1      35.245  19.221   8.514  0.00  0.00    -0.650 OA
BRANCH  20  22
HETATM   22  O   UNK N   1      34.467  18.130   6.739  0.00  0.00    -0.776 OA
HETATM   23  H   UNK N   1      34.005  17.400   6.377  0.00  0.00     0.167 HD
ENDBRANCH  20  22
ENDBRANCH  19  20
ENDBRANCH  18  19
ENDBRANCH  17  18
ENDBRANCH   4  17
TORSDOF 7
ENDMDL
MODEL 5
REMARK VINA RESULT:      -6.1     11.541     13.692
REMARK  7 active torsions:
REMARK  status: ('A' for Active; 'I' for Inactive)
REMARK    1  A    between atoms: C_3  and  N_7 
REMARK    2  A    between atoms: C_5  and  C_10 
REMARK    3  A    between atoms: C_13  and  C_14 
REMARK    4  A    between atoms: C_14  and  C_15 
REMARK    5  A    between atoms: C_15  and  C_16 
REMARK    6  A    between atoms: C_16  and  C_17 
REMARK    7  A    between atoms: C_17  and  O_19 
ROOT
HETATM    1  C   UNK N   1      30.570  17.242   6.766  0.00  0.00     0.138 A 
HETATM    2  N   UNK N   1      30.197  17.474   5.493  0.00  0.00    -0.323 N 
ATOM      3  HN  UNK N   1      30.747  17.375   4.640  1.00  0.00     0.169 HD
HETATM    4  C   UNK N   1      28.922  17.869   5.627  0.00  0.00     0.148 A 
HETATM    5  O   UNK N   1      28.560  17.868   6.889  0.00  0.00    -0.223 OA
HETATM    6  N   UNK N   1      29.561  17.490   7.626  0.00  0.00    -0.242 N 
ATOM      7  HN  UNK N   1      29.580  17.399   8.642  1.00  0.00     0.196 HD
ENDROOT
BRANCH   1   8
HETATM    8  C   UNK N   1      31.901  16.765   7.155  0.00  0.00     0.012 A 
HETATM    9  C   UNK N   1      32.770  17.595   7.872  0.00  0.00     0.051 A 
HETATM   10  C   UNK N   1      34.050  17.142   8.231  0.00  0.00     0.103 A 
HETATM   11  C   UNK N   1      34.446  15.846   7.869  0.00  0.00     0.036 A 
HETATM   12  C   UNK N   1      33.577  15.014   7.160  0.00  0.00     0.003 A 
HETATM   13  C   UNK N   1      32.309  15.473   6.802  0.00  0.00     0.015 A 
BRANCH  10  14
HETATM   14  N   UNK N   1      34.940  17.988   8.946  0.00  0.00    -0.116 N 
HETATM   15  O   UNK N   1      35.244  19.179   8.475  0.00  0.00    -0.532 OA
HETATM   16  O   UNK N   1      35.407  17.632   9.987  0.00  0.00    -0.532 OA
ENDBRANCH  10  14
ENDBRANCH   1   8
BRANCH   4  17
HETATM   17  C   UNK N   1      28.031  18.194   4.485  0.00  0.00     0.087 C 
BRANCH  17  18
HETATM   18  C   UNK N   1      27.804  19.695   4.482  0.00  0.00     0.018 C 
BRANCH  18  19
HETATM   19  C   UNK N   1      26.464  20.066   5.092  0.00  0.00     0.110 C 
BRANCH  19  20
HETATM   20  C   UNK N   1      26.653  20.776   6.393  0.00  0.00     0.139 C 
HETATM   21  O   UNK N   1      26.634  21.995   6.427  0.00  0.00    -0.650 OA
BRANCH  20  22
HETATM   22  O   UNK N   1      26.862  20.075   7.525  0.00  0.00    -0.776 OA
HETATM   23  H   UNK N   1      27.295  19.244   7.512  0.00  0.00     0.167 HD
ENDBRANCH  20  22
ENDBRANCH  19  20
ENDBRANCH  18  19
ENDBRANCH  17  18
ENDBRANCH   4  17
TORSDOF 7
ENDMDL
MODEL 6
REMARK VINA RESULT:      -6.1     14.140     17.842
REMARK  7 active torsions:
REMARK  status: ('A' for Active; 'I' for Inactive)
REMARK    1  A    between atoms: C_3  and  N_7 
REMARK    2  A    between atoms: C_5  and  C_10 
REMARK    3  A    between atoms: C_13  and  C_14 
REMARK    4  A    between atoms: C_14  and  C_15 
REMARK    5  A    between atoms: C_15  and  C_16 
REMARK    6  A    between atoms: C_16  and  C_17 
REMARK    7  A    between atoms: C_17  and  O_19 
ROOT
HETATM    1  C   UNK N   1      33.596  17.396   8.577  0.00  0.00     0.138 A 
HETATM    2  N   UNK N   1      33.833  16.483   9.538  0.00  0.00    -0.323 N 
ATOM      3  HN  UNK N   1      33.280  15.663   9.788  1.00  0.00     0.169 HD
HETATM    4  C   UNK N   1      34.977  16.921  10.085  0.00  0.00     0.148 A 
HETATM    5  O   UNK N   1      35.393  18.014   9.490  0.00  0.00    -0.223 OA
HETATM    6  N   UNK N   1      34.557  18.342   8.552  0.00  0.00    -0.242 N 
ATOM      7  HN  UNK N   1      34.614  19.146   7.926  1.00  0.00     0.196 HD
ENDROOT
BRANCH   1   8
HETATM    8  C   UNK N   1      32.446  17.348   7.669  0.00  0.00     0.012 A 
HETATM    9  C   UNK N   1      32.636  17.209   6.289  0.00  0.00     0.051 A 
HETATM   10  C   UNK N   1      31.535  17.178   5.419  0.00  0.00     0.103 A 
HETATM   11  C   UNK N   1      30.240  17.282   5.947  0.00  0.00     0.036 A 
HETATM   12  C   UNK N   1      30.047  17.414   7.324  0.00  0.00     0.003 A 
HETATM   13  C   UNK N   1      31.147  17.449   8.182  0.00  0.00     0.015 A 
BRANCH  10  14
HETATM   14  N   UNK N   1      31.727  17.052   4.017  0.00  0.00    -0.116 N 
HETATM   15  O   UNK N   1      32.904  17.302   3.484  0.00  0.00    -0.532 OA
HETATM   16  O   UNK N   1      30.826  16.703   3.313  0.00  0.00    -0.532 OA
ENDBRANCH  10  14
ENDBRANCH   1   8
BRANCH   4  17
HETATM   17  C   UNK N   1      35.698  16.214  11.172  0.00  0.00     0.087 C 
BRANCH  17  18
HETATM   18  C   UNK N   1      34.959  14.920  11.459  0.00  0.00     0.018 C 
BRANCH  18  19
HETATM   19  C   UNK N   1      35.870  13.872  12.074  0.00  0.00     0.110 C 
BRANCH  19  20
HETATM   20  C   UNK N   1      35.905  14.010  13.562  0.00  0.00     0.139 C 
HETATM   21  O   UNK N   1      35.009  13.534  14.237  0.00  0.00    -0.650 OA
BRANCH  20  22
HETATM   22  O   UNK N   1      36.916  14.673  14.157  0.00  0.00    -0.776 OA
HETATM   23  H   UNK N   1      37.384  14.303  14.880  0.00  0.00     0.167 HD
ENDBRANCH  20  22
ENDBRANCH  19  20
ENDBRANCH  18  19
ENDBRANCH  17  18
ENDBRANCH   4  17
TORSDOF 7
ENDMDL
MODEL 7
REMARK VINA RESULT:      -6.0     16.927     19.800
REMARK  7 active torsions:
REMARK  status: ('A' for Active; 'I' for Inactive)
REMARK    1  A    between atoms: C_3  and  N_7 
REMARK    2  A    between atoms: C_5  and  C_10 
REMARK    3  A    between atoms: C_13  and  C_14 
REMARK    4  A    between atoms: C_14  and  C_15 
REMARK    5  A    between atoms: C_15  and  C_16 
REMARK    6  A    between atoms: C_16  and  C_17 
REMARK    7  A    between atoms: C_17  and  O_19 
ROOT
HETATM    1  C   UNK N   1      34.733  14.148  10.529  0.00  0.00     0.138 A 
HETATM    2  N   UNK N   1      33.498  14.671  10.651  0.00  0.00    -0.323 N 
ATOM      3  HN  UNK N   1      32.905  14.718  11.479  1.00  0.00     0.169 HD
HETATM    4  C   UNK N   1      33.243  15.115   9.411  0.00  0.00     0.148 A 
HETATM    5  O   UNK N   1      34.256  14.877   8.610  0.00  0.00    -0.223 OA
HETATM    6  N   UNK N   1      35.196  14.272   9.269  0.00  0.00    -0.242 N 
ATOM      7  HN  UNK N   1      36.098  13.956   8.910  1.00  0.00     0.196 HD
ENDROOT
BRANCH   1   8
HETATM    8  C   UNK N   1      35.476  13.539  11.637  0.00  0.00     0.012 A 
HETATM    9  C   UNK N   1      35.011  13.654  12.952  0.00  0.00     0.051 A 
HETATM   10  C   UNK N   1      35.730  13.083  14.013  0.00  0.00     0.103 A 
HETATM   11  C   UNK N   1      36.919  12.389  13.742  0.00  0.00     0.036 A 
HETATM   12  C   UNK N   1      37.381  12.266  12.430  0.00  0.00     0.003 A 
HETATM   13  C   UNK N   1      36.663  12.841  11.381  0.00  0.00     0.015 A 
BRANCH  10  14
HETATM   14  N   UNK N   1      35.268  13.212  15.351  0.00  0.00    -0.116 N 
HETATM   15  O   UNK N   1      36.095  13.580  16.305  0.00  0.00    -0.532 OA
HETATM   16  O   UNK N   1      34.121  13.002  15.615  0.00  0.00    -0.532 OA
ENDBRANCH  10  14
ENDBRANCH   1   8
BRANCH   4  17
HETATM   17  C   UNK N   1      32.005  15.839   9.029  0.00  0.00     0.087 C 
BRANCH  17  18
HETATM   18  C   UNK N   1      32.356  16.808   7.914  0.00  0.00     0.018 C 
BRANCH  18  19
HETATM   19  C   UNK N   1      32.972  18.088   8.449  0.00  0.00     0.110 C 
BRANCH  19  20
HETATM   20  C   UNK N   1      34.322  18.316   7.850  0.00  0.00     0.139 C 
HETATM   21  O   UNK N   1      34.635  17.739   6.822  0.00  0.00    -0.650 OA
BRANCH  20  22
HETATM   22  O   UNK N   1      35.200  19.144   8.450  0.00  0.00    -0.776 OA
HETATM   23  H   UNK N   1      35.919  19.517   7.980  0.00  0.00     0.167 HD
ENDBRANCH  20  22
ENDBRANCH  19  20
ENDBRANCH  18  19
ENDBRANCH  17  18
ENDBRANCH   4  17
TORSDOF 7
ENDMDL
MODEL 8
REMARK VINA RESULT:      -5.9     21.256     24.300
REMARK  7 active torsions:
REMARK  status: ('A' for Active; 'I' for Inactive)
REMARK    1  A    between atoms: C_3  and  N_7 
REMARK    2  A    between atoms: C_5  and  C_10 
REMARK    3  A    between atoms: C_13  and  C_14 
REMARK    4  A    between atoms: C_14  and  C_15 
REMARK    5  A    between atoms: C_15  and  C_16 
REMARK    6  A    between atoms: C_16  and  C_17 
REMARK    7  A    between atoms: C_17  and  O_19 
ROOT
HETATM    1  C   UNK N   1      36.095  12.568  14.854  0.00  0.00     0.138 A 
HETATM    2  N   UNK N   1      35.185  12.868  13.908  0.00  0.00    -0.323 N 
ATOM      3  HN  UNK N   1      34.191  13.065  14.020  1.00  0.00     0.169 HD
HETATM    4  C   UNK N   1      35.912  12.841  12.781  0.00  0.00     0.148 A 
HETATM    5  O   UNK N   1      37.166  12.550  13.038  0.00  0.00    -0.223 OA
HETATM    6  N   UNK N   1      37.315  12.368  14.315  0.00  0.00    -0.242 N 
ATOM      7  HN  UNK N   1      38.174  12.125  14.808  1.00  0.00     0.196 HD
ENDROOT
BRANCH   1   8
HETATM    8  C   UNK N   1      35.790  12.488  16.286  0.00  0.00     0.012 A 
HETATM    9  C   UNK N   1      35.795  11.253  16.945  0.00  0.00     0.051 A 
HETATM   10  C   UNK N   1      35.490  11.176  18.313  0.00  0.00     0.103 A 
HETATM   11  C   UNK N   1      35.185  12.351  19.015  0.00  0.00     0.036 A 
HETATM   12  C   UNK N   1      35.187  13.585  18.362  0.00  0.00     0.003 A 
HETATM   13  C   UNK N   1      35.486  13.653  17.001  0.00  0.00     0.015 A 
BRANCH  10  14
HETATM   14  N   UNK N   1      35.479   9.921  18.980  0.00  0.00    -0.116 N 
HETATM   15  O   UNK N   1      34.363   9.232  19.078  0.00  0.00    -0.532 OA
HETATM   16  O   UNK N   1      36.487   9.476  19.444  0.00  0.00    -0.532 OA
ENDBRANCH  10  14
ENDBRANCH   1   8
BRANCH   4  17
HETATM   17  C   UNK N   1      35.371  13.167  11.438  0.00  0.00     0.087 C 
BRANCH  17  18
HETATM   18  C   UNK N   1      34.592  14.466  11.551  0.00  0.00     0.018 C 
BRANCH  18  19
HETATM   19  C   UNK N   1      34.743  15.326  10.310  0.00  0.00     0.110 C 
BRANCH  19  20
HETATM   20  C   UNK N   1      35.775  16.386  10.523  0.00  0.00     0.139 C 
HETATM   21  O   UNK N   1      35.499  17.554  10.303  0.00  0.00    -0.650 OA
BRANCH  20  22
HETATM   22  O   UNK N   1      37.012  16.055  10.941  0.00  0.00    -0.776 OA
HETATM   23  H   UNK N   1      37.621  15.626  10.372  0.00  0.00     0.167 HD
ENDBRANCH  20  22
ENDBRANCH  19  20
ENDBRANCH  18  19
ENDBRANCH  17  18
ENDBRANCH   4  17
TORSDOF 7
ENDMDL
MODEL 9
REMARK VINA RESULT:      -5.9     10.515     13.678
REMARK  7 active torsions:
REMARK  status: ('A' for Active; 'I' for Inactive)
REMARK    1  A    between atoms: C_3  and  N_7 
REMARK    2  A    between atoms: C_5  and  C_10 
REMARK    3  A    between atoms: C_13  and  C_14 
REMARK    4  A    between atoms: C_14  and  C_15 
REMARK    5  A    between atoms: C_15  and  C_16 
REMARK    6  A    between atoms: C_16  and  C_17 
REMARK    7  A    between atoms: C_17  and  O_19 
ROOT
HETATM    1  C   UNK N   1      28.452  18.306   4.962  0.00  0.00     0.138 A 
HETATM    2  N   UNK N   1      28.691  18.240   6.286  0.00  0.00    -0.323 N 
ATOM      3  HN  UNK N   1      28.100  18.554   7.056  1.00  0.00     0.169 HD
HETATM    4  C   UNK N   1      29.900  17.661   6.338  0.00  0.00     0.148 A 
HETATM    5  O   UNK N   1      30.346  17.397   5.133  0.00  0.00    -0.223 OA
HETATM    6  N   UNK N   1      29.475  17.789   4.253  0.00  0.00    -0.242 N 
ATOM      7  HN  UNK N   1      29.550  17.721   3.238  1.00  0.00     0.196 HD
ENDROOT
BRANCH   1   8
HETATM    8  C   UNK N   1      27.224  18.855   4.379  0.00  0.00     0.012 A 
HETATM    9  C   UNK N   1      26.007  18.179   4.520  0.00  0.00     0.051 A 
HETATM   10  C   UNK N   1      24.834  18.698   3.949  0.00  0.00     0.103 A 
HETATM   11  C   UNK N   1      24.894  19.907   3.239  0.00  0.00     0.036 A 
HETATM   12  C   UNK N   1      26.106  20.588   3.104  0.00  0.00     0.003 A 
HETATM   13  C   UNK N   1      27.268  20.062   3.670  0.00  0.00     0.015 A 
BRANCH  10  14
HETATM   14  N   UNK N   1      23.601  18.006   4.078  0.00  0.00    -0.116 N 
HETATM   15  O   UNK N   1      22.535  18.629   4.532  0.00  0.00    -0.532 OA
HETATM   16  O   UNK N   1      23.518  16.856   3.760  0.00  0.00    -0.532 OA
ENDBRANCH  10  14
ENDBRANCH   1   8
BRANCH   4  17
HETATM   17  C   UNK N   1      30.595  17.310   7.602  0.00  0.00     0.087 C 
BRANCH  17  18
HETATM   18  C   UNK N   1      32.069  17.127   7.288  0.00  0.00     0.018 C 
BRANCH  18  19
HETATM   19  C   UNK N   1      32.956  17.766   8.341  0.00  0.00     0.110 C 
BRANCH  19  20
HETATM   20  C   UNK N   1      34.243  18.230   7.738  0.00  0.00     0.139 C 
HETATM   21  O   UNK N   1      34.593  17.801   6.652  0.00  0.00    -0.650 OA
BRANCH  20  22
HETATM   22  O   UNK N   1      35.024  19.108   8.398  0.00  0.00    -0.776 OA
HETATM   23  H   UNK N   1      35.839  18.846   8.779  0.00  0.00     0.167 HD
ENDBRANCH  20  22
ENDBRANCH  19  20
ENDBRANCH  18  19
ENDBRANCH  17  18
ENDBRANCH   4  17
TORSDOF 7
ENDMDL
