MODEL 1
REMARK VINA RESULT:      -6.4      0.000      0.000
REMARK  7 active torsions:
REMARK  status: ('A' for Active; 'I' for Inactive)
REMARK       I    between atoms: N_4  and  C_2 
REMARK    1  A    between atoms: C_14  and  C_2 
REMARK    2  A    between atoms: N_4  and  C_5 
REMARK    3  A    between atoms: C_6  and  C_5 
REMARK    4  A    between atoms: C_6  and  C_7 
REMARK    5  A    between atoms: C_8  and  C_7 
REMARK    6  A    between atoms: N_10  and  C_8 
REMARK       I    between atoms: C_9  and  N_10 
REMARK       I    between atoms: N_11  and  C_9 
REMARK    7  A    between atoms: C_17  and  C_24 
ROOT
HETATM    1  C   UNK N   1      34.884  16.979   9.778  0.00  0.00     0.268 C 
HETATM    2  O   UNK N   1      35.502  18.032   9.749  0.00  0.00    -0.266 OA
HETATM    3  N   UNK N   1      33.641  16.959   9.237  0.00  0.00    -0.356 N 
HETATM    4  H   UNK N   1      33.303  17.810   8.876  0.00  0.00     0.162 HD
ENDROOT
BRANCH   3   5
HETATM    5  C   UNK N   1      32.766  15.818   9.133  0.00  0.00     0.123 C 
BRANCH   5   6
HETATM    6  C   UNK N   1      32.520  15.478   7.660  0.00  0.00     0.021 C 
BRANCH   6   7
HETATM    7  C   UNK N   1      31.137  15.899   7.164  0.00  0.00     0.022 C 
BRANCH   7   8
HETATM    8  C   UNK N   1      30.903  17.375   7.391  0.00  0.00     0.138 C 
BRANCH   8   9
HETATM    9  N   UNK N   1      29.511  17.584   7.699  0.00  0.00    -0.227 N 
HETATM   10  C   UNK N   1      29.107  18.167   8.926  0.00  0.00     0.665 C 
HETATM   11  N   UNK N   1      29.980  18.569   9.776  0.00  0.00    -0.235 N 
HETATM   12  N   UNK N   1      27.734  18.356   9.193  0.00  0.00    -0.235 N 
HETATM   13  H   UNK N   1      29.739  18.690  10.723  0.00  0.00     0.174 HD
ATOM     14  HN  UNK N   1      30.933  18.765   9.468  1.00  0.00     0.174 HD
HETATM   15  H   UNK N   1      27.024  18.256   8.518  0.00  0.00     0.174 HD
HETATM   16  H   UNK N   1      27.470  18.601  10.110  0.00  0.00     0.174 HD
HETATM   17  H   UNK N   1      28.827  17.315   7.043  0.00  0.00     0.177 HD
ENDBRANCH   8   9
ENDBRANCH   7   8
ENDBRANCH   6   7
ENDBRANCH   5   6
ENDBRANCH   3   5
BRANCH   1  18
HETATM   18  C   UNK N   1      35.543  15.811  10.416  0.00  0.00     0.108 A 
HETATM   19  N   UNK N   1      35.497  15.679  11.786  0.00  0.00    -0.344 N 
HETATM   20  C   UNK N   1      36.122  14.569  12.231  0.00  0.00     0.102 A 
ATOM     21  HN  UNK N   1      35.039  16.351  12.401  1.00  0.00     0.167 HD
HETATM   22  S   UNK N   1      36.733  13.743  10.940  0.00  0.00    -0.080 SA
HETATM   23  C   UNK N   1      36.224  14.776   9.737  0.00  0.00     0.087 A 
BRANCH  20  24
HETATM   24  C   UNK N   1      36.203  14.206  13.650  0.00  0.00     0.073 A 
HETATM   25  N   UNK N   1      37.026  14.865  14.537  0.00  0.00    -0.357 N 
HETATM   26  C   UNK N   1      36.948  14.368  15.799  0.00  0.00     0.138 A 
ATOM     27  HN  UNK N   1      37.631  15.643  14.274  1.00  0.00     0.166 HD
HETATM   28  S   UNK N   1      35.861  13.123  15.789  0.00  0.00    -0.094 SA
HETATM   29  C   UNK N   1      35.441  13.157  14.191  0.00  0.00     0.083 A 
ENDBRANCH  20  24
ENDBRANCH   1  18
TORSDOF 7
ENDMDL
MODEL 2
REMARK VINA RESULT:      -6.3      2.216      3.035
REMARK  7 active torsions:
REMARK  status: ('A' for Active; 'I' for Inactive)
REMARK       I    between atoms: N_4  and  C_2 
REMARK    1  A    between atoms: C_14  and  C_2 
REMARK    2  A    between atoms: N_4  and  C_5 
REMARK    3  A    between atoms: C_6  and  C_5 
REMARK    4  A    between atoms: C_6  and  C_7 
REMARK    5  A    between atoms: C_8  and  C_7 
REMARK    6  A    between atoms: N_10  and  C_8 
REMARK       I    between atoms: C_9  and  N_10 
REMARK       I    between atoms: N_11  and  C_9 
REMARK    7  A    between atoms: C_17  and  C_24 
ROOT
HETATM    1  C   UNK N   1      34.084  18.064   8.455  0.00  0.00     0.268 C 
HETATM    2  O   UNK N   1      34.938  18.923   8.301  0.00  0.00    -0.266 OA
HETATM    3  N   UNK N   1      32.784  18.436   8.348  0.00  0.00    -0.356 N 
HETATM    4  H   UNK N   1      32.611  19.391   8.178  0.00  0.00     0.162 HD
ENDROOT
BRANCH   3   5
HETATM    5  C   UNK N   1      31.631  17.578   8.454  0.00  0.00     0.123 C 
BRANCH   5   6
HETATM    6  C   UNK N   1      30.390  18.408   8.797  0.00  0.00     0.021 C 
BRANCH   6   7
HETATM    7  C   UNK N   1      29.119  17.907   8.112  0.00  0.00     0.022 C 
BRANCH   7   8
HETATM    8  C   UNK N   1      27.979  18.882   8.299  0.00  0.00     0.138 C 
BRANCH   8   9
HETATM    9  N   UNK N   1      27.721  19.540   7.043  0.00  0.00    -0.227 N 
HETATM   10  C   UNK N   1      26.737  20.555   6.933  0.00  0.00     0.665 C 
HETATM   11  N   UNK N   1      26.083  20.945   7.965  0.00  0.00    -0.235 N 
HETATM   12  N   UNK N   1      26.510  21.177   5.687  0.00  0.00    -0.235 N 
HETATM   13  H   UNK N   1      25.219  21.408   7.867  0.00  0.00     0.174 HD
ATOM     14  HN  UNK N   1      26.461  20.775   8.897  1.00  0.00     0.174 HD
HETATM   15  H   UNK N   1      27.099  21.072   4.905  0.00  0.00     0.174 HD
HETATM   16  H   UNK N   1      25.715  21.751   5.593  0.00  0.00     0.174 HD
HETATM   17  H   UNK N   1      28.237  19.279   6.247  0.00  0.00     0.177 HD
ENDBRANCH   8   9
ENDBRANCH   7   8
ENDBRANCH   6   7
ENDBRANCH   5   6
ENDBRANCH   3   5
BRANCH   1  18
HETATM   18  C   UNK N   1      34.541  16.684   8.759  0.00  0.00     0.108 A 
HETATM   19  N   UNK N   1      34.643  16.284  10.073  0.00  0.00    -0.344 N 
HETATM   20  C   UNK N   1      35.055  15.006  10.206  0.00  0.00     0.102 A 
ATOM     21  HN  UNK N   1      34.430  16.892  10.864  1.00  0.00     0.167 HD
HETATM   22  S   UNK N   1      35.294  14.361   8.707  0.00  0.00    -0.080 SA
HETATM   23  C   UNK N   1      34.879  15.698   7.805  0.00  0.00     0.087 A 
BRANCH  20  24
HETATM   24  C   UNK N   1      35.235  14.351  11.506  0.00  0.00     0.073 A 
HETATM   25  N   UNK N   1      34.638  13.149  11.818  0.00  0.00    -0.357 N 
HETATM   26  C   UNK N   1      34.935  12.722  13.073  0.00  0.00     0.138 A 
ATOM     27  HN  UNK N   1      34.036  12.635  11.175  1.00  0.00     0.166 HD
HETATM   28  S   UNK N   1      35.931  13.842  13.770  0.00  0.00    -0.094 SA
HETATM   29  C   UNK N   1      36.030  14.916  12.517  0.00  0.00     0.083 A 
ENDBRANCH  20  24
ENDBRANCH   1  18
TORSDOF 7
ENDMDL
MODEL 3
REMARK VINA RESULT:      -6.1      3.395      8.093
REMARK  7 active torsions:
REMARK  status: ('A' for Active; 'I' for Inactive)
REMARK       I    between atoms: N_4  and  C_2 
REMARK    1  A    between atoms: C_14  and  C_2 
REMARK    2  A    between atoms: N_4  and  C_5 
REMARK    3  A    between atoms: C_6  and  C_5 
REMARK    4  A    between atoms: C_6  and  C_7 
REMARK    5  A    between atoms: C_8  and  C_7 
REMARK    6  A    between atoms: N_10  and  C_8 
REMARK       I    between atoms: C_9  and  N_10 
REMARK       I    between atoms: N_11  and  C_9 
REMARK    7  A    between atoms: C_17  and  C_24 
ROOT
HETATM    1  C   UNK N   1      34.515  18.096   8.416  0.00  0.00     0.268 C 
HETATM    2  O   UNK N   1      35.004  19.210   8.309  0.00  0.00    -0.266 OA
HETATM    3  N   UNK N   1      34.898  17.333   9.469  0.00  0.00    -0.356 N 
HETATM    4  H   UNK N   1      35.575  17.720  10.071  0.00  0.00     0.162 HD
ENDROOT
BRANCH   3   5
HETATM    5  C   UNK N   1      34.416  16.015   9.799  0.00  0.00     0.123 C 
BRANCH   5   6
HETATM    6  C   UNK N   1      35.532  14.985   9.607  0.00  0.00     0.021 C 
BRANCH   6   7
HETATM    7  C   UNK N   1      36.502  14.916  10.787  0.00  0.00     0.022 C 
BRANCH   7   8
HETATM    8  C   UNK N   1      35.796  15.214  12.090  0.00  0.00     0.138 C 
BRANCH   8   9
HETATM    9  N   UNK N   1      36.683  14.901  13.182  0.00  0.00    -0.227 N 
HETATM   10  C   UNK N   1      36.384  13.862  14.099  0.00  0.00     0.665 C 
HETATM   11  N   UNK N   1      35.334  13.140  13.948  0.00  0.00    -0.235 N 
HETATM   12  N   UNK N   1      37.276  13.584  15.156  0.00  0.00    -0.235 N 
HETATM   13  H   UNK N   1      34.958  12.638  14.707  0.00  0.00     0.174 HD
ATOM     14  HN  UNK N   1      34.884  13.086  13.034  1.00  0.00     0.174 HD
HETATM   15  H   UNK N   1      38.184  13.958  15.222  0.00  0.00     0.174 HD
HETATM   16  H   UNK N   1      36.971  12.981  15.873  0.00  0.00     0.174 HD
HETATM   17  H   UNK N   1      37.512  15.420  13.293  0.00  0.00     0.177 HD
ENDBRANCH   8   9
ENDBRANCH   7   8
ENDBRANCH   6   7
ENDBRANCH   5   6
ENDBRANCH   3   5
BRANCH   1  18
HETATM   18  C   UNK N   1      33.548  17.665   7.374  0.00  0.00     0.108 A 
HETATM   19  N   UNK N   1      32.211  17.579   7.692  0.00  0.00    -0.344 N 
HETATM   20  C   UNK N   1      31.444  17.191   6.652  0.00  0.00     0.102 A 
ATOM     21  HN  UNK N   1      31.839  17.786   8.619  1.00  0.00     0.167 HD
HETATM   22  S   UNK N   1      32.407  16.954   5.334  0.00  0.00    -0.080 SA
HETATM   23  C   UNK N   1      33.867  17.339   6.037  0.00  0.00     0.087 A 
BRANCH  20  24
HETATM   24  C   UNK N   1      29.989  17.031   6.742  0.00  0.00     0.073 A 
HETATM   25  N   UNK N   1      29.248  17.564   7.775  0.00  0.00    -0.357 N 
HETATM   26  C   UNK N   1      27.920  17.297   7.665  0.00  0.00     0.138 A 
ATOM     27  HN  UNK N   1      29.653  18.101   8.541  1.00  0.00     0.166 HD
HETATM   28  S   UNK N   1      27.692  16.407   6.291  0.00  0.00    -0.094 SA
HETATM   29  C   UNK N   1      29.260  16.319   5.775  0.00  0.00     0.083 A 
ENDBRANCH  20  24
ENDBRANCH   1  18
TORSDOF 7
ENDMDL
MODEL 4
REMARK VINA RESULT:      -6.0      1.832      2.078
REMARK  7 active torsions:
REMARK  status: ('A' for Active; 'I' for Inactive)
REMARK       I    between atoms: N_4  and  C_2 
REMARK    1  A    between atoms: C_14  and  C_2 
REMARK    2  A    between atoms: N_4  and  C_5 
REMARK    3  A    between atoms: C_6  and  C_5 
REMARK    4  A    between atoms: C_6  and  C_7 
REMARK    5  A    between atoms: C_8  and  C_7 
REMARK    6  A    between atoms: N_10  and  C_8 
REMARK       I    between atoms: C_9  and  N_10 
REMARK       I    between atoms: N_11  and  C_9 
REMARK    7  A    between atoms: C_17  and  C_24 
ROOT
HETATM    1  C   UNK N   1      33.062  14.154   9.046  0.00  0.00     0.268 C 
HETATM    2  O   UNK N   1      32.507  13.088   8.829  0.00  0.00    -0.266 OA
HETATM    3  N   UNK N   1      32.465  15.284   8.594  0.00  0.00    -0.356 N 
HETATM    4  H   UNK N   1      31.627  15.168   8.090  0.00  0.00     0.162 HD
ENDROOT
BRANCH   3   5
HETATM    5  C   UNK N   1      32.929  16.637   8.778  0.00  0.00     0.123 C 
BRANCH   5   6
HETATM    6  C   UNK N   1      32.033  17.607   8.003  0.00  0.00     0.021 C 
BRANCH   6   7
HETATM    7  C   UNK N   1      31.570  17.058   6.654  0.00  0.00     0.022 C 
BRANCH   7   8
HETATM    8  C   UNK N   1      30.072  17.186   6.499  0.00  0.00     0.138 C 
BRANCH   8   9
HETATM    9  N   UNK N   1      29.538  17.843   7.666  0.00  0.00    -0.227 N 
HETATM   10  C   UNK N   1      28.164  17.747   8.001  0.00  0.00     0.665 C 
HETATM   11  N   UNK N   1      27.369  17.029   7.296  0.00  0.00    -0.235 N 
HETATM   12  N   UNK N   1      27.677  18.404   9.151  0.00  0.00    -0.235 N 
HETATM   13  H   UNK N   1      26.396  17.183   7.323  0.00  0.00     0.174 HD
ATOM     14  HN  UNK N   1      27.747  16.291   6.701  1.00  0.00     0.174 HD
HETATM   15  H   UNK N   1      28.254  18.805   9.840  0.00  0.00     0.174 HD
HETATM   16  H   UNK N   1      26.701  18.466   9.271  0.00  0.00     0.174 HD
HETATM   17  H   UNK N   1      30.140  18.370   8.240  0.00  0.00     0.177 HD
ENDBRANCH   8   9
ENDBRANCH   7   8
ENDBRANCH   6   7
ENDBRANCH   5   6
ENDBRANCH   3   5
BRANCH   1  18
HETATM   18  C   UNK N   1      34.354  14.121   9.780  0.00  0.00     0.108 A 
HETATM   19  N   UNK N   1      34.345  13.993  11.151  0.00  0.00    -0.344 N 
HETATM   20  C   UNK N   1      35.583  13.963  11.686  0.00  0.00     0.102 A 
ATOM     21  HN  UNK N   1      33.490  13.928  11.704  1.00  0.00     0.167 HD
HETATM   22  S   UNK N   1      36.695  14.093  10.475  0.00  0.00    -0.080 SA
HETATM   23  C   UNK N   1      35.637  14.196   9.193  0.00  0.00     0.087 A 
BRANCH  20  24
HETATM   24  C   UNK N   1      35.833  13.826  13.125  0.00  0.00     0.073 A 
HETATM   25  N   UNK N   1      36.720  14.634  13.803  0.00  0.00    -0.357 N 
HETATM   26  C   UNK N   1      36.800  14.336  15.126  0.00  0.00     0.138 A 
ATOM     27  HN  UNK N   1      37.260  15.376  13.358  1.00  0.00     0.166 HD
HETATM   28  S   UNK N   1      35.771  13.079  15.428  0.00  0.00    -0.094 SA
HETATM   29  C   UNK N   1      35.178  12.855  13.902  0.00  0.00     0.083 A 
ENDBRANCH  20  24
ENDBRANCH   1  18
TORSDOF 7
ENDMDL
MODEL 5
REMARK VINA RESULT:      -5.8      4.349      6.620
REMARK  7 active torsions:
REMARK  status: ('A' for Active; 'I' for Inactive)
REMARK       I    between atoms: N_4  and  C_2 
REMARK    1  A    between atoms: C_14  and  C_2 
REMARK    2  A    between atoms: N_4  and  C_5 
REMARK    3  A    between atoms: C_6  and  C_5 
REMARK    4  A    between atoms: C_6  and  C_7 
REMARK    5  A    between atoms: C_8  and  C_7 
REMARK    6  A    between atoms: N_10  and  C_8 
REMARK       I    between atoms: C_9  and  N_10 
REMARK       I    between atoms: N_11  and  C_9 
REMARK    7  A    between atoms: C_17  and  C_24 
ROOT
HETATM    1  C   UNK N   1      28.243  17.638   8.906  0.00  0.00     0.268 C 
HETATM    2  O   UNK N   1      27.713  16.989   9.795  0.00  0.00    -0.266 OA
HETATM    3  N   UNK N   1      27.609  18.755   8.473  0.00  0.00    -0.356 N 
HETATM    4  H   UNK N   1      26.739  18.958   8.887  0.00  0.00     0.162 HD
ENDROOT
BRANCH   3   5
HETATM    5  C   UNK N   1      28.078  19.678   7.469  0.00  0.00     0.123 C 
BRANCH   5   6
HETATM    6  C   UNK N   1      27.354  19.424   6.144  0.00  0.00     0.021 C 
BRANCH   6   7
HETATM    7  C   UNK N   1      26.990  20.708   5.398  0.00  0.00     0.022 C 
BRANCH   7   8
HETATM    8  C   UNK N   1      26.568  20.411   3.977  0.00  0.00     0.138 C 
BRANCH   8   9
HETATM    9  N   UNK N   1      25.129  20.416   3.908  0.00  0.00    -0.227 N 
HETATM   10  C   UNK N   1      24.396  19.216   3.724  0.00  0.00     0.665 C 
HETATM   11  N   UNK N   1      25.000  18.086   3.662  0.00  0.00    -0.235 N 
HETATM   12  N   UNK N   1      22.987  19.259   3.661  0.00  0.00    -0.235 N 
HETATM   13  H   UNK N   1      24.565  17.307   3.245  0.00  0.00     0.174 HD
ATOM     14  HN  UNK N   1      25.940  17.993   4.047  1.00  0.00     0.174 HD
HETATM   15  H   UNK N   1      22.451  20.052   3.894  0.00  0.00     0.174 HD
HETATM   16  H   UNK N   1      22.512  18.449   3.364  0.00  0.00     0.174 HD
HETATM   17  H   UNK N   1      24.645  21.270   3.990  0.00  0.00     0.177 HD
ENDBRANCH   8   9
ENDBRANCH   7   8
ENDBRANCH   6   7
ENDBRANCH   5   6
ENDBRANCH   3   5
BRANCH   1  18
HETATM   18  C   UNK N   1      29.535  17.142   8.367  0.00  0.00     0.108 A 
HETATM   19  N   UNK N   1      30.579  16.908   9.234  0.00  0.00    -0.344 N 
HETATM   20  C   UNK N   1      31.686  16.447   8.614  0.00  0.00     0.102 A 
ATOM     21  HN  UNK N   1      30.522  17.067  10.239  1.00  0.00     0.167 HD
HETATM   22  S   UNK N   1      31.385  16.324   6.997  0.00  0.00    -0.080 SA
HETATM   23  C   UNK N   1      29.808  16.860   7.010  0.00  0.00     0.087 A 
BRANCH  20  24
HETATM   24  C   UNK N   1      32.927  16.119   9.325  0.00  0.00     0.073 A 
HETATM   25  N   UNK N   1      32.990  15.139  10.292  0.00  0.00    -0.357 N 
HETATM   26  C   UNK N   1      34.232  15.000  10.823  0.00  0.00     0.138 A 
ATOM     27  HN  UNK N   1      32.188  14.578  10.578  1.00  0.00     0.166 HD
HETATM   28  S   UNK N   1      35.227  16.094  10.085  0.00  0.00    -0.094 SA
HETATM   29  C   UNK N   1      34.132  16.792   9.062  0.00  0.00     0.083 A 
ENDBRANCH  20  24
ENDBRANCH   1  18
TORSDOF 7
ENDMDL
MODEL 6
REMARK VINA RESULT:      -5.8      5.226      7.848
REMARK  7 active torsions:
REMARK  status: ('A' for Active; 'I' for Inactive)
REMARK       I    between atoms: N_4  and  C_2 
REMARK    1  A    between atoms: C_14  and  C_2 
REMARK    2  A    between atoms: N_4  and  C_5 
REMARK    3  A    between atoms: C_6  and  C_5 
REMARK    4  A    between atoms: C_6  and  C_7 
REMARK    5  A    between atoms: C_8  and  C_7 
REMARK    6  A    between atoms: N_10  and  C_8 
REMARK       I    between atoms: C_9  and  N_10 
REMARK       I    between atoms: N_11  and  C_9 
REMARK    7  A    between atoms: C_17  and  C_24 
ROOT
HETATM    1  C   UNK N   1      27.564  17.876   6.365  0.00  0.00     0.268 C 
HETATM    2  O   UNK N   1      27.580  18.760   5.523  0.00  0.00    -0.266 OA
HETATM    3  N   UNK N   1      26.679  16.862   6.203  0.00  0.00    -0.356 N 
HETATM    4  H   UNK N   1      26.082  16.919   5.422  0.00  0.00     0.162 HD
ENDROOT
BRANCH   3   5
HETATM    5  C   UNK N   1      26.525  15.708   7.053  0.00  0.00     0.123 C 
BRANCH   5   6
HETATM    6  C   UNK N   1      25.208  14.995   6.735  0.00  0.00     0.021 C 
BRANCH   6   7
HETATM    7  C   UNK N   1      25.133  13.579   7.309  0.00  0.00     0.022 C 
BRANCH   7   8
HETATM    8  C   UNK N   1      25.067  13.606   8.818  0.00  0.00     0.138 C 
BRANCH   8   9
HETATM    9  N   UNK N   1      23.951  12.802   9.249  0.00  0.00    -0.227 N 
HETATM   10  C   UNK N   1      23.949  12.163  10.515  0.00  0.00     0.665 C 
HETATM   11  N   UNK N   1      24.927  12.327  11.330  0.00  0.00    -0.235 N 
HETATM   12  N   UNK N   1      22.840  11.383  10.904  0.00  0.00    -0.235 N 
HETATM   13  H   UNK N   1      25.089  11.681  12.055  0.00  0.00     0.174 HD
ATOM     14  HN  UNK N   1      25.542  13.134  11.226  1.00  0.00     0.174 HD
HETATM   15  H   UNK N   1      21.981  11.371  10.422  0.00  0.00     0.174 HD
HETATM   16  H   UNK N   1      22.930  10.815  11.704  0.00  0.00     0.174 HD
HETATM   17  H   UNK N   1      23.176  12.694   8.652  0.00  0.00     0.177 HD
ENDBRANCH   8   9
ENDBRANCH   7   8
ENDBRANCH   6   7
ENDBRANCH   5   6
ENDBRANCH   3   5
BRANCH   1  18
HETATM   18  C   UNK N   1      28.508  17.993   7.506  0.00  0.00     0.108 A 
HETATM   19  N   UNK N   1      29.803  17.548   7.355  0.00  0.00    -0.344 N 
HETATM   20  C   UNK N   1      30.555  17.726   8.460  0.00  0.00     0.102 A 
ATOM     21  HN  UNK N   1      30.155  17.125   6.496  1.00  0.00     0.167 HD
HETATM   22  S   UNK N   1      29.632  18.435   9.629  0.00  0.00    -0.080 SA
HETATM   23  C   UNK N   1      28.210  18.549   8.770  0.00  0.00     0.087 A 
BRANCH  20  24
HETATM   24  C   UNK N   1      31.967  17.337   8.542  0.00  0.00     0.073 A 
HETATM   25  N   UNK N   1      32.382  16.183   9.170  0.00  0.00    -0.357 N 
HETATM   26  C   UNK N   1      33.730  16.016   9.132  0.00  0.00     0.138 A 
ATOM     27  HN  UNK N   1      31.745  15.524   9.617  1.00  0.00     0.166 HD
HETATM   28  S   UNK N   1      34.379  17.302   8.322  0.00  0.00    -0.094 SA
HETATM   29  C   UNK N   1      32.987  18.126   7.983  0.00  0.00     0.083 A 
ENDBRANCH  20  24
ENDBRANCH   1  18
TORSDOF 7
ENDMDL
MODEL 7
REMARK VINA RESULT:      -5.7      8.835     12.379
REMARK  7 active torsions:
REMARK  status: ('A' for Active; 'I' for Inactive)
REMARK       I    between atoms: N_4  and  C_2 
REMARK    1  A    between atoms: C_14  and  C_2 
REMARK    2  A    between atoms: N_4  and  C_5 
REMARK    3  A    between atoms: C_6  and  C_5 
REMARK    4  A    between atoms: C_6  and  C_7 
REMARK    5  A    between atoms: C_8  and  C_7 
REMARK    6  A    between atoms: N_10  and  C_8 
REMARK       I    between atoms: C_9  and  N_10 
REMARK       I    between atoms: N_11  and  C_9 
REMARK    7  A    between atoms: C_17  and  C_24 
ROOT
HETATM    1  C   UNK N   1      24.654  20.228   3.150  0.00  0.00     0.268 C 
HETATM    2  O   UNK N   1      24.851  21.010   2.233  0.00  0.00    -0.266 OA
HETATM    3  N   UNK N   1      23.411  19.702   3.277  0.00  0.00    -0.356 N 
HETATM    4  H   UNK N   1      22.734  20.009   2.632  0.00  0.00     0.162 HD
ENDROOT
BRANCH   3   5
HETATM    5  C   UNK N   1      22.980  18.737   4.258  0.00  0.00     0.123 C 
BRANCH   5   6
HETATM    6  C   UNK N   1      21.453  18.756   4.376  0.00  0.00     0.021 C 
BRANCH   6   7
HETATM    7  C   UNK N   1      20.805  19.938   3.655  0.00  0.00     0.022 C 
BRANCH   7   8
HETATM    8  C   UNK N   1      19.876  19.465   2.561  0.00  0.00     0.138 C 
BRANCH   8   9
HETATM    9  N   UNK N   1      19.751  18.032   2.644  0.00  0.00    -0.227 N 
HETATM   10  C   UNK N   1      19.818  17.219   1.485  0.00  0.00     0.665 C 
HETATM   11  N   UNK N   1      20.041  17.740   0.334  0.00  0.00    -0.235 N 
HETATM   12  N   UNK N   1      19.690  15.819   1.604  0.00  0.00    -0.235 N 
HETATM   13  H   UNK N   1      19.798  17.259  -0.490  0.00  0.00     0.174 HD
ATOM     14  HN  UNK N   1      20.475  18.661   0.271  1.00  0.00     0.174 HD
HETATM   15  H   UNK N   1      19.714  15.336   2.462  0.00  0.00     0.174 HD
HETATM   16  H   UNK N   1      19.570  15.292   0.780  0.00  0.00     0.174 HD
HETATM   17  H   UNK N   1      19.615  17.611   3.523  0.00  0.00     0.177 HD
ENDBRANCH   8   9
ENDBRANCH   7   8
ENDBRANCH   6   7
ENDBRANCH   5   6
ENDBRANCH   3   5
BRANCH   1  18
HETATM   18  C   UNK N   1      25.791  19.928   4.057  0.00  0.00     0.108 A 
HETATM   19  N   UNK N   1      26.668  18.920   3.724  0.00  0.00    -0.344 N 
HETATM   20  C   UNK N   1      27.660  18.763   4.626  0.00  0.00     0.102 A 
ATOM     21  HN  UNK N   1      26.577  18.350   2.882  1.00  0.00     0.167 HD
HETATM   22  S   UNK N   1      27.463  19.865   5.837  0.00  0.00    -0.080 SA
HETATM   23  C   UNK N   1      26.085  20.604   5.262  0.00  0.00     0.087 A 
BRANCH  20  24
HETATM   24  C   UNK N   1      28.719  17.758   4.488  0.00  0.00     0.073 A 
HETATM   25  N   UNK N   1      29.112  17.258   3.265  0.00  0.00    -0.357 N 
HETATM   26  C   UNK N   1      30.106  16.338   3.365  0.00  0.00     0.138 A 
ATOM     27  HN  UNK N   1      28.699  17.548   2.379  1.00  0.00     0.166 HD
HETATM   28  S   UNK N   1      30.478  16.162   4.966  0.00  0.00    -0.094 SA
HETATM   29  C   UNK N   1      29.400  17.241   5.603  0.00  0.00     0.083 A 
ENDBRANCH  20  24
ENDBRANCH   1  18
TORSDOF 7
ENDMDL
MODEL 8
REMARK VINA RESULT:      -5.6     10.392     15.103
REMARK  7 active torsions:
REMARK  status: ('A' for Active; 'I' for Inactive)
REMARK       I    between atoms: N_4  and  C_2 
REMARK    1  A    between atoms: C_14  and  C_2 
REMARK    2  A    between atoms: N_4  and  C_5 
REMARK    3  A    between atoms: C_6  and  C_5 
REMARK    4  A    between atoms: C_6  and  C_7 
REMARK    5  A    between atoms: C_8  and  C_7 
REMARK    6  A    between atoms: N_10  and  C_8 
REMARK       I    between atoms: C_9  and  N_10 
REMARK       I    between atoms: N_11  and  C_9 
REMARK    7  A    between atoms: C_17  and  C_24 
ROOT
HETATM    1  C   UNK N   1      22.441  20.508   2.919  0.00  0.00     0.268 C 
HETATM    2  O   UNK N   1      21.789  21.494   2.611  0.00  0.00    -0.266 OA
HETATM    3  N   UNK N   1      23.791  20.626   2.953  0.00  0.00    -0.356 N 
HETATM    4  H   UNK N   1      24.164  21.500   2.697  0.00  0.00     0.162 HD
ENDROOT
BRANCH   3   5
HETATM    5  C   UNK N   1      24.736  19.603   3.328  0.00  0.00     0.123 C 
BRANCH   5   6
HETATM    6  C   UNK N   1      25.455  20.002   4.620  0.00  0.00     0.021 C 
BRANCH   6   7
HETATM    7  C   UNK N   1      26.732  19.202   4.873  0.00  0.00     0.022 C 
BRANCH   7   8
HETATM    8  C   UNK N   1      27.673  19.953   5.786  0.00  0.00     0.138 C 
BRANCH   8   9
HETATM    9  N   UNK N   1      27.358  19.623   7.153  0.00  0.00    -0.227 N 
HETATM   10  C   UNK N   1      28.116  18.665   7.873  0.00  0.00     0.665 C 
HETATM   11  N   UNK N   1      29.135  18.103   7.335  0.00  0.00    -0.235 N 
HETATM   12  N   UNK N   1      27.778  18.366   9.210  0.00  0.00    -0.235 N 
HETATM   13  H   UNK N   1      29.480  17.248   7.685  0.00  0.00     0.174 HD
ATOM     14  HN  UNK N   1      29.595  18.543   6.538  1.00  0.00     0.174 HD
HETATM   15  H   UNK N   1      27.141  18.892   9.746  0.00  0.00     0.174 HD
HETATM   16  H   UNK N   1      28.203  17.585   9.632  0.00  0.00     0.174 HD
HETATM   17  H   UNK N   1      26.600  20.071   7.595  0.00  0.00     0.177 HD
ENDBRANCH   8   9
ENDBRANCH   7   8
ENDBRANCH   6   7
ENDBRANCH   5   6
ENDBRANCH   3   5
BRANCH   1  18
HETATM   18  C   UNK N   1      21.697  19.258   3.221  0.00  0.00     0.108 A 
HETATM   19  N   UNK N   1      21.175  18.520   2.182  0.00  0.00    -0.344 N 
HETATM   20  C   UNK N   1      20.538  17.404   2.595  0.00  0.00     0.102 A 
ATOM     21  HN  UNK N   1      21.260  18.789   1.202  1.00  0.00     0.167 HD
HETATM   22  S   UNK N   1      20.616  17.319   4.241  0.00  0.00    -0.080 SA
HETATM   23  C   UNK N   1      21.476  18.720   4.509  0.00  0.00     0.087 A 
BRANCH  20  24
HETATM   24  C   UNK N   1      19.905  16.453   1.675  0.00  0.00     0.073 A 
HETATM   25  N   UNK N   1      19.255  16.854   0.528  0.00  0.00    -0.357 N 
HETATM   26  C   UNK N   1      18.739  15.814  -0.178  0.00  0.00     0.138 A 
ATOM     27  HN  UNK N   1      19.169  17.828   0.239  1.00  0.00     0.166 HD
HETATM   28  S   UNK N   1      19.100  14.420   0.634  0.00  0.00    -0.094 SA
HETATM   29  C   UNK N   1      19.922  15.069   1.912  0.00  0.00     0.083 A 
ENDBRANCH  20  24
ENDBRANCH   1  18
TORSDOF 7
ENDMDL
MODEL 9
REMARK VINA RESULT:      -5.6      3.655      8.250
REMARK  7 active torsions:
REMARK  status: ('A' for Active; 'I' for Inactive)
REMARK       I    between atoms: N_4  and  C_2 
REMARK    1  A    between atoms: C_14  and  C_2 
REMARK    2  A    between atoms: N_4  and  C_5 
REMARK    3  A    between atoms: C_6  and  C_5 
REMARK    4  A    between atoms: C_6  and  C_7 
REMARK    5  A    between atoms: C_8  and  C_7 
REMARK    6  A    between atoms: N_10  and  C_8 
REMARK       I    between atoms: C_9  and  N_10 
REMARK       I    between atoms: N_11  and  C_9 
REMARK    7  A    between atoms: C_17  and  C_24 
ROOT
HETATM    1  C   UNK N   1      34.593  18.077   8.495  0.00  0.00     0.268 C 
HETATM    2  O   UNK N   1      34.967  19.223   8.301  0.00  0.00    -0.266 OA
HETATM    3  N   UNK N   1      35.007  17.459   9.628  0.00  0.00    -0.356 N 
HETATM    4  H   UNK N   1      35.613  17.969  10.213  0.00  0.00     0.162 HD
ENDROOT
BRANCH   3   5
HETATM    5  C   UNK N   1      34.652  16.132  10.065  0.00  0.00     0.123 C 
BRANCH   5   6
HETATM    6  C   UNK N   1      35.656  15.637  11.110  0.00  0.00     0.021 C 
BRANCH   6   7
HETATM    7  C   UNK N   1      35.050  14.660  12.118  0.00  0.00     0.022 C 
BRANCH   7   8
HETATM    8  C   UNK N   1      35.843  13.375  12.176  0.00  0.00     0.138 C 
BRANCH   8   9
HETATM    9  N   UNK N   1      37.224  13.668  11.884  0.00  0.00    -0.227 N 
HETATM   10  C   UNK N   1      37.907  13.016  10.827  0.00  0.00     0.665 C 
HETATM   11  N   UNK N   1      37.294  12.181  10.070  0.00  0.00    -0.235 N 
HETATM   12  N   UNK N   1      39.259  13.327  10.571  0.00  0.00    -0.235 N 
HETATM   13  H   UNK N   1      37.796  11.515   9.548  0.00  0.00     0.174 HD
ATOM     14  HN  UNK N   1      36.276  12.207  10.009  1.00  0.00     0.174 HD
HETATM   15  H   UNK N   1      39.734  14.089  10.976  0.00  0.00     0.174 HD
HETATM   16  H   UNK N   1      39.759  12.748   9.950  0.00  0.00     0.174 HD
HETATM   17  H   UNK N   1      37.702  14.332  12.432  0.00  0.00     0.177 HD
ENDBRANCH   8   9
ENDBRANCH   7   8
ENDBRANCH   6   7
ENDBRANCH   5   6
ENDBRANCH   3   5
BRANCH   1  18
HETATM   18  C   UNK N   1      33.722  17.452   7.467  0.00  0.00     0.108 A 
HETATM   19  N   UNK N   1      32.357  17.461   7.646  0.00  0.00    -0.344 N 
HETATM   20  C   UNK N   1      31.687  16.873   6.633  0.00  0.00     0.102 A 
ATOM     21  HN  UNK N   1      31.900  17.868   8.462  1.00  0.00     0.167 HD
HETATM   22  S   UNK N   1      32.771  16.342   5.509  0.00  0.00    -0.080 SA
HETATM   23  C   UNK N   1      34.165  16.841   6.272  0.00  0.00     0.087 A 
BRANCH  20  24
HETATM   24  C   UNK N   1      30.225  16.765   6.593  0.00  0.00     0.073 A 
HETATM   25  N   UNK N   1      29.568  15.912   5.732  0.00  0.00    -0.357 N 
HETATM   26  C   UNK N   1      28.217  15.970   5.859  0.00  0.00     0.138 A 
ATOM     27  HN  UNK N   1      30.047  15.302   5.070  1.00  0.00     0.166 HD
HETATM   28  S   UNK N   1      27.863  17.077   7.035  0.00  0.00    -0.094 SA
HETATM   29  C   UNK N   1      29.401  17.531   7.435  0.00  0.00     0.083 A 
ENDBRANCH  20  24
ENDBRANCH   1  18
TORSDOF 7
ENDMDL
