MODEL 1
REMARK VINA RESULT:      -6.9      0.000      0.000
REMARK  8 active torsions:
REMARK  status: ('A' for Active; 'I' for Inactive)
REMARK    1  A    between atoms: O_11  and  C_2 
REMARK    2  A    between atoms: C_6  and  C_7 
REMARK    3  A    between atoms: C_12  and  C_6 
REMARK    4  A    between atoms: C_9  and  C_8 
REMARK    5  A    between atoms: O_14  and  C_13 
REMARK    6  A    between atoms: O_17  and  C_16 
REMARK    7  A    between atoms: C_19  and  C_21 
REMARK    8  A    between atoms: C_21  and  C_22 
ROOT
HETATM    1  C   UNK N   1      30.814  22.001  -3.537  0.00  0.00     0.048 A 
HETATM    2  C   UNK N   1      32.000  21.294  -3.226  0.00  0.00     0.082 A 
HETATM    3  C   UNK N   1      32.643  20.541  -4.201  0.00  0.00     0.074 A 
HETATM    4  C   UNK N   1      32.160  20.450  -5.506  0.00  0.00     0.077 A 
HETATM    5  C   UNK N   1      30.991  21.194  -5.854  0.00  0.00    -0.020 A 
HETATM    6  C   UNK N   1      30.348  21.955  -4.865  0.00  0.00     0.028 A 
ENDROOT
BRANCH   1   7
HETATM    7  C   UNK N   1      30.029  22.811  -2.538  0.00  0.00     0.184 C 
HETATM    8  O   UNK N   1      30.472  22.949  -1.412  0.00  0.00    -0.287 OA
BRANCH   7   9
HETATM    9  C   UNK N   1      28.743  23.485  -2.859  0.00  0.00     0.056 C 
HETATM   10  C   UNK N   1      28.715  24.663  -3.491  0.00  0.00     0.015 C 
BRANCH  10  11
HETATM   11  C   UNK N   1      27.496  25.280  -4.028  0.00  0.00    -0.036 A 
HETATM   12  C   UNK N   1      26.595  24.565  -4.832  0.00  0.00     0.014 A 
HETATM   13  C   UNK N   1      25.513  25.224  -5.426  0.00  0.00     0.037 A 
HETATM   14  C   UNK N   1      25.337  26.599  -5.229  0.00  0.00     0.065 A 
HETATM   15  C   UNK N   1      26.228  27.308  -4.421  0.00  0.00     0.037 A 
HETATM   16  C   UNK N   1      27.305  26.650  -3.825  0.00  0.00     0.014 A 
BRANCH  14  17
HETATM   17  O   UNK N   1      24.317  27.237  -5.823  0.00  0.00    -0.361 OA
HETATM   18  H   UNK N   1      23.445  27.158  -5.490  0.00  0.00     0.217 HD
ENDBRANCH  14  17
ENDBRANCH  10  11
ENDBRANCH   7   9
ENDBRANCH   1   7
BRANCH   2  19
HETATM   19  O   UNK N   1      32.563  21.348  -2.008  0.00  0.00    -0.360 OA
HETATM   20  H   UNK N   1      33.367  20.923  -1.783  0.00  0.00     0.217 HD
ENDBRANCH   2  19
BRANCH   5  21
HETATM   21  C   UNK N   1      30.333  21.161  -7.208  0.00  0.00     0.068 C 
BRANCH  21  22
HETATM   22  C   UNK N   1      28.830  21.104  -7.193  0.00  0.00    -0.020 C 
HETATM   23  C   UNK N   1      28.059  22.132  -7.565  0.00  0.00    -0.091 C 
HETATM   24  C   UNK N   1      26.581  22.025  -7.408  0.00  0.00     0.042 C 
HETATM   25  C   UNK N   1      28.643  23.407  -8.081  0.00  0.00     0.042 C 
ENDBRANCH  21  22
ENDBRANCH   5  21
BRANCH   4  26
HETATM   26  O   UNK N   1      32.854  19.633  -6.342  0.00  0.00    -0.355 OA
HETATM   27  C   UNK N   1      34.114  19.123  -6.150  0.00  0.00     0.210 C 
ENDBRANCH   4  26
TORSDOF 8
ENDMDL
MODEL 2
REMARK VINA RESULT:      -6.7     10.102     12.267
REMARK  8 active torsions:
REMARK  status: ('A' for Active; 'I' for Inactive)
REMARK    1  A    between atoms: O_11  and  C_2 
REMARK    2  A    between atoms: C_6  and  C_7 
REMARK    3  A    between atoms: C_12  and  C_6 
REMARK    4  A    between atoms: C_9  and  C_8 
REMARK    5  A    between atoms: O_14  and  C_13 
REMARK    6  A    between atoms: O_17  and  C_16 
REMARK    7  A    between atoms: C_19  and  C_21 
REMARK    8  A    between atoms: C_21  and  C_22 
ROOT
HETATM    1  C   UNK N   1      27.295  19.170   5.253  0.00  0.00     0.048 A 
HETATM    2  C   UNK N   1      27.125  19.720   6.546  0.00  0.00     0.082 A 
HETATM    3  C   UNK N   1      27.891  19.259   7.609  0.00  0.00     0.074 A 
HETATM    4  C   UNK N   1      28.844  18.252   7.454  0.00  0.00     0.077 A 
HETATM    5  C   UNK N   1      29.066  17.717   6.149  0.00  0.00    -0.020 A 
HETATM    6  C   UNK N   1      28.291  18.190   5.078  0.00  0.00     0.028 A 
ENDROOT
BRANCH   1   7
HETATM    7  C   UNK N   1      26.486  19.580   4.050  0.00  0.00     0.184 C 
HETATM    8  O   UNK N   1      26.990  20.320   3.224  0.00  0.00    -0.287 OA
BRANCH   7   9
HETATM    9  C   UNK N   1      25.100  19.107   3.793  0.00  0.00     0.056 C 
HETATM   10  C   UNK N   1      24.070  19.959   3.752  0.00  0.00     0.015 C 
BRANCH  10  11
HETATM   11  C   UNK N   1      22.722  19.600   3.297  0.00  0.00    -0.036 A 
HETATM   12  C   UNK N   1      21.938  20.480   2.534  0.00  0.00     0.014 A 
HETATM   13  C   UNK N   1      20.614  20.149   2.228  0.00  0.00     0.037 A 
HETATM   14  C   UNK N   1      20.066  18.948   2.694  0.00  0.00     0.065 A 
HETATM   15  C   UNK N   1      20.849  18.068   3.445  0.00  0.00     0.037 A 
HETATM   16  C   UNK N   1      22.172  18.395   3.746  0.00  0.00     0.014 A 
BRANCH  14  17
HETATM   17  O   UNK N   1      18.786  18.645   2.426  0.00  0.00    -0.361 OA
HETATM   18  H   UNK N   1      18.488  17.758   2.462  0.00  0.00     0.217 HD
ENDBRANCH  14  17
ENDBRANCH  10  11
ENDBRANCH   7   9
ENDBRANCH   1   7
BRANCH   2  19
HETATM   19  O   UNK N   1      26.258  20.717   6.788  0.00  0.00    -0.360 OA
HETATM   20  H   UNK N   1      26.391  21.604   6.519  0.00  0.00     0.217 HD
ENDBRANCH   2  19
BRANCH   5  21
HETATM   21  C   UNK N   1      30.029  16.603   5.837  0.00  0.00     0.068 C 
BRANCH  21  22
HETATM   22  C   UNK N   1      31.449  16.837   6.275  0.00  0.00    -0.020 C 
HETATM   23  C   UNK N   1      32.402  17.280   5.447  0.00  0.00    -0.091 C 
HETATM   24  C   UNK N   1      33.805  17.372   5.939  0.00  0.00     0.042 C 
HETATM   25  C   UNK N   1      32.107  17.633   4.025  0.00  0.00     0.042 C 
ENDBRANCH  21  22
ENDBRANCH   5  21
BRANCH   4  26
HETATM   26  O   UNK N   1      29.481  17.856   8.589  0.00  0.00    -0.355 OA
HETATM   27  C   UNK N   1      29.749  18.615   9.701  0.00  0.00     0.210 C 
ENDBRANCH   4  26
TORSDOF 8
ENDMDL
MODEL 3
REMARK VINA RESULT:      -6.7     11.087     13.324
REMARK  8 active torsions:
REMARK  status: ('A' for Active; 'I' for Inactive)
REMARK    1  A    between atoms: O_11  and  C_2 
REMARK    2  A    between atoms: C_6  and  C_7 
REMARK    3  A    between atoms: C_12  and  C_6 
REMARK    4  A    between atoms: C_9  and  C_8 
REMARK    5  A    between atoms: O_14  and  C_13 
REMARK    6  A    between atoms: O_17  and  C_16 
REMARK    7  A    between atoms: C_19  and  C_21 
REMARK    8  A    between atoms: C_21  and  C_22 
ROOT
HETATM    1  C   UNK N   1      31.069  16.744   8.829  0.00  0.00     0.048 A 
HETATM    2  C   UNK N   1      31.700  15.808   9.682  0.00  0.00     0.082 A 
HETATM    3  C   UNK N   1      33.017  15.427   9.453  0.00  0.00     0.074 A 
HETATM    4  C   UNK N   1      33.762  15.941   8.392  0.00  0.00     0.077 A 
HETATM    5  C   UNK N   1      33.160  16.923   7.547  0.00  0.00    -0.020 A 
HETATM    6  C   UNK N   1      31.831  17.305   7.786  0.00  0.00     0.028 A 
ENDROOT
BRANCH   1   7
HETATM    7  C   UNK N   1      29.636  17.187   8.978  0.00  0.00     0.184 C 
HETATM    8  O   UNK N   1      29.137  17.206  10.089  0.00  0.00    -0.287 OA
BRANCH   7   9
HETATM    9  C   UNK N   1      28.795  17.636   7.837  0.00  0.00     0.056 C 
HETATM   10  C   UNK N   1      28.527  18.931   7.639  0.00  0.00     0.015 C 
BRANCH  10  11
HETATM   11  C   UNK N   1      27.891  19.464   6.428  0.00  0.00    -0.036 A 
HETATM   12  C   UNK N   1      26.971  20.523   6.478  0.00  0.00     0.014 A 
HETATM   13  C   UNK N   1      26.295  20.916   5.318  0.00  0.00     0.037 A 
HETATM   14  C   UNK N   1      26.525  20.245   4.112  0.00  0.00     0.065 A 
HETATM   15  C   UNK N   1      27.447  19.198   4.060  0.00  0.00     0.037 A 
HETATM   16  C   UNK N   1      28.126  18.808   5.215  0.00  0.00     0.014 A 
BRANCH  14  17
HETATM   17  O   UNK N   1      25.854  20.603   3.005  0.00  0.00    -0.361 OA
HETATM   18  H   UNK N   1      24.961  20.346   2.884  0.00  0.00     0.217 HD
ENDBRANCH  14  17
ENDBRANCH  10  11
ENDBRANCH   7   9
ENDBRANCH   1   7
BRANCH   2  19
HETATM   19  O   UNK N   1      31.077  15.284  10.751  0.00  0.00    -0.360 OA
HETATM   20  H   UNK N   1      30.301  15.643  11.133  0.00  0.00     0.217 HD
ENDBRANCH   2  19
BRANCH   5  21
HETATM   21  C   UNK N   1      33.827  17.534   6.343  0.00  0.00     0.068 C 
BRANCH  21  22
HETATM   22  C   UNK N   1      33.892  16.653   5.125  0.00  0.00    -0.020 C 
HETATM   23  C   UNK N   1      33.002  16.721   4.130  0.00  0.00    -0.091 C 
HETATM   24  C   UNK N   1      33.079  15.731   3.019  0.00  0.00     0.042 C 
HETATM   25  C   UNK N   1      31.896  17.727   4.129  0.00  0.00     0.042 C 
ENDBRANCH  21  22
ENDBRANCH   5  21
BRANCH   4  26
HETATM   26  O   UNK N   1      35.018  15.439   8.249  0.00  0.00    -0.355 OA
HETATM   27  C   UNK N   1      35.391  14.118   8.246  0.00  0.00     0.210 C 
ENDBRANCH   4  26
TORSDOF 8
ENDMDL
MODEL 4
REMARK VINA RESULT:      -6.6      2.038      4.095
REMARK  8 active torsions:
REMARK  status: ('A' for Active; 'I' for Inactive)
REMARK    1  A    between atoms: O_11  and  C_2 
REMARK    2  A    between atoms: C_6  and  C_7 
REMARK    3  A    between atoms: C_12  and  C_6 
REMARK    4  A    between atoms: C_9  and  C_8 
REMARK    5  A    between atoms: O_14  and  C_13 
REMARK    6  A    between atoms: O_17  and  C_16 
REMARK    7  A    between atoms: C_19  and  C_21 
REMARK    8  A    between atoms: C_21  and  C_22 
ROOT
HETATM    1  C   UNK N   1      28.737  21.547  -7.019  0.00  0.00     0.048 A 
HETATM    2  C   UNK N   1      29.303  20.527  -7.820  0.00  0.00     0.082 A 
HETATM    3  C   UNK N   1      30.519  19.954  -7.468  0.00  0.00     0.074 A 
HETATM    4  C   UNK N   1      31.223  20.350  -6.332  0.00  0.00     0.077 A 
HETATM    5  C   UNK N   1      30.647  21.344  -5.483  0.00  0.00    -0.020 A 
HETATM    6  C   UNK N   1      29.417  21.917  -5.842  0.00  0.00     0.028 A 
ENDROOT
BRANCH   1   7
HETATM    7  C   UNK N   1      27.444  22.252  -7.340  0.00  0.00     0.184 C 
HETATM    8  O   UNK N   1      26.615  21.680  -8.026  0.00  0.00    -0.287 OA
BRANCH   7   9
HETATM    9  C   UNK N   1      27.103  23.609  -6.838  0.00  0.00     0.056 C 
HETATM   10  C   UNK N   1      26.163  23.790  -5.905  0.00  0.00     0.015 C 
BRANCH  10  11
HETATM   11  C   UNK N   1      25.924  25.061  -5.212  0.00  0.00    -0.036 A 
HETATM   12  C   UNK N   1      25.230  26.119  -5.821  0.00  0.00     0.014 A 
HETATM   13  C   UNK N   1      25.135  27.355  -5.174  0.00  0.00     0.037 A 
HETATM   14  C   UNK N   1      25.741  27.542  -3.927  0.00  0.00     0.065 A 
HETATM   15  C   UNK N   1      26.423  26.487  -3.317  0.00  0.00     0.037 A 
HETATM   16  C   UNK N   1      26.515  25.252  -3.959  0.00  0.00     0.014 A 
BRANCH  14  17
HETATM   17  O   UNK N   1      25.675  28.738  -3.320  0.00  0.00    -0.361 OA
HETATM   18  H   UNK N   1      26.399  29.332  -3.354  0.00  0.00     0.217 HD
ENDBRANCH  14  17
ENDBRANCH  10  11
ENDBRANCH   7   9
ENDBRANCH   1   7
BRANCH   2  19
HETATM   19  O   UNK N   1      28.683  20.053  -8.914  0.00  0.00    -0.360 OA
HETATM   20  H   UNK N   1      27.983  19.432  -8.891  0.00  0.00     0.217 HD
ENDBRANCH   2  19
BRANCH   5  21
HETATM   21  C   UNK N   1      31.309  21.897  -4.249  0.00  0.00     0.068 C 
BRANCH  21  22
HETATM   22  C   UNK N   1      31.365  23.398  -4.165  0.00  0.00    -0.020 C 
HETATM   23  C   UNK N   1      30.539  24.115  -3.395  0.00  0.00    -0.091 C 
HETATM   24  C   UNK N   1      30.591  25.602  -3.463  0.00  0.00     0.042 C 
HETATM   25  C   UNK N   1      29.525  23.465  -2.510  0.00  0.00     0.042 C 
ENDBRANCH  21  22
ENDBRANCH   5  21
BRANCH   4  26
HETATM   26  O   UNK N   1      32.427  19.748  -6.138  0.00  0.00    -0.355 OA
HETATM   27  C   UNK N   1      33.543  19.844  -6.932  0.00  0.00     0.210 C 
ENDBRANCH   4  26
TORSDOF 8
ENDMDL
MODEL 5
REMARK VINA RESULT:      -6.6     12.689     16.374
REMARK  8 active torsions:
REMARK  status: ('A' for Active; 'I' for Inactive)
REMARK    1  A    between atoms: O_11  and  C_2 
REMARK    2  A    between atoms: C_6  and  C_7 
REMARK    3  A    between atoms: C_12  and  C_6 
REMARK    4  A    between atoms: C_9  and  C_8 
REMARK    5  A    between atoms: O_14  and  C_13 
REMARK    6  A    between atoms: O_17  and  C_16 
REMARK    7  A    between atoms: C_19  and  C_21 
REMARK    8  A    between atoms: C_21  and  C_22 
ROOT
HETATM    1  C   UNK N   1      33.123  17.697   7.498  0.00  0.00     0.048 A 
HETATM    2  C   UNK N   1      31.805  17.547   7.992  0.00  0.00     0.082 A 
HETATM    3  C   UNK N   1      30.754  17.299   7.119  0.00  0.00     0.074 A 
HETATM    4  C   UNK N   1      30.945  17.187   5.742  0.00  0.00     0.077 A 
HETATM    5  C   UNK N   1      32.274  17.286   5.227  0.00  0.00    -0.020 A 
HETATM    6  C   UNK N   1      33.332  17.534   6.115  0.00  0.00     0.028 A 
ENDROOT
BRANCH   1   7
HETATM    7  C   UNK N   1      34.318  18.004   8.364  0.00  0.00     0.184 C 
HETATM    8  O   UNK N   1      34.922  19.047   8.187  0.00  0.00    -0.287 OA
BRANCH   7   9
HETATM    9  C   UNK N   1      34.791  17.111   9.455  0.00  0.00     0.056 C 
HETATM   10  C   UNK N   1      34.798  15.782   9.311  0.00  0.00     0.015 C 
BRANCH  10  11
HETATM   11  C   UNK N   1      35.444  14.856  10.249  0.00  0.00    -0.036 A 
HETATM   12  C   UNK N   1      34.919  14.608  11.527  0.00  0.00     0.014 A 
HETATM   13  C   UNK N   1      35.633  13.818  12.434  0.00  0.00     0.037 A 
HETATM   14  C   UNK N   1      36.875  13.284  12.072  0.00  0.00     0.065 A 
HETATM   15  C   UNK N   1      37.393  13.522  10.797  0.00  0.00     0.037 A 
HETATM   16  C   UNK N   1      36.679  14.307   9.890  0.00  0.00     0.014 A 
BRANCH  14  17
HETATM   17  O   UNK N   1      37.574  12.551  12.952  0.00  0.00    -0.361 OA
HETATM   18  H   UNK N   1      38.322  12.910  13.386  0.00  0.00     0.217 HD
ENDBRANCH  14  17
ENDBRANCH  10  11
ENDBRANCH   7   9
ENDBRANCH   1   7
BRANCH   2  19
HETATM   19  O   UNK N   1      31.525  17.603   9.305  0.00  0.00    -0.360 OA
HETATM   20  H   UNK N   1      32.162  17.778   9.970  0.00  0.00     0.217 HD
ENDBRANCH   2  19
BRANCH   5  21
HETATM   21  C   UNK N   1      32.627  17.226   3.765  0.00  0.00     0.068 C 
BRANCH  21  22
HETATM   22  C   UNK N   1      33.466  16.048   3.351  0.00  0.00    -0.020 C 
HETATM   23  C   UNK N   1      32.945  14.852   3.054  0.00  0.00    -0.091 C 
HETATM   24  C   UNK N   1      33.860  13.713   2.767  0.00  0.00     0.042 C 
HETATM   25  C   UNK N   1      31.469  14.614   3.058  0.00  0.00     0.042 C 
ENDBRANCH  21  22
ENDBRANCH   5  21
BRANCH   4  26
HETATM   26  O   UNK N   1      29.822  17.001   4.998  0.00  0.00    -0.355 OA
HETATM   27  C   UNK N   1      28.822  17.911   4.759  0.00  0.00     0.210 C 
ENDBRANCH   4  26
TORSDOF 8
ENDMDL
MODEL 6
REMARK VINA RESULT:      -6.5     12.983     16.629
REMARK  8 active torsions:
REMARK  status: ('A' for Active; 'I' for Inactive)
REMARK    1  A    between atoms: O_11  and  C_2 
REMARK    2  A    between atoms: C_6  and  C_7 
REMARK    3  A    between atoms: C_12  and  C_6 
REMARK    4  A    between atoms: C_9  and  C_8 
REMARK    5  A    between atoms: O_14  and  C_13 
REMARK    6  A    between atoms: O_17  and  C_16 
REMARK    7  A    between atoms: C_19  and  C_21 
REMARK    8  A    between atoms: C_21  and  C_22 
ROOT
HETATM    1  C   UNK N   1      33.214  17.527   7.530  0.00  0.00     0.048 A 
HETATM    2  C   UNK N   1      33.408  17.047   6.214  0.00  0.00     0.082 A 
HETATM    3  C   UNK N   1      32.317  16.686   5.432  0.00  0.00     0.074 A 
HETATM    4  C   UNK N   1      31.007  16.779   5.900  0.00  0.00     0.077 A 
HETATM    5  C   UNK N   1      30.785  17.307   7.209  0.00  0.00    -0.020 A 
HETATM    6  C   UNK N   1      31.891  17.673   7.992  0.00  0.00     0.028 A 
ENDROOT
BRANCH   1   7
HETATM    7  C   UNK N   1      34.335  17.907   8.463  0.00  0.00     0.184 C 
HETATM    8  O   UNK N   1      34.889  18.982   8.313  0.00  0.00    -0.287 OA
BRANCH   7   9
HETATM    9  C   UNK N   1      34.793  17.049   9.587  0.00  0.00     0.056 C 
HETATM   10  C   UNK N   1      34.831  15.717   9.474  0.00  0.00     0.015 C 
BRANCH  10  11
HETATM   11  C   UNK N   1      35.466  14.826  10.452  0.00  0.00    -0.036 A 
HETATM   12  C   UNK N   1      35.433  15.092  11.829  0.00  0.00     0.014 A 
HETATM   13  C   UNK N   1      36.158  14.286  12.714  0.00  0.00     0.037 A 
HETATM   14  C   UNK N   1      36.926  13.223  12.225  0.00  0.00     0.065 A 
HETATM   15  C   UNK N   1      36.951  12.953  10.855  0.00  0.00     0.037 A 
HETATM   16  C   UNK N   1      36.225  13.754   9.972  0.00  0.00     0.014 A 
BRANCH  14  17
HETATM   17  O   UNK N   1      37.645  12.469  13.070  0.00  0.00    -0.361 OA
HETATM   18  H   UNK N   1      37.781  11.558  12.900  0.00  0.00     0.217 HD
ENDBRANCH  14  17
ENDBRANCH  10  11
ENDBRANCH   7   9
ENDBRANCH   1   7
BRANCH   2  19
HETATM   19  O   UNK N   1      34.629  16.955   5.661  0.00  0.00    -0.360 OA
HETATM   20  H   UNK N   1      35.363  16.548   6.077  0.00  0.00     0.217 HD
ENDBRANCH   2  19
BRANCH   5  21
HETATM   21  C   UNK N   1      29.434  17.428   7.861  0.00  0.00     0.068 C 
BRANCH  21  22
HETATM   22  C   UNK N   1      28.782  18.780   7.749  0.00  0.00    -0.020 C 
HETATM   23  C   UNK N   1      27.844  19.063   6.840  0.00  0.00    -0.091 C 
HETATM   24  C   UNK N   1      27.339  20.459   6.728  0.00  0.00     0.042 C 
HETATM   25  C   UNK N   1      27.328  18.027   5.893  0.00  0.00     0.042 C 
ENDBRANCH  21  22
ENDBRANCH   5  21
BRANCH   4  26
HETATM   26  O   UNK N   1      30.039  16.337   5.052  0.00  0.00    -0.355 OA
HETATM   27  C   UNK N   1      29.984  16.509   3.692  0.00  0.00     0.210 C 
ENDBRANCH   4  26
TORSDOF 8
ENDMDL
MODEL 7
REMARK VINA RESULT:      -6.4     16.938     19.936
REMARK  8 active torsions:
REMARK  status: ('A' for Active; 'I' for Inactive)
REMARK    1  A    between atoms: O_11  and  C_2 
REMARK    2  A    between atoms: C_6  and  C_7 
REMARK    3  A    between atoms: C_12  and  C_6 
REMARK    4  A    between atoms: C_9  and  C_8 
REMARK    5  A    between atoms: O_14  and  C_13 
REMARK    6  A    between atoms: O_17  and  C_16 
REMARK    7  A    between atoms: C_19  and  C_21 
REMARK    8  A    between atoms: C_21  and  C_22 
ROOT
HETATM    1  C   UNK N   1      36.226  14.193  11.579  0.00  0.00     0.048 A 
HETATM    2  C   UNK N   1      37.374  13.410  11.315  0.00  0.00     0.082 A 
HETATM    3  C   UNK N   1      37.616  12.253  12.046  0.00  0.00     0.074 A 
HETATM    4  C   UNK N   1      36.755  11.819  13.053  0.00  0.00     0.077 A 
HETATM    5  C   UNK N   1      35.565  12.568  13.303  0.00  0.00    -0.020 A 
HETATM    6  C   UNK N   1      35.325  13.734  12.559  0.00  0.00     0.028 A 
ENDROOT
BRANCH   1   7
HETATM    7  C   UNK N   1      35.901  15.479  10.864  0.00  0.00     0.184 C 
HETATM    8  O   UNK N   1      36.692  16.404  10.924  0.00  0.00    -0.287 OA
BRANCH   7   9
HETATM    9  C   UNK N   1      34.669  15.679  10.056  0.00  0.00     0.056 C 
HETATM   10  C   UNK N   1      34.520  16.750   9.269  0.00  0.00     0.015 C 
BRANCH  10  11
HETATM   11  C   UNK N   1      33.439  16.907   8.288  0.00  0.00    -0.036 A 
HETATM   12  C   UNK N   1      32.125  16.499   8.562  0.00  0.00     0.014 A 
HETATM   13  C   UNK N   1      31.154  16.551   7.556  0.00  0.00     0.037 A 
HETATM   14  C   UNK N   1      31.496  16.996   6.274  0.00  0.00     0.065 A 
HETATM   15  C   UNK N   1      32.802  17.411   6.004  0.00  0.00     0.037 A 
HETATM   16  C   UNK N   1      33.770  17.364   7.009  0.00  0.00     0.014 A 
BRANCH  14  17
HETATM   17  O   UNK N   1      30.571  17.017   5.301  0.00  0.00    -0.361 OA
HETATM   18  H   UNK N   1      30.827  17.034   4.400  0.00  0.00     0.217 HD
ENDBRANCH  14  17
ENDBRANCH  10  11
ENDBRANCH   7   9
ENDBRANCH   1   7
BRANCH   2  19
HETATM   19  O   UNK N   1      38.245  13.725  10.341  0.00  0.00    -0.360 OA
HETATM   20  H   UNK N   1      39.110  14.049  10.496  0.00  0.00     0.217 HD
ENDBRANCH   2  19
BRANCH   5  21
HETATM   21  C   UNK N   1      34.566  12.245  14.382  0.00  0.00     0.068 C 
BRANCH  21  22
HETATM   22  C   UNK N   1      34.713  13.033  15.655  0.00  0.00    -0.020 C 
HETATM   23  C   UNK N   1      35.136  12.489  16.802  0.00  0.00    -0.091 C 
HETATM   24  C   UNK N   1      35.141  13.319  18.039  0.00  0.00     0.042 C 
HETATM   25  C   UNK N   1      35.551  11.056  16.888  0.00  0.00     0.042 C 
ENDBRANCH  21  22
ENDBRANCH   5  21
BRANCH   4  26
HETATM   26  O   UNK N   1      37.142  10.704  13.728  0.00  0.00    -0.355 OA
HETATM   27  C   UNK N   1      38.291  10.530  14.458  0.00  0.00     0.210 C 
ENDBRANCH   4  26
TORSDOF 8
ENDMDL
MODEL 8
REMARK VINA RESULT:      -6.4     15.581     18.595
REMARK  8 active torsions:
REMARK  status: ('A' for Active; 'I' for Inactive)
REMARK    1  A    between atoms: O_11  and  C_2 
REMARK    2  A    between atoms: C_6  and  C_7 
REMARK    3  A    between atoms: C_12  and  C_6 
REMARK    4  A    between atoms: C_9  and  C_8 
REMARK    5  A    between atoms: O_14  and  C_13 
REMARK    6  A    between atoms: O_17  and  C_16 
REMARK    7  A    between atoms: C_19  and  C_21 
REMARK    8  A    between atoms: C_21  and  C_22 
ROOT
HETATM    1  C   UNK N   1      35.832  15.258  10.576  0.00  0.00     0.048 A 
HETATM    2  C   UNK N   1      36.638  14.358   9.841  0.00  0.00     0.082 A 
HETATM    3  C   UNK N   1      37.212  13.259  10.468  0.00  0.00     0.074 A 
HETATM    4  C   UNK N   1      37.022  12.998  11.825  0.00  0.00     0.077 A 
HETATM    5  C   UNK N   1      36.173  13.867  12.576  0.00  0.00    -0.020 A 
HETATM    6  C   UNK N   1      35.594  14.974  11.935  0.00  0.00     0.028 A 
ENDROOT
BRANCH   1   7
HETATM    7  C   UNK N   1      35.200  16.495   9.991  0.00  0.00     0.184 C 
HETATM    8  O   UNK N   1      35.611  17.588  10.338  0.00  0.00    -0.287 OA
BRANCH   7   9
HETATM    9  C   UNK N   1      34.110  16.459   8.980  0.00  0.00     0.056 C 
HETATM   10  C   UNK N   1      34.030  17.377   8.011  0.00  0.00     0.015 C 
BRANCH  10  11
HETATM   11  C   UNK N   1      33.121  17.285   6.863  0.00  0.00    -0.036 A 
HETATM   12  C   UNK N   1      33.569  17.471   5.545  0.00  0.00     0.014 A 
HETATM   13  C   UNK N   1      32.648  17.500   4.492  0.00  0.00     0.037 A 
HETATM   14  C   UNK N   1      31.281  17.356   4.753  0.00  0.00     0.065 A 
HETATM   15  C   UNK N   1      30.836  17.162   6.063  0.00  0.00     0.037 A 
HETATM   16  C   UNK N   1      31.754  17.128   7.113  0.00  0.00     0.014 A 
BRANCH  14  17
HETATM   17  O   UNK N   1      30.395  17.414   3.747  0.00  0.00    -0.361 OA
HETATM   18  H   UNK N   1      30.459  18.081   3.091  0.00  0.00     0.217 HD
ENDBRANCH  14  17
ENDBRANCH  10  11
ENDBRANCH   7   9
ENDBRANCH   1   7
BRANCH   2  19
HETATM   19  O   UNK N   1      36.850  14.504   8.522  0.00  0.00    -0.360 OA
HETATM   20  H   UNK N   1      36.743  13.816   7.895  0.00  0.00     0.217 HD
ENDBRANCH   2  19
BRANCH   5  21
HETATM   21  C   UNK N   1      35.909  13.734  14.052  0.00  0.00     0.068 C 
BRANCH  21  22
HETATM   22  C   UNK N   1      34.911  12.676  14.436  0.00  0.00    -0.020 C 
HETATM   23  C   UNK N   1      35.237  11.592  15.148  0.00  0.00    -0.091 C 
HETATM   24  C   UNK N   1      34.207  10.541  15.383  0.00  0.00     0.042 C 
HETATM   25  C   UNK N   1      36.622  11.379  15.668  0.00  0.00     0.042 C 
ENDBRANCH  21  22
ENDBRANCH   5  21
BRANCH   4  26
HETATM   26  O   UNK N   1      37.689  11.921  12.323  0.00  0.00    -0.355 OA
HETATM   27  C   UNK N   1      37.417  10.596  12.093  0.00  0.00     0.210 C 
ENDBRANCH   4  26
TORSDOF 8
ENDMDL
MODEL 9
REMARK VINA RESULT:      -6.3     13.956     15.764
REMARK  8 active torsions:
REMARK  status: ('A' for Active; 'I' for Inactive)
REMARK    1  A    between atoms: O_11  and  C_2 
REMARK    2  A    between atoms: C_6  and  C_7 
REMARK    3  A    between atoms: C_12  and  C_6 
REMARK    4  A    between atoms: C_9  and  C_8 
REMARK    5  A    between atoms: O_14  and  C_13 
REMARK    6  A    between atoms: O_17  and  C_16 
REMARK    7  A    between atoms: C_19  and  C_21 
REMARK    8  A    between atoms: C_21  and  C_22 
ROOT
HETATM    1  C   UNK N   1      21.199  14.792   7.730  0.00  0.00     0.048 A 
HETATM    2  C   UNK N   1      20.733  14.288   8.967  0.00  0.00     0.082 A 
HETATM    3  C   UNK N   1      21.577  13.544   9.783  0.00  0.00     0.074 A 
HETATM    4  C   UNK N   1      22.896  13.266   9.426  0.00  0.00     0.077 A 
HETATM    5  C   UNK N   1      23.402  13.806   8.204  0.00  0.00    -0.020 A 
HETATM    6  C   UNK N   1      22.544  14.559   7.386  0.00  0.00     0.028 A 
ENDROOT
BRANCH   1   7
HETATM    7  C   UNK N   1      20.346  15.575   6.764  0.00  0.00     0.184 C 
HETATM    8  O   UNK N   1      19.136  15.563   6.902  0.00  0.00    -0.287 OA
BRANCH   7   9
HETATM    9  C   UNK N   1      20.905  16.395   5.657  0.00  0.00     0.056 C 
HETATM   10  C   UNK N   1      21.477  17.581   5.890  0.00  0.00     0.015 C 
BRANCH  10  11
HETATM   11  C   UNK N   1      22.234  18.341   4.889  0.00  0.00    -0.036 A 
HETATM   12  C   UNK N   1      23.637  18.376   4.890  0.00  0.00     0.014 A 
HETATM   13  C   UNK N   1      24.315  19.213   3.997  0.00  0.00     0.037 A 
HETATM   14  C   UNK N   1      23.595  20.024   3.112  0.00  0.00     0.065 A 
HETATM   15  C   UNK N   1      22.199  19.981   3.104  0.00  0.00     0.037 A 
HETATM   16  C   UNK N   1      21.522  19.143   3.992  0.00  0.00     0.014 A 
BRANCH  14  17
HETATM   17  O   UNK N   1      24.245  20.848   2.276  0.00  0.00    -0.361 OA
HETATM   18  H   UNK N   1      24.777  20.507   1.584  0.00  0.00     0.217 HD
ENDBRANCH  14  17
ENDBRANCH  10  11
ENDBRANCH   7   9
ENDBRANCH   1   7
BRANCH   2  19
HETATM   19  O   UNK N   1      19.490  14.532   9.415  0.00  0.00    -0.360 OA
HETATM   20  H   UNK N   1      19.289  15.147  10.093  0.00  0.00     0.217 HD
ENDBRANCH   2  19
BRANCH   5  21
HETATM   21  C   UNK N   1      24.787  13.557   7.672  0.00  0.00     0.068 C 
BRANCH  21  22
HETATM   22  C   UNK N   1      25.618  14.789   7.432  0.00  0.00    -0.020 C 
HETATM   23  C   UNK N   1      25.860  15.276   6.210  0.00  0.00    -0.091 C 
HETATM   24  C   UNK N   1      26.787  16.432   6.061  0.00  0.00     0.042 C 
HETATM   25  C   UNK N   1      25.270  14.656   4.984  0.00  0.00     0.042 C 
ENDBRANCH  21  22
ENDBRANCH   5  21
BRANCH   4  26
HETATM   26  O   UNK N   1      23.593  12.479  10.290  0.00  0.00    -0.355 OA
HETATM   27  C   UNK N   1      23.134  11.911  11.452  0.00  0.00     0.210 C 
ENDBRANCH   4  26
TORSDOF 8
ENDMDL
