MODEL 1
REMARK VINA RESULT:      -7.0      0.000      0.000
REMARK  9 active torsions:
REMARK  status: ('A' for Active; 'I' for Inactive)
REMARK    1  A    between atoms: C_1  and  O_22 
REMARK    2  A    between atoms: C_1  and  C_26 
REMARK       I    between atoms: C_5  and  N_24 
REMARK    3  A    between atoms: C_6  and  N_23 
REMARK    4  A    between atoms: C_13  and  N_23 
REMARK    5  A    between atoms: C_18  and  N_24 
REMARK    6  A    between atoms: C_19  and  O_22 
REMARK    7  A    between atoms: C_26  and  C_27 
REMARK    8  A    between atoms: C_26  and  O_31 
REMARK    9  A    between atoms: C_27  and  N_28 
ROOT
HETATM    1  N   UNK N   1      36.896  14.634  14.382  0.00  0.00    -0.200 N 
ATOM      2  HN  UNK N   1      37.567  15.386  14.543  1.00  0.00     0.183 HD
HETATM    3  C   UNK N   1      36.624  13.746  15.379  0.00  0.00     0.129 A 
HETATM    4  C   UNK N   1      36.283  14.524  13.174  0.00  0.00     0.684 A 
HETATM    5  C   UNK N   1      35.112  12.586  13.904  0.00  0.00     0.140 A 
HETATM    6  C   UNK N   1      35.718  12.696  15.173  0.00  0.00     0.071 A 
HETATM    7  N   UNK N   1      35.408  13.510  12.969  0.00  0.00    -0.175 N 
ATOM      8  HN  UNK N   1      34.950  13.441  12.060  1.00  0.00     0.186 HD
HETATM    9  N   UNK N   1      36.540  15.476  12.141  0.00  0.00    -0.192 N 
HETATM   10 Br   UNK N   1      35.290  11.571  16.662  0.00  0.00    -0.046 Br
HETATM   11  H   UNK N   1      37.164  16.213  12.334  0.00  0.00     0.184 HD
ENDROOT
BRANCH   9  12
HETATM   12  C   UNK N   1      35.942  15.416  10.842  0.00  0.00     0.049 A 
HETATM   13  C   UNK N   1      36.472  14.571   9.855  0.00  0.00     0.033 A 
HETATM   14  C   UNK N   1      35.851  14.482   8.594  0.00  0.00     0.039 A 
HETATM   15  C   UNK N   1      34.700  15.237   8.318  0.00  0.00     0.069 A 
HETATM   16  C   UNK N   1      34.203  16.101   9.298  0.00  0.00     0.039 A 
HETATM   17  C   UNK N   1      34.812  16.182  10.536  0.00  0.00     0.033 A 
BRANCH  15  18
HETATM   18  O   UNK N   1      34.061  15.104   7.127  0.00  0.00    -0.349 OA
BRANCH  18  19
HETATM   19  C   UNK N   1      34.580  15.601   5.939  0.00  0.00     0.209 C 
BRANCH  19  20
HETATM   20  C   UNK N   1      33.869  16.895   5.515  0.00  0.00     0.170 C 
BRANCH  20  21
HETATM   21  C   UNK N   1      32.346  16.751   5.571  0.00  0.00     0.305 C 
BRANCH  21  22
HETATM   22  N   UNK N   1      31.651  17.554   4.572  0.00  0.00     0.082 N 
HETATM   23  C   UNK N   1      31.972  16.968   3.283  0.00  0.00     0.309 C 
HETATM   24  C   UNK N   1      30.218  17.401   4.750  0.00  0.00     0.309 C 
ENDBRANCH  21  22
ENDBRANCH  20  21
BRANCH  20  25
HETATM   25  O   UNK N   1      34.297  17.964   6.304  0.00  0.00    -0.392 OA
HETATM   26  H   UNK N   1      35.113  18.209   6.769  0.00  0.00     0.210 HD
ENDBRANCH  20  25
ENDBRANCH  19  20
ENDBRANCH  18  19
ENDBRANCH  15  18
ENDBRANCH   9  12
BRANCH   5  27
HETATM   27  N   UNK N   1      34.135  11.608  13.566  0.00  0.00    -0.341 N 
HETATM   28  H   UNK N   1      33.214  11.810  13.847  0.00  0.00     0.167 HD
BRANCH  27  29
HETATM   29  C   UNK N   1      34.313  10.381  12.877  0.00  0.00     0.033 A 
HETATM   30  C   UNK N   1      35.127   9.404  13.463  0.00  0.00     0.029 A 
HETATM   31  C   UNK N   1      35.291   8.157  12.856  0.00  0.00     0.002 A 
HETATM   32  C   UNK N   1      34.635   7.877  11.655  0.00  0.00     0.000 A 
HETATM   33  C   UNK N   1      33.805   8.839  11.071  0.00  0.00     0.002 A 
HETATM   34  C   UNK N   1      33.632  10.084  11.687  0.00  0.00     0.029 A 
ENDBRANCH  27  29
ENDBRANCH   5  27
TORSDOF 9
ENDMDL
MODEL 2
REMARK VINA RESULT:      -6.8     17.746     21.256
REMARK  9 active torsions:
REMARK  status: ('A' for Active; 'I' for Inactive)
REMARK    1  A    between atoms: C_1  and  O_22 
REMARK    2  A    between atoms: C_1  and  C_26 
REMARK       I    between atoms: C_5  and  N_24 
REMARK    3  A    between atoms: C_6  and  N_23 
REMARK    4  A    between atoms: C_13  and  N_23 
REMARK    5  A    between atoms: C_18  and  N_24 
REMARK    6  A    between atoms: C_19  and  O_22 
REMARK    7  A    between atoms: C_26  and  C_27 
REMARK    8  A    between atoms: C_26  and  O_31 
REMARK    9  A    between atoms: C_27  and  N_28 
ROOT
HETATM    1  N   UNK N   1      25.859  22.163  -7.440  0.00  0.00    -0.200 N 
ATOM      2  HN  UNK N   1      24.878  22.020  -7.681  1.00  0.00     0.183 HD
HETATM    3  C   UNK N   1      26.801  21.291  -7.896  0.00  0.00     0.129 A 
HETATM    4  C   UNK N   1      26.216  23.221  -6.666  0.00  0.00     0.684 A 
HETATM    5  C   UNK N   1      28.498  22.551  -6.738  0.00  0.00     0.140 A 
HETATM    6  C   UNK N   1      28.152  21.460  -7.564  0.00  0.00     0.071 A 
HETATM    7  N   UNK N   1      27.521  23.389  -6.340  0.00  0.00    -0.175 N 
ATOM      8  HN  UNK N   1      27.776  24.190  -5.762  1.00  0.00     0.186 HD
HETATM    9  N   UNK N   1      25.234  24.156  -6.219  0.00  0.00    -0.192 N 
HETATM   10 Br   UNK N   1      29.429  20.271  -8.350  0.00  0.00    -0.046 Br
HETATM   11  H   UNK N   1      24.299  24.016  -6.494  0.00  0.00     0.184 HD
ENDROOT
BRANCH   9  12
HETATM   12  C   UNK N   1      25.533  25.285  -5.391  0.00  0.00     0.049 A 
HETATM   13  C   UNK N   1      25.116  26.572  -5.766  0.00  0.00     0.033 A 
HETATM   14  C   UNK N   1      25.373  27.670  -4.924  0.00  0.00     0.039 A 
HETATM   15  C   UNK N   1      26.046  27.486  -3.706  0.00  0.00     0.069 A 
HETATM   16  C   UNK N   1      26.487  26.205  -3.360  0.00  0.00     0.039 A 
HETATM   17  C   UNK N   1      26.228  25.128  -4.186  0.00  0.00     0.033 A 
BRANCH  15  18
HETATM   18  O   UNK N   1      26.237  28.533  -2.861  0.00  0.00    -0.349 OA
BRANCH  18  19
HETATM   19  C   UNK N   1      27.412  29.273  -2.839  0.00  0.00     0.209 C 
BRANCH  19  20
HETATM   20  C   UNK N   1      27.205  30.670  -3.445  0.00  0.00     0.170 C 
BRANCH  20  21
HETATM   21  C   UNK N   1      27.877  30.801  -4.814  0.00  0.00     0.305 C 
BRANCH  21  22
HETATM   22  N   UNK N   1      28.671  29.635  -5.184  0.00  0.00     0.082 N 
HETATM   23  C   UNK N   1      28.260  29.273  -6.528  0.00  0.00     0.309 C 
HETATM   24  C   UNK N   1      30.069  30.019  -5.269  0.00  0.00     0.309 C 
ENDBRANCH  21  22
ENDBRANCH  20  21
BRANCH  20  25
HETATM   25  O   UNK N   1      25.844  30.965  -3.528  0.00  0.00    -0.392 OA
HETATM   26  H   UNK N   1      25.059  30.548  -3.916  0.00  0.00     0.210 HD
ENDBRANCH  20  25
ENDBRANCH  19  20
ENDBRANCH  18  19
ENDBRANCH  15  18
ENDBRANCH   9  12
BRANCH   5  27
HETATM   27  N   UNK N   1      29.830  22.881  -6.362  0.00  0.00    -0.341 N 
HETATM   28  H   UNK N   1      30.323  23.451  -6.996  0.00  0.00     0.167 HD
BRANCH  27  29
HETATM   29  C   UNK N   1      30.542  22.498  -5.198  0.00  0.00     0.033 A 
HETATM   30  C   UNK N   1      30.209  23.114  -3.985  0.00  0.00     0.029 A 
HETATM   31  C   UNK N   1      30.839  22.734  -2.798  0.00  0.00     0.002 A 
HETATM   32  C   UNK N   1      31.807  21.729  -2.816  0.00  0.00     0.000 A 
HETATM   33  C   UNK N   1      32.134  21.094  -4.018  0.00  0.00     0.002 A 
HETATM   34  C   UNK N   1      31.493  21.467  -5.205  0.00  0.00     0.029 A 
ENDBRANCH  27  29
ENDBRANCH   5  27
TORSDOF 9
ENDMDL
MODEL 3
REMARK VINA RESULT:      -6.7      4.024      9.728
REMARK  9 active torsions:
REMARK  status: ('A' for Active; 'I' for Inactive)
REMARK    1  A    between atoms: C_1  and  O_22 
REMARK    2  A    between atoms: C_1  and  C_26 
REMARK       I    between atoms: C_5  and  N_24 
REMARK    3  A    between atoms: C_6  and  N_23 
REMARK    4  A    between atoms: C_13  and  N_23 
REMARK    5  A    between atoms: C_18  and  N_24 
REMARK    6  A    between atoms: C_19  and  O_22 
REMARK    7  A    between atoms: C_26  and  C_27 
REMARK    8  A    between atoms: C_26  and  O_31 
REMARK    9  A    between atoms: C_27  and  N_28 
ROOT
HETATM    1  N   UNK N   1      28.256  18.633   7.464  0.00  0.00    -0.200 N 
ATOM      2  HN  UNK N   1      27.958  18.916   8.398  1.00  0.00     0.183 HD
HETATM    3  C   UNK N   1      27.439  18.856   6.398  0.00  0.00     0.129 A 
HETATM    4  C   UNK N   1      29.464  18.034   7.294  0.00  0.00     0.684 A 
HETATM    5  C   UNK N   1      29.070  17.818   4.958  0.00  0.00     0.140 A 
HETATM    6  C   UNK N   1      27.822  18.461   5.108  0.00  0.00     0.071 A 
HETATM    7  N   UNK N   1      29.840  17.648   6.050  0.00  0.00    -0.175 N 
ATOM      8  HN  UNK N   1      30.751  17.204   5.935  1.00  0.00     0.186 HD
HETATM    9  N   UNK N   1      30.337  17.833   8.406  0.00  0.00    -0.192 N 
HETATM   10 Br   UNK N   1      26.679  18.928   3.645  0.00  0.00    -0.046 Br
HETATM   11  H   UNK N   1      30.042  18.147   9.292  0.00  0.00     0.184 HD
ENDROOT
BRANCH   9  12
HETATM   12  C   UNK N   1      31.616  17.199   8.305  0.00  0.00     0.049 A 
HETATM   13  C   UNK N   1      32.767  17.959   8.044  0.00  0.00     0.033 A 
HETATM   14  C   UNK N   1      34.028  17.335   7.993  0.00  0.00     0.039 A 
HETATM   15  C   UNK N   1      34.142  15.952   8.204  0.00  0.00     0.069 A 
HETATM   16  C   UNK N   1      32.985  15.201   8.429  0.00  0.00     0.039 A 
HETATM   17  C   UNK N   1      31.749  15.817   8.484  0.00  0.00     0.033 A 
BRANCH  15  18
HETATM   18  O   UNK N   1      35.364  15.358   8.220  0.00  0.00    -0.349 OA
BRANCH  18  19
HETATM   19  C   UNK N   1      35.839  14.653   9.319  0.00  0.00     0.209 C 
BRANCH  19  20
HETATM   20  C   UNK N   1      35.887  15.538  10.573  0.00  0.00     0.170 C 
BRANCH  20  21
HETATM   21  C   UNK N   1      35.365  14.801  11.809  0.00  0.00     0.305 C 
BRANCH  21  22
HETATM   22  N   UNK N   1      36.377  13.983  12.467  0.00  0.00     0.082 N 
HETATM   23  C   UNK N   1      36.358  14.362  13.868  0.00  0.00     0.309 C 
HETATM   24  C   UNK N   1      35.975  12.589  12.410  0.00  0.00     0.309 C 
ENDBRANCH  21  22
ENDBRANCH  20  21
BRANCH  20  25
HETATM   25  O   UNK N   1      37.184  16.008  10.785  0.00  0.00    -0.392 OA
HETATM   26  H   UNK N   1      37.590  16.763  11.240  0.00  0.00     0.210 HD
ENDBRANCH  20  25
ENDBRANCH  19  20
ENDBRANCH  18  19
ENDBRANCH  15  18
ENDBRANCH   9  12
BRANCH   5  27
HETATM   27  N   UNK N   1      29.614  17.411   3.708  0.00  0.00    -0.341 N 
HETATM   28  H   UNK N   1      29.144  17.741   2.909  0.00  0.00     0.167 HD
BRANCH  27  29
HETATM   29  C   UNK N   1      30.746  16.593   3.460  0.00  0.00     0.033 A 
HETATM   30  C   UNK N   1      31.995  17.212   3.329  0.00  0.00     0.029 A 
HETATM   31  C   UNK N   1      33.150  16.450   3.141  0.00  0.00     0.002 A 
HETATM   32  C   UNK N   1      33.063  15.057   3.086  0.00  0.00     0.000 A 
HETATM   33  C   UNK N   1      31.823  14.428   3.235  0.00  0.00     0.002 A 
HETATM   34  C   UNK N   1      30.668  15.192   3.436  0.00  0.00     0.029 A 
ENDBRANCH  27  29
ENDBRANCH   5  27
TORSDOF 9
ENDMDL
MODEL 4
REMARK VINA RESULT:      -6.6      7.624     13.184
REMARK  9 active torsions:
REMARK  status: ('A' for Active; 'I' for Inactive)
REMARK    1  A    between atoms: C_1  and  O_22 
REMARK    2  A    between atoms: C_1  and  C_26 
REMARK       I    between atoms: C_5  and  N_24 
REMARK    3  A    between atoms: C_6  and  N_23 
REMARK    4  A    between atoms: C_13  and  N_23 
REMARK    5  A    between atoms: C_18  and  N_24 
REMARK    6  A    between atoms: C_19  and  O_22 
REMARK    7  A    between atoms: C_26  and  C_27 
REMARK    8  A    between atoms: C_26  and  O_31 
REMARK    9  A    between atoms: C_27  and  N_28 
ROOT
HETATM    1  N   UNK N   1      23.560  20.505   3.062  0.00  0.00    -0.200 N 
ATOM      2  HN  UNK N   1      23.871  21.361   2.603  1.00  0.00     0.183 HD
HETATM    3  C   UNK N   1      22.303  20.033   2.831  0.00  0.00     0.129 A 
HETATM    4  C   UNK N   1      24.401  19.845   3.900  0.00  0.00     0.684 A 
HETATM    5  C   UNK N   1      22.731  18.211   4.350  0.00  0.00     0.140 A 
HETATM    6  C   UNK N   1      21.850  18.867   3.464  0.00  0.00     0.071 A 
HETATM    7  N   UNK N   1      23.968  18.718   4.516  0.00  0.00    -0.175 N 
ATOM      8  HN  UNK N   1      24.611  18.228   5.139  1.00  0.00     0.186 HD
HETATM    9  N   UNK N   1      25.731  20.319   4.114  0.00  0.00    -0.192 N 
HETATM   10 Br   UNK N   1      20.121  18.196   2.987  0.00  0.00    -0.046 Br
HETATM   11  H   UNK N   1      26.019  21.127   3.631  0.00  0.00     0.184 HD
ENDROOT
BRANCH   9  12
HETATM   12  C   UNK N   1      26.667  19.684   4.991  0.00  0.00     0.049 A 
HETATM   13  C   UNK N   1      27.403  18.570   4.558  0.00  0.00     0.033 A 
HETATM   14  C   UNK N   1      28.356  17.980   5.410  0.00  0.00     0.039 A 
HETATM   15  C   UNK N   1      28.577  18.501   6.694  0.00  0.00     0.069 A 
HETATM   16  C   UNK N   1      27.813  19.590   7.125  0.00  0.00     0.039 A 
HETATM   17  C   UNK N   1      26.882  20.170   6.285  0.00  0.00     0.033 A 
BRANCH  15  18
HETATM   18  O   UNK N   1      29.542  17.975   7.493  0.00  0.00    -0.349 OA
BRANCH  18  19
HETATM   19  C   UNK N   1      30.442  17.016   7.048  0.00  0.00     0.209 C 
BRANCH  19  20
HETATM   20  C   UNK N   1      31.570  16.792   8.066  0.00  0.00     0.170 C 
BRANCH  20  21
HETATM   21  C   UNK N   1      32.680  17.837   7.923  0.00  0.00     0.305 C 
BRANCH  21  22
HETATM   22  N   UNK N   1      33.912  17.301   7.357  0.00  0.00     0.082 N 
HETATM   23  C   UNK N   1      33.971  15.907   7.756  0.00  0.00     0.309 C 
HETATM   24  C   UNK N   1      33.814  17.313   5.908  0.00  0.00     0.309 C 
ENDBRANCH  21  22
ENDBRANCH  20  21
BRANCH  20  25
HETATM   25  O   UNK N   1      31.057  16.785   9.364  0.00  0.00    -0.392 OA
HETATM   26  H   UNK N   1      30.233  17.064   9.793  0.00  0.00     0.210 HD
ENDBRANCH  20  25
ENDBRANCH  19  20
ENDBRANCH  18  19
ENDBRANCH  15  18
ENDBRANCH   9  12
BRANCH   5  27
HETATM   27  N   UNK N   1      22.432  16.992   5.020  0.00  0.00    -0.341 N 
HETATM   28  H   UNK N   1      22.780  16.175   4.596  0.00  0.00     0.167 HD
BRANCH  27  29
HETATM   29  C   UNK N   1      21.699  16.798   6.219  0.00  0.00     0.033 A 
HETATM   30  C   UNK N   1      21.852  15.584   6.900  0.00  0.00     0.029 A 
HETATM   31  C   UNK N   1      21.199  15.362   8.113  0.00  0.00     0.002 A 
HETATM   32  C   UNK N   1      20.386  16.359   8.658  0.00  0.00     0.000 A 
HETATM   33  C   UNK N   1      20.241  17.582   7.996  0.00  0.00     0.002 A 
HETATM   34  C   UNK N   1      20.907  17.808   6.785  0.00  0.00     0.029 A 
ENDBRANCH  27  29
ENDBRANCH   5  27
TORSDOF 9
ENDMDL
MODEL 5
REMARK VINA RESULT:      -6.5      4.809     10.984
REMARK  9 active torsions:
REMARK  status: ('A' for Active; 'I' for Inactive)
REMARK    1  A    between atoms: C_1  and  O_22 
REMARK    2  A    between atoms: C_1  and  C_26 
REMARK       I    between atoms: C_5  and  N_24 
REMARK    3  A    between atoms: C_6  and  N_23 
REMARK    4  A    between atoms: C_13  and  N_23 
REMARK    5  A    between atoms: C_18  and  N_24 
REMARK    6  A    between atoms: C_19  and  O_22 
REMARK    7  A    between atoms: C_26  and  C_27 
REMARK    8  A    between atoms: C_26  and  O_31 
REMARK    9  A    between atoms: C_27  and  N_28 
ROOT
HETATM    1  N   UNK N   1      28.906  14.874   1.974  0.00  0.00    -0.200 N 
ATOM      2  HN  UNK N   1      29.308  14.348   1.198  1.00  0.00     0.183 HD
HETATM    3  C   UNK N   1      27.559  15.059   2.041  0.00  0.00     0.129 A 
HETATM    4  C   UNK N   1      29.721  15.387   2.934  0.00  0.00     0.684 A 
HETATM    5  C   UNK N   1      27.854  16.336   4.063  0.00  0.00     0.140 A 
HETATM    6  C   UNK N   1      26.988  15.791   3.091  0.00  0.00     0.071 A 
HETATM    7  N   UNK N   1      29.175  16.098   3.951  0.00  0.00    -0.175 N 
ATOM      8  HN  UNK N   1      29.796  16.473   4.668  1.00  0.00     0.186 HD
HETATM    9  N   UNK N   1      31.130  15.162   2.885  0.00  0.00    -0.192 N 
HETATM   10 Br   UNK N   1      25.079  15.894   3.185  0.00  0.00    -0.046 Br
HETATM   11  H   UNK N   1      31.489  14.621   2.145  0.00  0.00     0.184 HD
ENDROOT
BRANCH   9  12
HETATM   12  C   UNK N   1      32.049  15.681   3.852  0.00  0.00     0.049 A 
HETATM   13  C   UNK N   1      32.421  17.035   3.823  0.00  0.00     0.033 A 
HETATM   14  C   UNK N   1      33.289  17.549   4.805  0.00  0.00     0.039 A 
HETATM   15  C   UNK N   1      33.786  16.713   5.817  0.00  0.00     0.069 A 
HETATM   16  C   UNK N   1      33.436  15.360   5.814  0.00  0.00     0.039 A 
HETATM   17  C   UNK N   1      32.580  14.860   4.852  0.00  0.00     0.033 A 
BRANCH  15  18
HETATM   18  O   UNK N   1      34.571  17.221   6.804  0.00  0.00    -0.349 OA
BRANCH  18  19
HETATM   19  C   UNK N   1      34.068  18.013   7.828  0.00  0.00     0.209 C 
BRANCH  19  20
HETATM   20  C   UNK N   1      34.363  17.400   9.205  0.00  0.00     0.170 C 
BRANCH  20  21
HETATM   21  C   UNK N   1      34.437  15.872   9.144  0.00  0.00     0.305 C 
BRANCH  21  22
HETATM   22  N   UNK N   1      35.578  15.318   9.864  0.00  0.00     0.082 N 
HETATM   23  C   UNK N   1      35.029  14.566  10.977  0.00  0.00     0.309 C 
HETATM   24  C   UNK N   1      36.258  14.358   9.012  0.00  0.00     0.309 C 
ENDBRANCH  21  22
ENDBRANCH  20  21
BRANCH  20  25
HETATM   25  O   UNK N   1      35.539  17.935   9.732  0.00  0.00    -0.392 OA
HETATM   26  H   UNK N   1      35.907  18.823   9.865  0.00  0.00     0.210 HD
ENDBRANCH  20  25
ENDBRANCH  19  20
ENDBRANCH  18  19
ENDBRANCH  15  18
ENDBRANCH   9  12
BRANCH   5  27
HETATM   27  N   UNK N   1      27.417  17.055   5.211  0.00  0.00    -0.341 N 
HETATM   28  H   UNK N   1      27.130  16.504   5.975  0.00  0.00     0.167 HD
BRANCH  27  29
HETATM   29  C   UNK N   1      27.342  18.458   5.402  0.00  0.00     0.033 A 
HETATM   30  C   UNK N   1      26.791  19.237   4.377  0.00  0.00     0.029 A 
HETATM   31  C   UNK N   1      26.641  20.616   4.534  0.00  0.00     0.002 A 
HETATM   32  C   UNK N   1      27.039  21.227   5.725  0.00  0.00     0.000 A 
HETATM   33  C   UNK N   1      27.573  20.456   6.762  0.00  0.00     0.002 A 
HETATM   34  C   UNK N   1      27.712  19.071   6.608  0.00  0.00     0.029 A 
ENDBRANCH  27  29
ENDBRANCH   5  27
TORSDOF 9
ENDMDL
MODEL 6
REMARK VINA RESULT:      -6.4      2.545      4.251
REMARK  9 active torsions:
REMARK  status: ('A' for Active; 'I' for Inactive)
REMARK    1  A    between atoms: C_1  and  O_22 
REMARK    2  A    between atoms: C_1  and  C_26 
REMARK       I    between atoms: C_5  and  N_24 
REMARK    3  A    between atoms: C_6  and  N_23 
REMARK    4  A    between atoms: C_13  and  N_23 
REMARK    5  A    between atoms: C_18  and  N_24 
REMARK    6  A    between atoms: C_19  and  O_22 
REMARK    7  A    between atoms: C_26  and  C_27 
REMARK    8  A    between atoms: C_26  and  O_31 
REMARK    9  A    between atoms: C_27  and  N_28 
ROOT
HETATM    1  N   UNK N   1      37.817   9.392  12.556  0.00  0.00    -0.200 N 
ATOM      2  HN  UNK N   1      38.545   9.153  11.882  1.00  0.00     0.183 HD
HETATM    3  C   UNK N   1      37.628   8.606  13.653  0.00  0.00     0.129 A 
HETATM    4  C   UNK N   1      37.044  10.490  12.353  0.00  0.00     0.684 A 
HETATM    5  C   UNK N   1      35.815  10.037  14.340  0.00  0.00     0.140 A 
HETATM    6  C   UNK N   1      36.624   8.907  14.584  0.00  0.00     0.071 A 
HETATM    7  N   UNK N   1      36.070  10.785  13.248  0.00  0.00    -0.175 N 
ATOM      8  HN  UNK N   1      35.499  11.615  13.087  1.00  0.00     0.186 HD
HETATM    9  N   UNK N   1      37.265  11.334  11.223  0.00  0.00    -0.192 N 
HETATM   10 Br   UNK N   1      36.508   7.832  16.163  0.00  0.00    -0.046 Br
HETATM   11  H   UNK N   1      37.997  11.103  10.606  0.00  0.00     0.184 HD
ENDROOT
BRANCH   9  12
HETATM   12  C   UNK N   1      36.483  12.498  10.938  0.00  0.00     0.049 A 
HETATM   13  C   UNK N   1      36.823  13.738  11.501  0.00  0.00     0.033 A 
HETATM   14  C   UNK N   1      36.076  14.888  11.179  0.00  0.00     0.039 A 
HETATM   15  C   UNK N   1      34.991  14.802  10.293  0.00  0.00     0.069 A 
HETATM   16  C   UNK N   1      34.642  13.555   9.766  0.00  0.00     0.039 A 
HETATM   17  C   UNK N   1      35.379  12.429  10.081  0.00  0.00     0.033 A 
BRANCH  15  18
HETATM   18  O   UNK N   1      34.310  15.920   9.929  0.00  0.00    -0.349 OA
BRANCH  18  19
HETATM   19  C   UNK N   1      34.908  17.172   9.863  0.00  0.00     0.209 C 
BRANCH  19  20
HETATM   20  C   UNK N   1      34.672  17.833   8.496  0.00  0.00     0.170 C 
BRANCH  20  21
HETATM   21  C   UNK N   1      33.186  17.870   8.132  0.00  0.00     0.305 C 
BRANCH  21  22
HETATM   22  N   UNK N   1      32.834  16.971   7.040  0.00  0.00     0.082 N 
HETATM   23  C   UNK N   1      31.405  17.123   6.832  0.00  0.00     0.309 C 
HETATM   24  C   UNK N   1      33.479  17.426   5.821  0.00  0.00     0.309 C 
ENDBRANCH  21  22
ENDBRANCH  20  21
BRANCH  20  25
HETATM   25  O   UNK N   1      35.222  19.115   8.478  0.00  0.00    -0.392 OA
HETATM   26  H   UNK N   1      36.110  19.498   8.550  0.00  0.00     0.210 HD
ENDBRANCH  20  25
ENDBRANCH  19  20
ENDBRANCH  18  19
ENDBRANCH  15  18
ENDBRANCH   9  12
BRANCH   5  27
HETATM   27  N   UNK N   1      34.796  10.497  15.220  0.00  0.00    -0.341 N 
HETATM   28  H   UNK N   1      33.889  10.158  15.037  0.00  0.00     0.167 HD
BRANCH  27  29
HETATM   29  C   UNK N   1      34.911  11.377  16.326  0.00  0.00     0.033 A 
HETATM   30  C   UNK N   1      35.135  10.823  17.592  0.00  0.00     0.029 A 
HETATM   31  C   UNK N   1      35.313  11.645  18.707  0.00  0.00     0.002 A 
HETATM   32  C   UNK N   1      35.272  13.034  18.559  0.00  0.00     0.000 A 
HETATM   33  C   UNK N   1      35.067  13.597  17.296  0.00  0.00     0.002 A 
HETATM   34  C   UNK N   1      34.902  12.771  16.178  0.00  0.00     0.029 A 
ENDBRANCH  27  29
ENDBRANCH   5  27
TORSDOF 9
ENDMDL
MODEL 7
REMARK VINA RESULT:      -6.4     19.471     21.424
REMARK  9 active torsions:
REMARK  status: ('A' for Active; 'I' for Inactive)
REMARK    1  A    between atoms: C_1  and  O_22 
REMARK    2  A    between atoms: C_1  and  C_26 
REMARK       I    between atoms: C_5  and  N_24 
REMARK    3  A    between atoms: C_6  and  N_23 
REMARK    4  A    between atoms: C_13  and  N_23 
REMARK    5  A    between atoms: C_18  and  N_24 
REMARK    6  A    between atoms: C_19  and  O_22 
REMARK    7  A    between atoms: C_26  and  C_27 
REMARK    8  A    between atoms: C_26  and  O_31 
REMARK    9  A    between atoms: C_27  and  N_28 
ROOT
HETATM    1  N   UNK N   1      27.865  29.587  -1.684  0.00  0.00    -0.200 N 
ATOM      2  HN  UNK N   1      27.096  29.920  -1.101  1.00  0.00     0.183 HD
HETATM    3  C   UNK N   1      29.125  30.059  -1.474  0.00  0.00     0.129 A 
HETATM    4  C   UNK N   1      27.624  28.676  -2.663  0.00  0.00     0.684 A 
HETATM    5  C   UNK N   1      29.916  28.699  -3.300  0.00  0.00     0.140 A 
HETATM    6  C   UNK N   1      30.193  29.626  -2.273  0.00  0.00     0.071 A 
HETATM    7  N   UNK N   1      28.651  28.254  -3.439  0.00  0.00    -0.175 N 
ATOM      8  HN  UNK N   1      28.458  27.566  -4.168  1.00  0.00     0.186 HD
HETATM    9  N   UNK N   1      26.310  28.152  -2.858  0.00  0.00    -0.192 N 
HETATM   10 Br   UNK N   1      31.953  30.235  -1.832  0.00  0.00    -0.046 Br
HETATM   11  H   UNK N   1      25.592  28.463  -2.260  0.00  0.00     0.184 HD
ENDROOT
BRANCH   9  12
HETATM   12  C   UNK N   1      25.978  27.202  -3.876  0.00  0.00     0.049 A 
HETATM   13  C   UNK N   1      25.343  27.619  -5.057  0.00  0.00     0.033 A 
HETATM   14  C   UNK N   1      25.063  26.686  -6.073  0.00  0.00     0.039 A 
HETATM   15  C   UNK N   1      25.417  25.337  -5.914  0.00  0.00     0.069 A 
HETATM   16  C   UNK N   1      26.018  24.929  -4.719  0.00  0.00     0.039 A 
HETATM   17  C   UNK N   1      26.296  25.848  -3.726  0.00  0.00     0.033 A 
BRANCH  15  18
HETATM   18  O   UNK N   1      25.207  24.448  -6.920  0.00  0.00    -0.349 OA
BRANCH  18  19
HETATM   19  C   UNK N   1      25.915  23.258  -7.027  0.00  0.00     0.209 C 
BRANCH  19  20
HETATM   20  C   UNK N   1      25.460  22.443  -8.247  0.00  0.00     0.170 C 
BRANCH  20  21
HETATM   21  C   UNK N   1      26.253  21.142  -8.390  0.00  0.00     0.305 C 
BRANCH  21  22
HETATM   22  N   UNK N   1      27.092  21.102  -9.581  0.00  0.00     0.082 N 
HETATM   23  C   UNK N   1      26.592  22.137 -10.467  0.00  0.00     0.309 C 
HETATM   24  C   UNK N   1      28.447  21.484  -9.222  0.00  0.00     0.309 C 
ENDBRANCH  21  22
ENDBRANCH  20  21
BRANCH  20  25
HETATM   25  O   UNK N   1      24.090  22.187  -8.174  0.00  0.00    -0.392 OA
HETATM   26  H   UNK N   1      23.502  21.450  -8.404  0.00  0.00     0.210 HD
ENDBRANCH  20  25
ENDBRANCH  19  20
ENDBRANCH  18  19
ENDBRANCH  15  18
ENDBRANCH   9  12
BRANCH   5  27
HETATM   27  N   UNK N   1      30.903  28.130  -4.153  0.00  0.00    -0.341 N 
HETATM   28  H   UNK N   1      31.339  28.754  -4.778  0.00  0.00     0.167 HD
BRANCH  27  29
HETATM   29  C   UNK N   1      31.343  26.784  -4.222  0.00  0.00     0.033 A 
HETATM   30  C   UNK N   1      30.584  25.804  -3.570  0.00  0.00     0.029 A 
HETATM   31  C   UNK N   1      30.940  24.457  -3.652  0.00  0.00     0.002 A 
HETATM   32  C   UNK N   1      32.061  24.078  -4.395  0.00  0.00     0.000 A 
HETATM   33  C   UNK N   1      32.815  25.046  -5.066  0.00  0.00     0.002 A 
HETATM   34  C   UNK N   1      32.449  26.395  -4.992  0.00  0.00     0.029 A 
ENDBRANCH  27  29
ENDBRANCH   5  27
TORSDOF 9
ENDMDL
MODEL 8
REMARK VINA RESULT:      -6.4      2.344      4.194
REMARK  9 active torsions:
REMARK  status: ('A' for Active; 'I' for Inactive)
REMARK    1  A    between atoms: C_1  and  O_22 
REMARK    2  A    between atoms: C_1  and  C_26 
REMARK       I    between atoms: C_5  and  N_24 
REMARK    3  A    between atoms: C_6  and  N_23 
REMARK    4  A    between atoms: C_13  and  N_23 
REMARK    5  A    between atoms: C_18  and  N_24 
REMARK    6  A    between atoms: C_19  and  O_22 
REMARK    7  A    between atoms: C_26  and  C_27 
REMARK    8  A    between atoms: C_26  and  O_31 
REMARK    9  A    between atoms: C_27  and  N_28 
ROOT
HETATM    1  N   UNK N   1      37.565  10.630  11.925  0.00  0.00    -0.200 N 
ATOM      2  HN  UNK N   1      38.097  10.230  11.152  1.00  0.00     0.183 HD
HETATM    3  C   UNK N   1      37.561  10.006  13.136  0.00  0.00     0.129 A 
HETATM    4  C   UNK N   1      36.866  11.780  11.739  0.00  0.00     0.684 A 
HETATM    5  C   UNK N   1      36.086  11.712  13.986  0.00  0.00     0.140 A 
HETATM    6  C   UNK N   1      36.825  10.531  14.208  0.00  0.00     0.071 A 
HETATM    7  N   UNK N   1      36.151  12.291  12.771  0.00  0.00    -0.175 N 
ATOM      8  HN  UNK N   1      35.634  13.158  12.621  1.00  0.00     0.186 HD
HETATM    9  N   UNK N   1      36.899  12.454  10.481  0.00  0.00    -0.192 N 
HETATM   10 Br   UNK N   1      36.977   9.671  15.911  0.00  0.00    -0.046 Br
HETATM   11  H   UNK N   1      37.448  12.067   9.761  0.00  0.00     0.184 HD
ENDROOT
BRANCH   9  12
HETATM   12  C   UNK N   1      36.179  13.660  10.208  0.00  0.00     0.049 A 
HETATM   13  C   UNK N   1      34.930  13.612   9.569  0.00  0.00     0.033 A 
HETATM   14  C   UNK N   1      34.205  14.798   9.347  0.00  0.00     0.039 A 
HETATM   15  C   UNK N   1      34.725  16.034   9.762  0.00  0.00     0.069 A 
HETATM   16  C   UNK N   1      35.986  16.072  10.366  0.00  0.00     0.039 A 
HETATM   17  C   UNK N   1      36.692  14.905  10.588  0.00  0.00     0.033 A 
BRANCH  15  18
HETATM   18  O   UNK N   1      33.999  17.172   9.608  0.00  0.00    -0.349 OA
BRANCH  18  19
HETATM   19  C   UNK N   1      33.782  17.759   8.369  0.00  0.00     0.209 C 
BRANCH  19  20
HETATM   20  C   UNK N   1      32.291  17.753   8.000  0.00  0.00     0.170 C 
BRANCH  20  21
HETATM   21  C   UNK N   1      31.932  16.567   7.102  0.00  0.00     0.305 C 
BRANCH  21  22
HETATM   22  N   UNK N   1      30.999  16.909   6.035  0.00  0.00     0.082 N 
HETATM   23  C   UNK N   1      31.806  17.365   4.918  0.00  0.00     0.309 C 
HETATM   24  C   UNK N   1      30.321  15.704   5.591  0.00  0.00     0.309 C 
ENDBRANCH  21  22
ENDBRANCH  20  21
BRANCH  20  25
HETATM   25  O   UNK N   1      31.506  17.759   9.154  0.00  0.00    -0.392 OA
HETATM   26  H   UNK N   1      31.100  18.433   9.723  0.00  0.00     0.210 HD
ENDBRANCH  20  25
ENDBRANCH  19  20
ENDBRANCH  18  19
ENDBRANCH  15  18
ENDBRANCH   9  12
BRANCH   5  27
HETATM   27  N   UNK N   1      35.338  12.388  14.990  0.00  0.00    -0.341 N 
HETATM   28  H   UNK N   1      34.389  12.135  15.059  0.00  0.00     0.167 HD
BRANCH  27  29
HETATM   29  C   UNK N   1      35.777  13.379  15.905  0.00  0.00     0.033 A 
HETATM   30  C   UNK N   1      36.796  14.249  15.500  0.00  0.00     0.029 A 
HETATM   31  C   UNK N   1      37.227  15.278  16.339  0.00  0.00     0.002 A 
HETATM   32  C   UNK N   1      36.636  15.447  17.593  0.00  0.00     0.000 A 
HETATM   33  C   UNK N   1      35.605  14.595  18.000  0.00  0.00     0.002 A 
HETATM   34  C   UNK N   1      35.165  13.571  17.152  0.00  0.00     0.029 A 
ENDBRANCH  27  29
ENDBRANCH   5  27
TORSDOF 9
ENDMDL
MODEL 9
REMARK VINA RESULT:      -6.4     17.890     21.274
REMARK  9 active torsions:
REMARK  status: ('A' for Active; 'I' for Inactive)
REMARK    1  A    between atoms: C_1  and  O_22 
REMARK    2  A    between atoms: C_1  and  C_26 
REMARK       I    between atoms: C_5  and  N_24 
REMARK    3  A    between atoms: C_6  and  N_23 
REMARK    4  A    between atoms: C_13  and  N_23 
REMARK    5  A    between atoms: C_18  and  N_24 
REMARK    6  A    between atoms: C_19  and  O_22 
REMARK    7  A    between atoms: C_26  and  C_27 
REMARK    8  A    between atoms: C_26  and  O_31 
REMARK    9  A    between atoms: C_27  and  N_28 
ROOT
HETATM    1  N   UNK N   1      26.033  21.977  -8.411  0.00  0.00    -0.200 N 
ATOM      2  HN  UNK N   1      25.117  21.971  -8.860  1.00  0.00     0.183 HD
HETATM    3  C   UNK N   1      26.948  21.020  -8.731  0.00  0.00     0.129 A 
HETATM    4  C   UNK N   1      26.330  22.936  -7.496  0.00  0.00     0.684 A 
HETATM    5  C   UNK N   1      28.486  21.990  -7.149  0.00  0.00     0.140 A 
HETATM    6  C   UNK N   1      28.208  21.000  -8.115  0.00  0.00     0.071 A 
HETATM    7  N   UNK N   1      27.545  22.921  -6.895  0.00  0.00    -0.175 N 
ATOM      8  HN  UNK N   1      27.758  23.650  -6.214  1.00  0.00     0.186 HD
HETATM    9  N   UNK N   1      25.385  23.961  -7.187  0.00  0.00    -0.192 N 
HETATM   10 Br   UNK N   1      29.484  19.705  -8.714  0.00  0.00    -0.046 Br
HETATM   11  H   UNK N   1      24.522  23.955  -7.660  0.00  0.00     0.184 HD
ENDROOT
BRANCH   9  12
HETATM   12  C   UNK N   1      25.623  24.995  -6.226  0.00  0.00     0.049 A 
HETATM   13  C   UNK N   1      25.846  24.674  -4.878  0.00  0.00     0.033 A 
HETATM   14  C   UNK N   1      26.126  25.693  -3.947  0.00  0.00     0.039 A 
HETATM   15  C   UNK N   1      26.185  27.033  -4.361  0.00  0.00     0.069 A 
HETATM   16  C   UNK N   1      25.927  27.342  -5.700  0.00  0.00     0.039 A 
HETATM   17  C   UNK N   1      25.658  26.340  -6.612  0.00  0.00     0.033 A 
BRANCH  15  18
HETATM   18  O   UNK N   1      26.520  28.011  -3.479  0.00  0.00    -0.349 OA
BRANCH  18  19
HETATM   19  C   UNK N   1      26.239  29.352  -3.705  0.00  0.00     0.209 C 
BRANCH  19  20
HETATM   20  C   UNK N   1      27.328  30.259  -3.114  0.00  0.00     0.170 C 
BRANCH  20  21
HETATM   21  C   UNK N   1      28.123  29.551  -2.014  0.00  0.00     0.305 C 
BRANCH  21  22
HETATM   22  N   UNK N   1      28.758  30.467  -1.075  0.00  0.00     0.082 N 
HETATM   23  C   UNK N   1      28.370  30.025   0.251  0.00  0.00     0.309 C 
HETATM   24  C   UNK N   1      30.200  30.311  -1.158  0.00  0.00     0.309 C 
ENDBRANCH  21  22
ENDBRANCH  20  21
BRANCH  20  25
HETATM   25  O   UNK N   1      28.175  30.720  -4.123  0.00  0.00    -0.392 OA
HETATM   26  H   UNK N   1      29.131  30.847  -4.232  0.00  0.00     0.210 HD
ENDBRANCH  20  25
ENDBRANCH  19  20
ENDBRANCH  18  19
ENDBRANCH  15  18
ENDBRANCH   9  12
BRANCH   5  27
HETATM   27  N   UNK N   1      29.735  22.129  -6.482  0.00  0.00    -0.341 N 
HETATM   28  H   UNK N   1      30.535  22.014  -7.044  0.00  0.00     0.167 HD
BRANCH  27  29
HETATM   29  C   UNK N   1      29.981  22.410  -5.114  0.00  0.00     0.033 A 
HETATM   30  C   UNK N   1      30.482  21.383  -4.305  0.00  0.00     0.029 A 
HETATM   31  C   UNK N   1      30.795  21.620  -2.966  0.00  0.00     0.002 A 
HETATM   32  C   UNK N   1      30.612  22.895  -2.425  0.00  0.00     0.000 A 
HETATM   33  C   UNK N   1      30.130  23.933  -3.228  0.00  0.00     0.002 A 
HETATM   34  C   UNK N   1      29.828  23.696  -4.574  0.00  0.00     0.029 A 
ENDBRANCH  27  29
ENDBRANCH   5  27
TORSDOF 9
ENDMDL
