REMARK  9 active torsions:
REMARK  status: ('A' for Active; 'I' for Inactive)
REMARK    1  A    between atoms: C_1  and  O_22 
REMARK    2  A    between atoms: C_1  and  C_26 
REMARK       I    between atoms: C_5  and  N_24 
REMARK    3  A    between atoms: C_6  and  N_23 
REMARK    4  A    between atoms: C_13  and  N_23 
REMARK    5  A    between atoms: C_18  and  N_24 
REMARK    6  A    between atoms: C_19  and  O_22 
REMARK    7  A    between atoms: C_26  and  C_27 
REMARK    8  A    between atoms: C_26  and  O_31 
REMARK    9  A    between atoms: C_27  and  N_28 
ROOT
HETATM    1  N   UNK N   1      -4.704   0.776  -0.284  0.00  0.00    -0.200 N 
ATOM      2  HN  UNK N   1      -5.530   0.241  -0.553  1.00  0.00     0.183 HD
HETATM    3  C   UNK N   1      -4.778   2.133  -0.193  0.00  0.00     0.129 A 
HETATM    4  C   UNK N   1      -3.538   0.130  -0.021  0.00  0.00     0.684 A 
HETATM    5  C   UNK N   1      -2.444   2.200   0.404  0.00  0.00     0.140 A 
HETATM    6  C   UNK N   1      -3.651   2.889   0.160  0.00  0.00     0.071 A 
HETATM    7  N   UNK N   1      -2.444   0.855   0.319  0.00  0.00    -0.175 N 
ATOM      8  HN  UNK N   1      -1.576   0.358   0.519  1.00  0.00     0.186 HD
HETATM    9  N   UNK N   1      -3.469  -1.295  -0.080  0.00  0.00    -0.192 N 
HETATM   10 Br   UNK N   1      -3.869   4.776   0.395  0.00  0.00    -0.046 Br
HETATM   11  H   UNK N   1      -4.289  -1.791  -0.307  0.00  0.00     0.184 HD
ENDROOT
BRANCH   9  12
HETATM   12  C   UNK N   1      -2.274  -2.042   0.171  0.00  0.00     0.049 A 
HETATM   13  C   UNK N   1      -2.281  -3.443   0.084  0.00  0.00     0.033 A 
HETATM   14  C   UNK N   1      -1.091  -4.168   0.286  0.00  0.00     0.039 A 
HETATM   15  C   UNK N   1       0.107  -3.496   0.574  0.00  0.00     0.069 A 
HETATM   16  C   UNK N   1       0.093  -2.103   0.692  0.00  0.00     0.039 A 
HETATM   17  C   UNK N   1      -1.075  -1.394   0.488  0.00  0.00     0.033 A 
BRANCH  15  18
HETATM   18  O   UNK N   1       1.269  -4.188   0.704  0.00  0.00    -0.349 OA
BRANCH  18  19
HETATM   19  C   UNK N   1       2.501  -3.563   0.845  0.00  0.00     0.209 C 
BRANCH  19  20
HETATM   20  C   UNK N   1       2.947  -2.902  -0.468  0.00  0.00     0.170 C 
BRANCH  20  21
HETATM   21  C   UNK N   1       4.082  -1.900  -0.243  0.00  0.00     0.305 C 
BRANCH  21  22
HETATM   22  N   UNK N   1       5.395  -2.525  -0.136  0.00  0.00     0.082 N 
HETATM   23  C   UNK N   1       6.367  -1.456  -0.274  0.00  0.00     0.309 C 
HETATM   24  C   UNK N   1       5.559  -3.063   1.203  0.00  0.00     0.309 C 
ENDBRANCH  21  22
ENDBRANCH  20  21
BRANCH  20  25
HETATM   25  O   UNK N   1       3.318  -3.874  -1.398  0.00  0.00    -0.392 OA
HETATM   26  H   UNK N   1       2.862  -4.435  -2.045  0.00  0.00     0.210 HD
ENDBRANCH  20  25
ENDBRANCH  19  20
ENDBRANCH  18  19
ENDBRANCH  15  18
ENDBRANCH   9  12
BRANCH   5  27
HETATM   27  N   UNK N   1      -1.236   2.825   0.822  0.00  0.00    -0.341 N 
HETATM   28  H   UNK N   1      -0.791   2.417   1.600  0.00  0.00     0.167 HD
BRANCH  27  29
HETATM   29  C   UNK N   1      -0.587   3.957   0.267  0.00  0.00     0.033 A 
HETATM   30  C   UNK N   1       0.592   4.408   0.873  0.00  0.00     0.029 A 
HETATM   31  C   UNK N   1       1.302   5.483   0.335  0.00  0.00     0.002 A 
HETATM   32  C   UNK N   1       0.837   6.114  -0.821  0.00  0.00     0.000 A 
HETATM   33  C   UNK N   1      -0.329   5.660  -1.445  0.00  0.00     0.002 A 
HETATM   34  C   UNK N   1      -1.033   4.574  -0.911  0.00  0.00     0.029 A 
ENDBRANCH  27  29
ENDBRANCH   5  27
TORSDOF 9
