MODEL 1
REMARK VINA RESULT:      -6.9      0.000      0.000
REMARK  4 active torsions:
REMARK  status: ('A' for Active; 'I' for Inactive)
REMARK    1  A    between atoms: C_6  and  O_7 
REMARK    2  A    between atoms: C_11  and  C_12 
REMARK    3  A    between atoms: C_15  and  O_19 
REMARK    4  A    between atoms: C_17  and  O_18 
ROOT
HETATM    1  C   UNK N   1      26.957  20.481   3.681  0.00  0.00     0.037 A 
HETATM    2  C   UNK N   1      27.598  19.741   4.689  0.00  0.00     0.019 A 
HETATM    3  C   UNK N   1      26.937  18.620   5.188  0.00  0.00     0.029 A 
HETATM    4  C   UNK N   1      25.715  18.239   4.728  0.00  0.00     0.114 A 
HETATM    5  C   UNK N   1      25.048  18.945   3.731  0.00  0.00     0.076 A 
HETATM    6  C   UNK N   1      25.687  20.087   3.202  0.00  0.00     0.068 A 
HETATM    7  O   UNK N   1      25.336  17.159   5.370  0.00  0.00    -0.237 OA
HETATM    8  N   UNK N   1      26.248  16.801   6.238  0.00  0.00    -0.259 N 
ATOM      9  HN  UNK N   1      26.201  15.997   6.865  1.00  0.00     0.195 HD
HETATM   10  C   UNK N   1      27.268  17.693   6.153  0.00  0.00     0.081 A 
ENDROOT
BRANCH  10  11
HETATM   11  C   UNK N   1      28.511  17.663   6.961  0.00  0.00     0.028 A 
HETATM   12  C   UNK N   1      29.717  17.345   6.323  0.00  0.00     0.038 A 
HETATM   13  C   UNK N   1      30.917  17.300   7.025  0.00  0.00     0.045 A 
HETATM   14  C   UNK N   1      30.929  17.576   8.395  0.00  0.00     0.085 A 
HETATM   15 Br   UNK N   1      32.519  16.859   6.081  0.00  0.00    -0.048 Br
HETATM   16  C   UNK N   1      29.736  17.895   9.052  0.00  0.00     0.075 A 
HETATM   17  C   UNK N   1      28.527  17.941   8.346  0.00  0.00     0.081 A 
BRANCH  14  18
HETATM   18  O   UNK N   1      32.081  17.536   9.085  0.00  0.00    -0.359 OA
HETATM   19  H   UNK N   1      32.101  17.813   9.981  0.00  0.00     0.217 HD
ENDBRANCH  14  18
BRANCH  17  20
HETATM   20  O   UNK N   1      27.396  18.250   9.005  0.00  0.00    -0.360 OA
HETATM   21  H   UNK N   1      27.430  18.806   9.758  0.00  0.00     0.217 HD
ENDBRANCH  17  20
ENDBRANCH  10  11
BRANCH   6  22
HETATM   22  O   UNK N   1      25.089  20.805   2.239  0.00  0.00    -0.361 OA
HETATM   23  H   UNK N   1      24.178  21.013   2.308  0.00  0.00     0.217 HD
ENDBRANCH   6  22
TORSDOF 4
ENDMDL
MODEL 2
REMARK VINA RESULT:      -6.6      4.572      8.913
REMARK  4 active torsions:
REMARK  status: ('A' for Active; 'I' for Inactive)
REMARK    1  A    between atoms: C_6  and  O_7 
REMARK    2  A    between atoms: C_11  and  C_12 
REMARK    3  A    between atoms: C_15  and  O_19 
REMARK    4  A    between atoms: C_17  and  O_18 
ROOT
HETATM    1  C   UNK N   1      34.172  14.337  10.876  0.00  0.00     0.037 A 
HETATM    2  C   UNK N   1      33.632  15.113   9.836  0.00  0.00     0.019 A 
HETATM    3  C   UNK N   1      34.216  16.355   9.586  0.00  0.00     0.029 A 
HETATM    4  C   UNK N   1      35.271  16.815  10.311  0.00  0.00     0.114 A 
HETATM    5  C   UNK N   1      35.833  16.076  11.347  0.00  0.00     0.076 A 
HETATM    6  C   UNK N   1      35.269  14.814  11.630  0.00  0.00     0.068 A 
HETATM    7  O   UNK N   1      35.611  17.999   9.861  0.00  0.00    -0.237 OA
HETATM    8  N   UNK N   1      34.833  18.352   8.869  0.00  0.00    -0.259 N 
ATOM      9  HN  UNK N   1      34.885  19.225   8.344  1.00  0.00     0.195 HD
HETATM   10  C   UNK N   1      33.945  17.346   8.668  0.00  0.00     0.081 A 
ENDROOT
BRANCH  10  11
HETATM   11  C   UNK N   1      32.878  17.330   7.637  0.00  0.00     0.028 A 
HETATM   12  C   UNK N   1      31.542  17.345   8.058  0.00  0.00     0.038 A 
HETATM   13  C   UNK N   1      30.495  17.331   7.142  0.00  0.00     0.045 A 
HETATM   14  C   UNK N   1      30.773  17.302   5.772  0.00  0.00     0.085 A 
HETATM   15 Br   UNK N   1      28.700  17.353   7.796  0.00  0.00    -0.048 Br
HETATM   16  C   UNK N   1      32.100  17.286   5.331  0.00  0.00     0.075 A 
HETATM   17  C   UNK N   1      33.155  17.300   6.253  0.00  0.00     0.081 A 
BRANCH  14  18
HETATM   18  O   UNK N   1      29.772  17.288   4.877  0.00  0.00    -0.359 OA
HETATM   19  H   UNK N   1      29.696  16.578   4.269  0.00  0.00     0.217 HD
ENDBRANCH  14  18
BRANCH  17  20
HETATM   20  O   UNK N   1      34.421  17.284   5.799  0.00  0.00    -0.360 OA
HETATM   21  H   UNK N   1      35.135  17.241   6.404  0.00  0.00     0.217 HD
ENDBRANCH  17  20
ENDBRANCH  10  11
BRANCH   6  22
HETATM   22  O   UNK N   1      35.772  14.060  12.618  0.00  0.00    -0.361 OA
HETATM   23  H   UNK N   1      35.944  13.150  12.473  0.00  0.00     0.217 HD
ENDBRANCH   6  22
TORSDOF 4
ENDMDL
MODEL 3
REMARK VINA RESULT:      -6.6      7.388      9.433
REMARK  4 active torsions:
REMARK  status: ('A' for Active; 'I' for Inactive)
REMARK    1  A    between atoms: C_6  and  O_7 
REMARK    2  A    between atoms: C_11  and  C_12 
REMARK    3  A    between atoms: C_15  and  O_19 
REMARK    4  A    between atoms: C_17  and  O_18 
ROOT
HETATM    1  C   UNK N   1      21.038  13.957   0.793  0.00  0.00     0.037 A 
HETATM    2  C   UNK N   1      20.984  15.233   1.380  0.00  0.00     0.019 A 
HETATM    3  C   UNK N   1      20.192  15.390   2.516  0.00  0.00     0.029 A 
HETATM    4  C   UNK N   1      19.488  14.357   3.053  0.00  0.00     0.114 A 
HETATM    5  C   UNK N   1      19.515  13.079   2.501  0.00  0.00     0.076 A 
HETATM    6  C   UNK N   1      20.307  12.883   1.350  0.00  0.00     0.068 A 
HETATM    7  O   UNK N   1      18.837  14.788   4.108  0.00  0.00    -0.237 OA
HETATM    8  N   UNK N   1      19.073  16.061   4.301  0.00  0.00    -0.259 N 
ATOM      9  HN  UNK N   1      18.691  16.638   5.051  1.00  0.00     0.195 HD
HETATM   10  C   UNK N   1      19.919  16.473   3.322  0.00  0.00     0.081 A 
ENDROOT
BRANCH  10  11
HETATM   11  C   UNK N   1      20.447  17.851   3.162  0.00  0.00     0.028 A 
HETATM   12  C   UNK N   1      21.795  18.089   3.457  0.00  0.00     0.038 A 
HETATM   13  C   UNK N   1      22.350  19.357   3.327  0.00  0.00     0.045 A 
HETATM   14  C   UNK N   1      21.554  20.422   2.894  0.00  0.00     0.085 A 
HETATM   15 Br   UNK N   1      24.198  19.600   3.750  0.00  0.00    -0.048 Br
HETATM   16  C   UNK N   1      20.206  20.206   2.595  0.00  0.00     0.075 A 
HETATM   17  C   UNK N   1      19.645  18.928   2.725  0.00  0.00     0.081 A 
BRANCH  14  18
HETATM   18  O   UNK N   1      22.078  21.652   2.765  0.00  0.00    -0.359 OA
HETATM   19  H   UNK N   1      22.999  21.785   2.881  0.00  0.00     0.217 HD
ENDBRANCH  14  18
BRANCH  17  20
HETATM   20  O   UNK N   1      18.345  18.751   2.429  0.00  0.00    -0.360 OA
HETATM   21  H   UNK N   1      18.100  18.339   1.625  0.00  0.00     0.217 HD
ENDBRANCH  17  20
ENDBRANCH  10  11
BRANCH   6  22
HETATM   22  O   UNK N   1      20.370  11.671   0.777  0.00  0.00    -0.361 OA
HETATM   23  H   UNK N   1      19.651  11.077   0.859  0.00  0.00     0.217 HD
ENDBRANCH   6  22
TORSDOF 4
ENDMDL
MODEL 4
REMARK VINA RESULT:      -6.6      4.387      8.669
REMARK  4 active torsions:
REMARK  status: ('A' for Active; 'I' for Inactive)
REMARK    1  A    between atoms: C_6  and  O_7 
REMARK    2  A    between atoms: C_11  and  C_12 
REMARK    3  A    between atoms: C_15  and  O_19 
REMARK    4  A    between atoms: C_17  and  O_18 
ROOT
HETATM    1  C   UNK N   1      34.309  14.258  10.747  0.00  0.00     0.037 A 
HETATM    2  C   UNK N   1      33.705  15.030   9.740  0.00  0.00     0.019 A 
HETATM    3  C   UNK N   1      34.223  16.302   9.501  0.00  0.00     0.029 A 
HETATM    4  C   UNK N   1      35.274  16.796  10.209  0.00  0.00     0.114 A 
HETATM    5  C   UNK N   1      35.899  16.063  11.213  0.00  0.00     0.076 A 
HETATM    6  C   UNK N   1      35.401  14.770  11.482  0.00  0.00     0.068 A 
HETATM    7  O   UNK N   1      35.547  18.005   9.776  0.00  0.00    -0.237 OA
HETATM    8  N   UNK N   1      34.726  18.341   8.813  0.00  0.00    -0.259 N 
ATOM      9  HN  UNK N   1      34.723  19.227   8.306  1.00  0.00     0.195 HD
HETATM   10  C   UNK N   1      33.881  17.298   8.613  0.00  0.00     0.081 A 
ENDROOT
BRANCH  10  11
HETATM   11  C   UNK N   1      32.788  17.254   7.611  0.00  0.00     0.028 A 
HETATM   12  C   UNK N   1      33.127  17.150   6.256  0.00  0.00     0.038 A 
HETATM   13  C   UNK N   1      32.149  17.104   5.268  0.00  0.00     0.045 A 
HETATM   14  C   UNK N   1      30.798  17.161   5.625  0.00  0.00     0.085 A 
HETATM   15 Br   UNK N   1      32.692  16.962   3.442  0.00  0.00    -0.048 Br
HETATM   16  C   UNK N   1      30.439  17.264   6.973  0.00  0.00     0.075 A 
HETATM   17  C   UNK N   1      31.423  17.311   7.969  0.00  0.00     0.081 A 
BRANCH  14  18
HETATM   18  O   UNK N   1      29.844  17.117   4.681  0.00  0.00    -0.359 OA
HETATM   19  H   UNK N   1      29.971  16.600   3.910  0.00  0.00     0.217 HD
ENDBRANCH  14  18
BRANCH  17  20
HETATM   20  O   UNK N   1      31.046  17.411   9.257  0.00  0.00    -0.360 OA
HETATM   21  H   UNK N   1      30.987  18.253   9.663  0.00  0.00     0.217 HD
ENDBRANCH  17  20
ENDBRANCH  10  11
BRANCH   6  22
HETATM   22  O   UNK N   1      35.966  14.020  12.440  0.00  0.00    -0.361 OA
HETATM   23  H   UNK N   1      36.746  14.315  12.868  0.00  0.00     0.217 HD
ENDBRANCH   6  22
TORSDOF 4
ENDMDL
MODEL 5
REMARK VINA RESULT:      -6.5      6.412      7.493
REMARK  4 active torsions:
REMARK  status: ('A' for Active; 'I' for Inactive)
REMARK    1  A    between atoms: C_6  and  O_7 
REMARK    2  A    between atoms: C_11  and  C_12 
REMARK    3  A    between atoms: C_15  and  O_19 
REMARK    4  A    between atoms: C_17  and  O_18 
ROOT
HETATM    1  C   UNK N   1      20.228  19.479   2.635  0.00  0.00     0.037 A 
HETATM    2  C   UNK N   1      20.458  18.680   3.768  0.00  0.00     0.019 A 
HETATM    3  C   UNK N   1      21.753  18.645   4.282  0.00  0.00     0.029 A 
HETATM    4  C   UNK N   1      22.771  19.352   3.721  0.00  0.00     0.114 A 
HETATM    5  C   UNK N   1      22.584  20.153   2.599  0.00  0.00     0.076 A 
HETATM    6  C   UNK N   1      21.284  20.213   2.050  0.00  0.00     0.068 A 
HETATM    7  O   UNK N   1      23.869  19.133   4.405  0.00  0.00    -0.237 OA
HETATM    8  N   UNK N   1      23.632  18.313   5.398  0.00  0.00    -0.259 N 
ATOM      9  HN  UNK N   1      24.314  17.980   6.081  1.00  0.00     0.195 HD
HETATM   10  C   UNK N   1      22.316  17.985   5.353  0.00  0.00     0.081 A 
ENDROOT
BRANCH  10  11
HETATM   11  C   UNK N   1      21.620  17.076   6.297  0.00  0.00     0.028 A 
HETATM   12  C   UNK N   1      21.750  15.694   6.113  0.00  0.00     0.038 A 
HETATM   13  C   UNK N   1      21.123  14.790   6.963  0.00  0.00     0.045 A 
HETATM   14  C   UNK N   1      20.344  15.261   8.025  0.00  0.00     0.085 A 
HETATM   15 Br   UNK N   1      21.349  12.919   6.646  0.00  0.00    -0.048 Br
HETATM   16  C   UNK N   1      20.202  16.637   8.226  0.00  0.00     0.075 A 
HETATM   17  C   UNK N   1      20.833  17.549   7.371  0.00  0.00     0.081 A 
BRANCH  14  18
HETATM   18  O   UNK N   1      19.733  14.398   8.854  0.00  0.00    -0.359 OA
HETATM   19  H   UNK N   1      19.837  14.485   9.782  0.00  0.00     0.217 HD
ENDBRANCH  14  18
BRANCH  17  20
HETATM   20  O   UNK N   1      20.677  18.868   7.589  0.00  0.00    -0.360 OA
HETATM   21  H   UNK N   1      21.136  19.283   8.293  0.00  0.00     0.217 HD
ENDBRANCH  17  20
ENDBRANCH  10  11
BRANCH   6  22
HETATM   22  O   UNK N   1      21.047  20.971   0.969  0.00  0.00    -0.361 OA
HETATM   23  H   UNK N   1      20.198  21.341   0.833  0.00  0.00     0.217 HD
ENDBRANCH   6  22
TORSDOF 4
ENDMDL
MODEL 6
REMARK VINA RESULT:      -6.4      3.836      6.082
REMARK  4 active torsions:
REMARK  status: ('A' for Active; 'I' for Inactive)
REMARK    1  A    between atoms: C_6  and  O_7 
REMARK    2  A    between atoms: C_11  and  C_12 
REMARK    3  A    between atoms: C_15  and  O_19 
REMARK    4  A    between atoms: C_17  and  O_18 
ROOT
HETATM    1  C   UNK N   1      28.505  17.102   7.413  0.00  0.00     0.037 A 
HETATM    2  C   UNK N   1      29.661  16.866   6.650  0.00  0.00     0.019 A 
HETATM    3  C   UNK N   1      30.877  17.314   7.163  0.00  0.00     0.029 A 
HETATM    4  C   UNK N   1      30.962  17.960   8.357  0.00  0.00     0.114 A 
HETATM    5  C   UNK N   1      29.841  18.213   9.141  0.00  0.00     0.076 A 
HETATM    6  C   UNK N   1      28.591  17.773   8.654  0.00  0.00     0.068 A 
HETATM    7  O   UNK N   1      32.218  18.264   8.587  0.00  0.00    -0.237 OA
HETATM    8  N   UNK N   1      32.975  17.852   7.603  0.00  0.00    -0.259 N 
ATOM      9  HN  UNK N   1      33.988  17.963   7.534  1.00  0.00     0.195 HD
HETATM   10  C   UNK N   1      32.170  17.251   6.690  0.00  0.00     0.081 A 
ENDROOT
BRANCH  10  11
HETATM   11  C   UNK N   1      32.617  16.639   5.415  0.00  0.00     0.028 A 
HETATM   12  C   UNK N   1      33.423  15.495   5.468  0.00  0.00     0.038 A 
HETATM   13  C   UNK N   1      33.875  14.874   4.309  0.00  0.00     0.045 A 
HETATM   14  C   UNK N   1      33.523  15.396   3.060  0.00  0.00     0.085 A 
HETATM   15 Br   UNK N   1      34.970  13.316   4.466  0.00  0.00    -0.048 Br
HETATM   16  C   UNK N   1      32.719  16.538   2.985  0.00  0.00     0.075 A 
HETATM   17  C   UNK N   1      32.263  17.164   4.152  0.00  0.00     0.081 A 
BRANCH  14  18
HETATM   18  O   UNK N   1      33.952  14.807   1.932  0.00  0.00    -0.359 OA
HETATM   19  H   UNK N   1      34.546  14.082   1.978  0.00  0.00     0.217 HD
ENDBRANCH  14  18
BRANCH  17  20
HETATM   20  O   UNK N   1      31.492  18.261   4.048  0.00  0.00    -0.360 OA
HETATM   21  H   UNK N   1      30.977  18.400   3.278  0.00  0.00     0.217 HD
ENDBRANCH  17  20
ENDBRANCH  10  11
BRANCH   6  22
HETATM   22  O   UNK N   1      27.478  17.991   9.369  0.00  0.00    -0.361 OA
HETATM   23  H   UNK N   1      26.852  17.304   9.484  0.00  0.00     0.217 HD
ENDBRANCH   6  22
TORSDOF 4
ENDMDL
MODEL 7
REMARK VINA RESULT:      -6.2      5.005      7.911
REMARK  4 active torsions:
REMARK  status: ('A' for Active; 'I' for Inactive)
REMARK    1  A    between atoms: C_6  and  O_7 
REMARK    2  A    between atoms: C_11  and  C_12 
REMARK    3  A    between atoms: C_15  and  O_19 
REMARK    4  A    between atoms: C_17  and  O_18 
ROOT
HETATM    1  C   UNK N   1      25.988  18.420   4.263  0.00  0.00     0.037 A 
HETATM    2  C   UNK N   1      24.610  18.148   4.329  0.00  0.00     0.019 A 
HETATM    3  C   UNK N   1      23.738  19.089   3.785  0.00  0.00     0.029 A 
HETATM    4  C   UNK N   1      24.185  20.237   3.207  0.00  0.00     0.114 A 
HETATM    5  C   UNK N   1      25.540  20.542   3.122  0.00  0.00     0.076 A 
HETATM    6  C   UNK N   1      26.453  19.611   3.662  0.00  0.00     0.068 A 
HETATM    7  O   UNK N   1      23.154  20.930   2.785  0.00  0.00    -0.237 OA
HETATM    8  N   UNK N   1      22.039  20.299   3.054  0.00  0.00    -0.259 N 
ATOM      9  HN  UNK N   1      21.096  20.620   2.833  1.00  0.00     0.195 HD
HETATM   10  C   UNK N   1      22.365  19.141   3.682  0.00  0.00     0.081 A 
ENDROOT
BRANCH  10  11
HETATM   11  C   UNK N   1      21.403  18.120   4.165  0.00  0.00     0.028 A 
HETATM   12  C   UNK N   1      21.374  17.823   5.533  0.00  0.00     0.038 A 
HETATM   13  C   UNK N   1      20.495  16.877   6.049  0.00  0.00     0.045 A 
HETATM   14  C   UNK N   1      19.619  16.203   5.192  0.00  0.00     0.085 A 
HETATM   15 Br   UNK N   1      20.516  16.528   7.928  0.00  0.00    -0.048 Br
HETATM   16  C   UNK N   1      19.633  16.484   3.822  0.00  0.00     0.075 A 
HETATM   17  C   UNK N   1      20.517  17.438   3.301  0.00  0.00     0.081 A 
BRANCH  14  18
HETATM   18  O   UNK N   1      18.766  15.286   5.677  0.00  0.00    -0.359 OA
HETATM   19  H   UNK N   1      19.076  14.613   6.250  0.00  0.00     0.217 HD
ENDBRANCH  14  18
BRANCH  17  20
HETATM   20  O   UNK N   1      20.507  17.687   1.980  0.00  0.00    -0.360 OA
HETATM   21  H   UNK N   1      21.251  18.085   1.573  0.00  0.00     0.217 HD
ENDBRANCH  17  20
ENDBRANCH  10  11
BRANCH   6  22
HETATM   22  O   UNK N   1      27.771  19.855   3.608  0.00  0.00    -0.361 OA
HETATM   23  H   UNK N   1      28.332  19.556   4.295  0.00  0.00     0.217 HD
ENDBRANCH   6  22
TORSDOF 4
ENDMDL
MODEL 8
REMARK VINA RESULT:      -6.1      3.155      6.689
REMARK  4 active torsions:
REMARK  status: ('A' for Active; 'I' for Inactive)
REMARK    1  A    between atoms: C_6  and  O_7 
REMARK    2  A    between atoms: C_11  and  C_12 
REMARK    3  A    between atoms: C_15  and  O_19 
REMARK    4  A    between atoms: C_17  and  O_18 
ROOT
HETATM    1  C   UNK N   1      34.009  16.485   5.612  0.00  0.00     0.037 A 
HETATM    2  C   UNK N   1      32.772  16.905   6.129  0.00  0.00     0.019 A 
HETATM    3  C   UNK N   1      32.433  16.488   7.415  0.00  0.00     0.029 A 
HETATM    4  C   UNK N   1      33.258  15.702   8.159  0.00  0.00     0.114 A 
HETATM    5  C   UNK N   1      34.490  15.265   7.682  0.00  0.00     0.076 A 
HETATM    6  C   UNK N   1      34.867  15.668   6.383  0.00  0.00     0.068 A 
HETATM    7  O   UNK N   1      32.690  15.467   9.318  0.00  0.00    -0.237 OA
HETATM    8  N   UNK N   1      31.524  16.059   9.384  0.00  0.00    -0.259 N 
ATOM      9  HN  UNK N   1      30.880  16.036  10.175  1.00  0.00     0.195 HD
HETATM   10  C   UNK N   1      31.329  16.710   8.209  0.00  0.00     0.081 A 
ENDROOT
BRANCH  10  11
HETATM   11  C   UNK N   1      30.132  17.513   7.855  0.00  0.00     0.028 A 
HETATM   12  C   UNK N   1      29.633  17.429   6.550  0.00  0.00     0.038 A 
HETATM   13  C   UNK N   1      28.515  18.157   6.155  0.00  0.00     0.045 A 
HETATM   14  C   UNK N   1      27.870  18.991   7.074  0.00  0.00     0.085 A 
HETATM   15 Br   UNK N   1      27.895  17.989   4.356  0.00  0.00    -0.048 Br
HETATM   16  C   UNK N   1      28.353  19.088   8.383  0.00  0.00     0.075 A 
HETATM   17  C   UNK N   1      29.479  18.356   8.781  0.00  0.00     0.081 A 
BRANCH  14  18
HETATM   18  O   UNK N   1      26.790  19.699   6.707  0.00  0.00    -0.359 OA
HETATM   19  H   UNK N   1      26.304  20.180   7.349  0.00  0.00     0.217 HD
ENDBRANCH  14  18
BRANCH  17  20
HETATM   20  O   UNK N   1      29.921  18.470  10.047  0.00  0.00    -0.360 OA
HETATM   21  H   UNK N   1      30.830  18.623  10.214  0.00  0.00     0.217 HD
ENDBRANCH  17  20
ENDBRANCH  10  11
BRANCH   6  22
HETATM   22  O   UNK N   1      36.044  15.276   5.874  0.00  0.00    -0.361 OA
HETATM   23  H   UNK N   1      36.373  14.419   6.061  0.00  0.00     0.217 HD
ENDBRANCH   6  22
TORSDOF 4
ENDMDL
MODEL 9
REMARK VINA RESULT:      -6.1     11.100     13.137
REMARK  4 active torsions:
REMARK  status: ('A' for Active; 'I' for Inactive)
REMARK    1  A    between atoms: C_6  and  O_7 
REMARK    2  A    between atoms: C_11  and  C_12 
REMARK    3  A    between atoms: C_15  and  O_19 
REMARK    4  A    between atoms: C_17  and  O_18 
ROOT
HETATM    1  C   UNK N   1      31.403  20.352  -4.990  0.00  0.00     0.037 A 
HETATM    2  C   UNK N   1      30.391  21.327  -5.022  0.00  0.00     0.019 A 
HETATM    3  C   UNK N   1      30.358  22.259  -3.987  0.00  0.00     0.029 A 
HETATM    4  C   UNK N   1      31.264  22.243  -2.972  0.00  0.00     0.114 A 
HETATM    5  C   UNK N   1      32.280  21.294  -2.905  0.00  0.00     0.076 A 
HETATM    6  C   UNK N   1      32.345  20.334  -3.937  0.00  0.00     0.068 A 
HETATM    7  O   UNK N   1      30.996  23.226  -2.146  0.00  0.00    -0.237 OA
HETATM    8  N   UNK N   1      29.952  23.899  -2.561  0.00  0.00    -0.259 N 
ATOM      9  HN  UNK N   1      29.536  24.710  -2.102  1.00  0.00     0.195 HD
HETATM   10  C   UNK N   1      29.525  23.322  -3.713  0.00  0.00     0.081 A 
ENDROOT
BRANCH  10  11
HETATM   11  C   UNK N   1      28.364  23.768  -4.523  0.00  0.00     0.028 A 
HETATM   12  C   UNK N   1      28.525  23.897  -5.908  0.00  0.00     0.038 A 
HETATM   13  C   UNK N   1      27.477  24.310  -6.722  0.00  0.00     0.045 A 
HETATM   14  C   UNK N   1      26.233  24.606  -6.155  0.00  0.00     0.085 A 
HETATM   15 Br   UNK N   1      27.776  24.461  -8.603  0.00  0.00    -0.048 Br
HETATM   16  C   UNK N   1      26.051  24.484  -4.774  0.00  0.00     0.075 A 
HETATM   17  C   UNK N   1      27.107  24.068  -3.953  0.00  0.00     0.081 A 
BRANCH  14  18
HETATM   18  O   UNK N   1      25.212  25.007  -6.930  0.00  0.00    -0.359 OA
HETATM   19  H   UNK N   1      24.330  24.940  -6.616  0.00  0.00     0.217 HD
ENDBRANCH  14  18
BRANCH  17  20
HETATM   20  O   UNK N   1      26.902  23.960  -2.628  0.00  0.00    -0.360 OA
HETATM   21  H   UNK N   1      26.623  24.706  -2.135  0.00  0.00     0.217 HD
ENDBRANCH  17  20
ENDBRANCH  10  11
BRANCH   6  22
HETATM   22  O   UNK N   1      33.304  19.396  -3.922  0.00  0.00    -0.361 OA
HETATM   23  H   UNK N   1      33.878  19.301  -4.657  0.00  0.00     0.217 HD
ENDBRANCH   6  22
TORSDOF 4
ENDMDL
