REMARK  4 active torsions:
REMARK  status: ('A' for Active; 'I' for Inactive)
REMARK    1  A    between atoms: C_6  and  O_7 
REMARK    2  A    between atoms: C_11  and  C_12 
REMARK    3  A    between atoms: C_15  and  O_19 
REMARK    4  A    between atoms: C_17  and  O_18 
ROOT
HETATM    1  C   UNK N   1       3.692   1.359  -0.000  0.00  0.00     0.037 A 
HETATM    2  C   UNK N   1       2.498   0.618   0.000  0.00  0.00     0.019 A 
HETATM    3  C   UNK N   1       1.297   1.326   0.000  0.00  0.00     0.029 A 
HETATM    4  C   UNK N   1       1.262   2.686   0.000  0.00  0.00     0.114 A 
HETATM    5  C   UNK N   1       2.422   3.455   0.000  0.00  0.00     0.076 A 
HETATM    6  C   UNK N   1       3.657   2.772   0.000  0.00  0.00     0.068 A 
HETATM    7  O   UNK N   1       0.010   3.079   0.000  0.00  0.00    -0.237 OA
HETATM    8  N   UNK N   1      -0.793   2.045   0.000  0.00  0.00    -0.259 N 
ATOM      9  HN  UNK N   1      -1.813   2.074   0.000  1.00  0.00     0.195 HD
HETATM   10  C   UNK N   1      -0.022   0.928   0.000  0.00  0.00     0.081 A 
ENDROOT
BRANCH  10  11
HETATM   11  C   UNK N   1      -0.525  -0.468   0.000  0.00  0.00     0.028 A 
HETATM   12  C   UNK N   1       0.406  -1.514  -0.000  0.00  0.00     0.038 A 
HETATM   13  C   UNK N   1      -0.001  -2.844  -0.000  0.00  0.00     0.045 A 
HETATM   14  C   UNK N   1      -1.365  -3.152  -0.000  0.00  0.00     0.085 A 
HETATM   15 Br   UNK N   1       1.331  -4.214  -0.000  0.00  0.00    -0.048 Br
HETATM   16  C   UNK N   1      -2.311  -2.122   0.000  0.00  0.00     0.075 A 
HETATM   17  C   UNK N   1      -1.902  -0.782   0.000  0.00  0.00     0.081 A 
BRANCH  14  18
HETATM   18  O   UNK N   1      -1.772  -4.432  -0.000  0.00  0.00    -0.359 OA
HETATM   19  H   UNK N   1      -2.688  -4.633  -0.000  0.00  0.00     0.217 HD
ENDBRANCH  14  18
BRANCH  17  20
HETATM   20  O   UNK N   1      -2.835   0.187   0.000  0.00  0.00    -0.360 OA
HETATM   21  H   UNK N   1      -2.575   1.087   0.000  0.00  0.00     0.217 HD
ENDBRANCH  17  20
ENDBRANCH  10  11
BRANCH   6  22
HETATM   22  O   UNK N   1       4.806   3.464  -0.000  0.00  0.00    -0.361 OA
HETATM   23  H   UNK N   1       5.626   3.011  -0.000  0.00  0.00     0.217 HD
ENDBRANCH   6  22
TORSDOF 4
