REMARK  1 active torsions:
REMARK  status: ('A' for Active; 'I' for Inactive)
REMARK    1  A    between atoms: C_8  and  C_18 
ROOT
HETATM    1  C   UNK N   1      -1.620   1.124   0.000  0.00  0.00     0.112 A 
HETATM    2  C   UNK N   1      -1.507   2.440  -0.000  0.00  0.00     0.111 A 
HETATM    3  C   UNK N   1      -0.526   0.281   0.000  0.00  0.00     0.051 A 
HETATM    4  C   UNK N   1      -0.265   3.079  -0.000  0.00  0.00     0.041 A 
HETATM    5  C   UNK N   1      -3.698   1.948  -0.000  0.00  0.00     0.498 A 
HETATM    6  C   UNK N   1       0.760   0.848   0.000  0.00  0.00    -0.032 A 
HETATM    7  C   UNK N   1       0.889   2.261  -0.000  0.00  0.00     0.014 A 
HETATM    8  O   UNK N   1      -2.903   0.793   0.000  0.00  0.00    -0.256 OA
HETATM    9  O   UNK N   1      -2.727   2.971  -0.000  0.00  0.00    -0.256 OA
HETATM   10  F   UNK N   1      -4.859   1.198  -0.000  0.00  0.00    -0.147 F 
HETATM   11  F   UNK N   1      -4.756   2.836   0.000  0.00  0.00    -0.147 F 
ENDROOT
BRANCH   6  12
HETATM   12  C   UNK N   1       1.975  -0.003   0.000  0.00  0.00     0.036 C 
HETATM   13  C   UNK N   1       1.999  -1.355   0.000  0.00  0.00     0.079 A 
HETATM   14  C   UNK N   1       3.235  -2.126   0.000  0.00  0.00     0.266 A 
HETATM   15  S   UNK N   1       0.558  -2.451   0.000  0.00  0.00    -0.024 SA
HETATM   16  N   UNK N   1       3.053  -3.452  -0.000  0.00  0.00    -0.283 N 
HETATM   17  O   UNK N   1       4.352  -1.628   0.000  0.00  0.00    -0.267 OA
HETATM   18  C   UNK N   1       1.750  -3.799  -0.000  0.00  0.00     0.291 A 
HETATM   19  H   UNK N   1       3.790  -4.104  -0.000  0.00  0.00     0.172 HD
HETATM   20  O   UNK N   1       1.403  -4.968  -0.000  0.00  0.00    -0.260 OA
ENDBRANCH   6  12
TORSDOF 1
