MODEL 1
REMARK VINA RESULT:      -7.1      0.000      0.000
REMARK  1 active torsions:
REMARK  status: ('A' for Active; 'I' for Inactive)
REMARK    1  A    between atoms: C_8  and  C_18 
ROOT
HETATM    1  C   UNK N   1      30.630  22.401  -3.956  0.00  0.00     0.112 A 
HETATM    2  C   UNK N   1      30.508  22.513  -2.645  0.00  0.00     0.111 A 
HETATM    3  C   UNK N   1      29.657  22.833  -4.835  0.00  0.00     0.051 A 
HETATM    4  C   UNK N   1      29.380  23.081  -2.050  0.00  0.00     0.041 A 
HETATM    5  C   UNK N   1      32.490  21.543  -3.061  0.00  0.00     0.498 A 
HETATM    6  C   UNK N   1      28.489  23.416  -4.313  0.00  0.00    -0.032 A 
HETATM    7  C   UNK N   1      28.352  23.540  -2.906  0.00  0.00     0.014 A 
HETATM    8  O   UNK N   1      31.791  21.830  -4.242  0.00  0.00    -0.256 OA
HETATM    9  O   UNK N   1      31.600  22.012  -2.073  0.00  0.00    -0.256 OA
HETATM   10  F   UNK N   1      33.548  21.005  -3.770  0.00  0.00    -0.147 F 
HETATM   11  F   UNK N   1      33.430  21.128  -2.138  0.00  0.00    -0.147 F 
ENDROOT
BRANCH   6  12
HETATM   12  C   UNK N   1      27.407  23.900  -5.205  0.00  0.00     0.036 C 
HETATM   13  C   UNK N   1      26.748  25.075  -5.090  0.00  0.00     0.079 A 
HETATM   14  C   UNK N   1      25.692  25.484  -6.007  0.00  0.00     0.266 A 
HETATM   15  S   UNK N   1      27.025  26.338  -3.824  0.00  0.00    -0.024 SA
HETATM   16  N   UNK N   1      25.160  26.680  -5.729  0.00  0.00    -0.283 N 
HETATM   17  O   UNK N   1      25.309  24.812  -6.953  0.00  0.00    -0.267 OA
HETATM   18  C   UNK N   1      25.718  27.261  -4.647  0.00  0.00     0.291 A 
HETATM   19  H   UNK N   1      24.438  27.092  -6.256  0.00  0.00     0.172 HD
HETATM   20  O   UNK N   1      25.353  28.355  -4.253  0.00  0.00    -0.260 OA
ENDBRANCH   6  12
TORSDOF 1
ENDMDL
MODEL 2
REMARK VINA RESULT:      -7.0     10.513     12.687
REMARK  1 active torsions:
REMARK  status: ('A' for Active; 'I' for Inactive)
REMARK    1  A    between atoms: C_8  and  C_18 
ROOT
HETATM    1  C   UNK N   1      24.430  19.234   3.724  0.00  0.00     0.112 A 
HETATM    2  C   UNK N   1      24.771  20.359   3.121  0.00  0.00     0.111 A 
HETATM    3  C   UNK N   1      25.357  18.377   4.283  0.00  0.00     0.051 A 
HETATM    4  C   UNK N   1      26.102  20.767   3.006  0.00  0.00     0.041 A 
HETATM    5  C   UNK N   1      22.534  20.190   3.026  0.00  0.00     0.498 A 
HETATM    6  C   UNK N   1      26.719  18.717   4.208  0.00  0.00    -0.032 A 
HETATM    7  C   UNK N   1      27.092  19.924   3.563  0.00  0.00     0.014 A 
HETATM    8  O   UNK N   1      23.113  19.098   3.688  0.00  0.00    -0.256 OA
HETATM    9  O   UNK N   1      23.666  20.962   2.690  0.00  0.00    -0.256 OA
HETATM   10  F   UNK N   1      21.263  19.677   3.206  0.00  0.00    -0.147 F 
HETATM   11  F   UNK N   1      21.650  21.082   2.451  0.00  0.00    -0.147 F 
ENDROOT
BRANCH   6  12
HETATM   12  C   UNK N   1      27.763  17.838   4.789  0.00  0.00     0.036 C 
HETATM   13  C   UNK N   1      28.312  17.961   6.019  0.00  0.00     0.079 A 
HETATM   14  C   UNK N   1      29.337  17.058   6.524  0.00  0.00     0.266 A 
HETATM   15  S   UNK N   1      27.905  19.224   7.251  0.00  0.00    -0.024 SA
HETATM   16  N   UNK N   1      29.755  17.342   7.763  0.00  0.00    -0.283 N 
HETATM   17  O   UNK N   1      29.791  16.116   5.890  0.00  0.00    -0.267 OA
HETATM   18  C   UNK N   1      29.132  18.417   8.290  0.00  0.00     0.291 A 
HETATM   19  H   UNK N   1      30.442  16.824   8.240  0.00  0.00     0.172 HD
HETATM   20  O   UNK N   1      29.392  18.816   9.412  0.00  0.00    -0.260 OA
ENDBRANCH   6  12
TORSDOF 1
ENDMDL
MODEL 3
REMARK VINA RESULT:      -7.0     12.121     14.817
REMARK  1 active torsions:
REMARK  status: ('A' for Active; 'I' for Inactive)
REMARK    1  A    between atoms: C_8  and  C_18 
ROOT
HETATM    1  C   UNK N   1      28.452  18.828   6.998  0.00  0.00     0.112 A 
HETATM    2  C   UNK N   1      28.388  18.854   5.679  0.00  0.00     0.111 A 
HETATM    3  C   UNK N   1      29.268  17.953   7.689  0.00  0.00     0.051 A 
HETATM    4  C   UNK N   1      29.146  17.993   4.882  0.00  0.00     0.041 A 
HETATM    5  C   UNK N   1      26.984  20.424   6.457  0.00  0.00     0.498 A 
HETATM    6  C   UNK N   1      30.063  17.055   6.957  0.00  0.00    -0.032 A 
HETATM    7  C   UNK N   1      29.999  17.077   5.539  0.00  0.00     0.014 A 
HETATM    8  O   UNK N   1      27.635  19.744   7.496  0.00  0.00    -0.256 OA
HETATM    9  O   UNK N   1      27.521  19.795   5.315  0.00  0.00    -0.256 OA
HETATM   10  F   UNK N   1      26.292  21.216   7.354  0.00  0.00    -0.147 F 
HETATM   11  F   UNK N   1      26.187  21.276   5.717  0.00  0.00    -0.147 F 
ENDROOT
BRANCH   6  12
HETATM   12  C   UNK N   1      30.960  16.090   7.639  0.00  0.00     0.036 C 
HETATM   13  C   UNK N   1      32.155  16.378   8.202  0.00  0.00     0.079 A 
HETATM   14  C   UNK N   1      32.985  15.375   8.858  0.00  0.00     0.266 A 
HETATM   15  S   UNK N   1      32.948  18.005   8.260  0.00  0.00    -0.024 SA
HETATM   16  N   UNK N   1      34.132  15.854   9.354  0.00  0.00    -0.283 N 
HETATM   17  O   UNK N   1      32.681  14.195   8.958  0.00  0.00    -0.267 OA
HETATM   18  C   UNK N   1      34.280  17.177   9.141  0.00  0.00     0.291 A 
HETATM   19  H   UNK N   1      34.796  15.300   9.824  0.00  0.00     0.172 HD
HETATM   20  O   UNK N   1      35.269  17.776   9.528  0.00  0.00    -0.260 OA
ENDBRANCH   6  12
TORSDOF 1
ENDMDL
MODEL 4
REMARK VINA RESULT:      -7.0     16.480     18.903
REMARK  1 active torsions:
REMARK  status: ('A' for Active; 'I' for Inactive)
REMARK    1  A    between atoms: C_8  and  C_18 
ROOT
HETATM    1  C   UNK N   1      36.109  14.362  12.893  0.00  0.00     0.112 A 
HETATM    2  C   UNK N   1      36.792  13.370  12.352  0.00  0.00     0.111 A 
HETATM    3  C   UNK N   1      35.721  15.478  12.178  0.00  0.00     0.051 A 
HETATM    4  C   UNK N   1      37.175  13.377  11.009  0.00  0.00     0.041 A 
HETATM    5  C   UNK N   1      36.444  12.855  14.510  0.00  0.00     0.498 A 
HETATM    6  C   UNK N   1      36.069  15.561  10.819  0.00  0.00    -0.032 A 
HETATM    7  C   UNK N   1      36.803  14.498  10.231  0.00  0.00     0.014 A 
HETATM    8  O   UNK N   1      35.883  14.094  14.171  0.00  0.00    -0.256 OA
HETATM    9  O   UNK N   1      37.014  12.448  13.286  0.00  0.00    -0.256 OA
HETATM   10  F   UNK N   1      36.007  12.969  15.816  0.00  0.00    -0.147 F 
HETATM   11  F   UNK N   1      36.857  11.718  15.177  0.00  0.00    -0.147 F 
ENDROOT
BRANCH   6  12
HETATM   12  C   UNK N   1      35.682  16.733   9.997  0.00  0.00     0.036 C 
HETATM   13  C   UNK N   1      34.558  16.847   9.253  0.00  0.00     0.079 A 
HETATM   14  C   UNK N   1      34.244  18.033   8.468  0.00  0.00     0.266 A 
HETATM   15  S   UNK N   1      33.257  15.600   9.082  0.00  0.00    -0.024 SA
HETATM   16  N   UNK N   1      33.087  17.957   7.800  0.00  0.00    -0.283 N 
HETATM   17  O   UNK N   1      34.959  19.024   8.409  0.00  0.00    -0.267 OA
HETATM   18  C   UNK N   1      32.449  16.785   7.996  0.00  0.00     0.291 A 
HETATM   19  H   UNK N   1      32.739  18.677   7.227  0.00  0.00     0.172 HD
HETATM   20  O   UNK N   1      31.379  16.547   7.462  0.00  0.00    -0.260 OA
ENDBRANCH   6  12
TORSDOF 1
ENDMDL
MODEL 5
REMARK VINA RESULT:      -6.9     14.320     15.244
REMARK  1 active torsions:
REMARK  status: ('A' for Active; 'I' for Inactive)
REMARK    1  A    between atoms: C_8  and  C_18 
ROOT
HETATM    1  C   UNK N   1      20.638  15.768   7.870  0.00  0.00     0.112 A 
HETATM    2  C   UNK N   1      21.746  15.051   7.811  0.00  0.00     0.111 A 
HETATM    3  C   UNK N   1      20.404  16.849   7.043  0.00  0.00     0.051 A 
HETATM    4  C   UNK N   1      22.768  15.335   6.902  0.00  0.00     0.041 A 
HETATM    5  C   UNK N   1      20.456  14.174   9.426  0.00  0.00     0.498 A 
HETATM    6  C   UNK N   1      21.386  17.199   6.100  0.00  0.00    -0.032 A 
HETATM    7  C   UNK N   1      22.578  16.433   6.031  0.00  0.00     0.014 A 
HETATM    8  O   UNK N   1      19.848  15.280   8.815  0.00  0.00    -0.256 OA
HETATM    9  O   UNK N   1      21.677  14.087   8.726  0.00  0.00    -0.256 OA
HETATM   10  F   UNK N   1      19.378  13.999  10.273  0.00  0.00    -0.147 F 
HETATM   11  F   UNK N   1      20.741  13.086  10.228  0.00  0.00    -0.147 F 
ENDROOT
BRANCH   6  12
HETATM   12  C   UNK N   1      21.195  18.349   5.182  0.00  0.00     0.036 C 
HETATM   13  C   UNK N   1      20.868  18.276   3.872  0.00  0.00     0.079 A 
HETATM   14  C   UNK N   1      20.696  19.453   3.031  0.00  0.00     0.266 A 
HETATM   15  S   UNK N   1      20.585  16.760   2.923  0.00  0.00    -0.024 SA
HETATM   16  N   UNK N   1      20.373  19.176   1.762  0.00  0.00    -0.283 N 
HETATM   17  O   UNK N   1      20.831  20.602   3.427  0.00  0.00    -0.267 OA
HETATM   18  C   UNK N   1      20.273  17.852   1.527  0.00  0.00     0.291 A 
HETATM   19  H   UNK N   1      20.224  19.864   1.074  0.00  0.00     0.172 HD
HETATM   20  O   UNK N   1      19.986  17.422   0.423  0.00  0.00    -0.260 OA
ENDBRANCH   6  12
TORSDOF 1
ENDMDL
MODEL 6
REMARK VINA RESULT:      -6.9     12.889     15.742
REMARK  1 active torsions:
REMARK  status: ('A' for Active; 'I' for Inactive)
REMARK    1  A    between atoms: C_8  and  C_18 
ROOT
HETATM    1  C   UNK N   1      30.669  17.133   6.376  0.00  0.00     0.112 A 
HETATM    2  C   UNK N   1      31.063  17.088   5.117  0.00  0.00     0.111 A 
HETATM    3  C   UNK N   1      31.550  17.281   7.429  0.00  0.00     0.051 A 
HETATM    4  C   UNK N   1      32.409  17.188   4.755  0.00  0.00     0.041 A 
HETATM    5  C   UNK N   1      28.827  16.885   5.134  0.00  0.00     0.498 A 
HETATM    6  C   UNK N   1      32.923  17.388   7.148  0.00  0.00    -0.032 A 
HETATM    7  C   UNK N   1      33.354  17.341   5.797  0.00  0.00     0.014 A 
HETATM    8  O   UNK N   1      29.350  17.016   6.428  0.00  0.00    -0.256 OA
HETATM    9  O   UNK N   1      29.992  16.940   4.341  0.00  0.00    -0.256 OA
HETATM   10  F   UNK N   1      27.536  16.798   5.620  0.00  0.00    -0.147 F 
HETATM   11  F   UNK N   1      27.990  16.739   4.044  0.00  0.00    -0.147 F 
ENDROOT
BRANCH   6  12
HETATM   12  C   UNK N   1      33.920  17.548   8.234  0.00  0.00     0.036 C 
HETATM   13  C   UNK N   1      34.154  16.670   9.235  0.00  0.00     0.079 A 
HETATM   14  C   UNK N   1      35.153  16.896  10.271  0.00  0.00     0.266 A 
HETATM   15  S   UNK N   1      33.310  15.088   9.490  0.00  0.00    -0.024 SA
HETATM   16  N   UNK N   1      35.237  15.911  11.174  0.00  0.00    -0.283 N 
HETATM   17  O   UNK N   1      35.864  17.889  10.331  0.00  0.00    -0.267 OA
HETATM   18  C   UNK N   1      34.371  14.907  10.933  0.00  0.00     0.291 A 
HETATM   19  H   UNK N   1      35.864  15.919  11.933  0.00  0.00     0.172 HD
HETATM   20  O   UNK N   1      34.313  13.928  11.658  0.00  0.00    -0.260 OA
ENDBRANCH   6  12
TORSDOF 1
ENDMDL
MODEL 7
REMARK VINA RESULT:      -6.8      1.763      2.560
REMARK  1 active torsions:
REMARK  status: ('A' for Active; 'I' for Inactive)
REMARK    1  A    between atoms: C_8  and  C_18 
ROOT
HETATM    1  C   UNK N   1      30.556  23.008  -3.928  0.00  0.00     0.112 A 
HETATM    2  C   UNK N   1      30.248  22.678  -2.687  0.00  0.00     0.111 A 
HETATM    3  C   UNK N   1      29.696  23.711  -4.749  0.00  0.00     0.051 A 
HETATM    4  C   UNK N   1      29.022  23.018  -2.110  0.00  0.00     0.041 A 
HETATM    5  C   UNK N   1      32.311  21.895  -3.104  0.00  0.00     0.498 A 
HETATM    6  C   UNK N   1      28.442  24.090  -4.242  0.00  0.00    -0.032 A 
HETATM    7  C   UNK N   1      28.104  23.740  -2.909  0.00  0.00     0.014 A 
HETATM    8  O   UNK N   1      31.771  22.562  -4.213  0.00  0.00    -0.256 OA
HETATM    9  O   UNK N   1      31.271  22.011  -2.158  0.00  0.00    -0.256 OA
HETATM   10  F   UNK N   1      33.481  21.621  -3.787  0.00  0.00    -0.147 F 
HETATM   11  F   UNK N   1      33.131  21.194  -2.241  0.00  0.00    -0.147 F 
ENDROOT
BRANCH   6  12
HETATM   12  C   UNK N   1      27.474  24.847  -5.073  0.00  0.00     0.036 C 
HETATM   13  C   UNK N   1      26.796  24.366  -6.139  0.00  0.00     0.079 A 
HETATM   14  C   UNK N   1      25.857  25.171  -6.910  0.00  0.00     0.266 A 
HETATM   15  S   UNK N   1      26.905  22.688  -6.810  0.00  0.00    -0.024 SA
HETATM   16  N   UNK N   1      25.285  24.518  -7.929  0.00  0.00    -0.283 N 
HETATM   17  O   UNK N   1      25.599  26.341  -6.667  0.00  0.00    -0.267 OA
HETATM   18  C   UNK N   1      25.702  23.240  -8.029  0.00  0.00     0.291 A 
HETATM   19  H   UNK N   1      24.631  24.926  -8.540  0.00  0.00     0.172 HD
HETATM   20  O   UNK N   1      25.282  22.500  -8.902  0.00  0.00    -0.260 OA
ENDBRANCH   6  12
TORSDOF 1
ENDMDL
MODEL 8
REMARK VINA RESULT:      -6.8     14.505     17.556
REMARK  1 active torsions:
REMARK  status: ('A' for Active; 'I' for Inactive)
REMARK    1  A    between atoms: C_8  and  C_18 
ROOT
HETATM    1  C   UNK N   1      33.573  16.143   6.817  0.00  0.00     0.112 A 
HETATM    2  C   UNK N   1      33.865  17.430   6.785  0.00  0.00     0.111 A 
HETATM    3  C   UNK N   1      33.712  15.374   7.956  0.00  0.00     0.051 A 
HETATM    4  C   UNK N   1      34.338  18.113   7.908  0.00  0.00     0.041 A 
HETATM    5  C   UNK N   1      33.157  16.845   4.736  0.00  0.00     0.498 A 
HETATM    6  C   UNK N   1      34.183  15.989   9.129  0.00  0.00    -0.032 A 
HETATM    7  C   UNK N   1      34.498  17.372   9.102  0.00  0.00     0.014 A 
HETATM    8  O   UNK N   1      33.150  15.758   5.622  0.00  0.00    -0.256 OA
HETATM    9  O   UNK N   1      33.630  17.889   5.558  0.00  0.00    -0.256 OA
HETATM   10  F   UNK N   1      32.684  16.058   3.703  0.00  0.00    -0.147 F 
HETATM   11  F   UNK N   1      33.037  17.659   3.627  0.00  0.00    -0.147 F 
ENDROOT
BRANCH   6  12
HETATM   12  C   UNK N   1      34.354  15.219  10.385  0.00  0.00     0.036 C 
HETATM   13  C   UNK N   1      35.430  14.471  10.720  0.00  0.00     0.079 A 
HETATM   14  C   UNK N   1      35.527  13.739  11.976  0.00  0.00     0.266 A 
HETATM   15  S   UNK N   1      36.918  14.230   9.718  0.00  0.00    -0.024 SA
HETATM   16  N   UNK N   1      36.669  13.057  12.125  0.00  0.00    -0.283 N 
HETATM   17  O   UNK N   1      34.656  13.734  12.834  0.00  0.00    -0.267 OA
HETATM   18  C   UNK N   1      37.498  13.193  11.070  0.00  0.00     0.291 A 
HETATM   19  H   UNK N   1      36.882  12.516  12.918  0.00  0.00     0.172 HD
HETATM   20  O   UNK N   1      38.584  12.638  11.038  0.00  0.00    -0.260 OA
ENDBRANCH   6  12
TORSDOF 1
ENDMDL
MODEL 9
REMARK VINA RESULT:      -6.7      4.544      7.260
REMARK  1 active torsions:
REMARK  status: ('A' for Active; 'I' for Inactive)
REMARK    1  A    between atoms: C_8  and  C_18 
ROOT
HETATM    1  C   UNK N   1      27.499  25.225  -6.780  0.00  0.00     0.112 A 
HETATM    2  C   UNK N   1      26.201  25.070  -6.592  0.00  0.00     0.111 A 
HETATM    3  C   UNK N   1      28.441  24.820  -5.855  0.00  0.00     0.051 A 
HETATM    4  C   UNK N   1      25.683  24.481  -5.437  0.00  0.00     0.041 A 
HETATM    5  C   UNK N   1      26.483  26.058  -8.589  0.00  0.00     0.498 A 
HETATM    6  C   UNK N   1      27.998  24.217  -4.664  0.00  0.00    -0.032 A 
HETATM    7  C   UNK N   1      26.605  24.047  -4.456  0.00  0.00     0.014 A 
HETATM    8  O   UNK N   1      27.707  25.807  -7.952  0.00  0.00    -0.256 OA
HETATM    9  O   UNK N   1      25.557  25.555  -7.651  0.00  0.00    -0.256 OA
HETATM   10  F   UNK N   1      27.119  26.621  -9.679  0.00  0.00    -0.147 F 
HETATM   11  F   UNK N   1      25.500  26.444  -9.479  0.00  0.00    -0.147 F 
ENDROOT
BRANCH   6  12
HETATM   12  C   UNK N   1      28.960  23.760  -3.631  0.00  0.00     0.036 C 
HETATM   13  C   UNK N   1      29.811  22.716  -3.743  0.00  0.00     0.079 A 
HETATM   14  C   UNK N   1      30.730  22.324  -2.683  0.00  0.00     0.266 A 
HETATM   15  S   UNK N   1      29.983  21.625  -5.178  0.00  0.00    -0.024 SA
HETATM   16  N   UNK N   1      31.492  21.265  -2.982  0.00  0.00    -0.283 N 
HETATM   17  O   UNK N   1      30.815  22.897  -1.606  0.00  0.00    -0.267 OA
HETATM   18  C   UNK N   1      31.246  20.779  -4.215  0.00  0.00     0.291 A 
HETATM   19  H   UNK N   1      32.159  20.883  -2.369  0.00  0.00     0.172 HD
HETATM   20  O   UNK N   1      31.852  19.814  -4.650  0.00  0.00    -0.260 OA
ENDBRANCH   6  12
TORSDOF 1
ENDMDL
