REMARK  10 active torsions:
REMARK  status: ('A' for Active; 'I' for Inactive)
REMARK    1  A    between atoms: C_2  and  C_7 
REMARK    2  A    between atoms: C_3  and  C_5 
REMARK    3  A    between atoms: C_5  and  O_22 
REMARK    4  A    between atoms: C_7  and  N_8 
REMARK    5  A    between atoms: N_8  and  C_9 
REMARK    6  A    between atoms: N_8  and  S_13 
REMARK    7  A    between atoms: C_9  and  C_10 
REMARK    8  A    between atoms: S_13  and  C_16 
REMARK    9  A    between atoms: O_22  and  C_23 
REMARK   10  A    between atoms: C_23  and  C_24 
ROOT
HETATM    1  C   UNK N   1       1.263   0.576   0.819  0.00  0.00     0.120 C 
HETATM    2  C   UNK N   1      -0.233   0.386   0.734  0.00  0.00     0.025 C 
HETATM    3  C   UNK N   1      -0.559   1.057  -0.582  0.00  0.00     0.034 C 
HETATM    4  C   UNK N   1       0.398   2.228  -0.596  0.00  0.00     0.120 C 
HETATM    5  N   UNK N   1       1.593   1.829   0.143  0.00  0.00    -0.420 N 
HETATM    6  H   UNK N   1       2.482   2.327   0.179  0.00  0.00     0.153 HD
ENDROOT
BRANCH   2   7
HETATM    7  C   UNK N   1      -0.694  -1.087   0.842  0.00  0.00     0.114 C 
BRANCH   7   8
HETATM    8  N   UNK N   1      -0.225  -1.932  -0.266  0.00  0.00    -0.206 NA
BRANCH   8   9
HETATM    9  C   UNK N   1      -1.196  -2.966  -0.646  0.00  0.00     0.111 C 
BRANCH   9  10
HETATM   10  C   UNK N   1      -1.427  -4.068   0.392  0.00  0.00    -0.009 C 
HETATM   11  C   UNK N   1      -2.149  -3.557   1.624  0.00  0.00     0.011 C 
HETATM   12  C   UNK N   1      -2.284  -5.145  -0.240  0.00  0.00     0.011 C 
ENDBRANCH   9  10
ENDBRANCH   8   9
BRANCH   8  13
HETATM   13  S   UNK N   1       1.458  -2.518  -0.075  0.00  0.00     0.243 S 
HETATM   14  O   UNK N   1       1.911  -2.035   1.309  0.00  0.00    -0.206 OA
HETATM   15  O   UNK N   1       2.257  -1.550  -0.964  0.00  0.00    -0.206 OA
BRANCH  13  16
HETATM   16  C   UNK N   1       2.146  -4.156  -0.298  0.00  0.00     0.074 A 
HETATM   17  C   UNK N   1       3.515  -4.263  -0.575  0.00  0.00     0.025 A 
HETATM   18  C   UNK N   1       4.127  -5.516  -0.641  0.00  0.00     0.002 A 
HETATM   19  C   UNK N   1       3.372  -6.669  -0.417  0.00  0.00     0.000 A 
HETATM   20  C   UNK N   1       2.005  -6.566  -0.133  0.00  0.00     0.002 A 
HETATM   21  C   UNK N   1       1.394  -5.309  -0.064  0.00  0.00     0.025 A 
ENDBRANCH  13  16
ENDBRANCH   8  13
ENDBRANCH   7   8
ENDBRANCH   2   7
BRANCH   3  22
HETATM   22  C   UNK N   1      -2.018   1.501  -0.708  0.00  0.00     0.174 C 
BRANCH  22  23
HETATM   23  O   UNK N   1      -2.352   2.441   0.280  0.00  0.00    -0.386 OA
BRANCH  23  24
HETATM   24  C   UNK N   1      -2.672   3.611  -0.421  0.00  0.00     0.206 C 
BRANCH  24  25
HETATM   25  C   UNK N   1      -1.758   4.757  -0.084  0.00  0.00    -0.035 A 
HETATM   26  C   UNK N   1      -1.914   5.968  -0.767  0.00  0.00     0.009 A 
HETATM   27  C   UNK N   1      -1.070   7.049  -0.490  0.00  0.00     0.001 A 
HETATM   28  C   UNK N   1      -0.063   6.922   0.471  0.00  0.00     0.000 A 
HETATM   29  C   UNK N   1       0.096   5.717   1.161  0.00  0.00     0.001 A 
HETATM   30  C   UNK N   1      -0.751   4.638   0.887  0.00  0.00     0.009 A 
ENDBRANCH  24  25
ENDBRANCH  23  24
ENDBRANCH  22  23
ENDBRANCH   3  22
TORSDOF 10
