MODEL 1
REMARK VINA RESULT:      -6.0      0.000      0.000
REMARK  10 active torsions:
REMARK  status: ('A' for Active; 'I' for Inactive)
REMARK    1  A    between atoms: C_2  and  C_7 
REMARK    2  A    between atoms: C_3  and  C_5 
REMARK    3  A    between atoms: C_5  and  O_22 
REMARK    4  A    between atoms: C_7  and  N_8 
REMARK    5  A    between atoms: N_8  and  C_9 
REMARK    6  A    between atoms: N_8  and  S_13 
REMARK    7  A    between atoms: C_9  and  C_10 
REMARK    8  A    between atoms: S_13  and  C_16 
REMARK    9  A    between atoms: O_22  and  C_23 
REMARK   10  A    between atoms: C_23  and  C_24 
ROOT
HETATM    1  C   UNK N   1      28.959  20.955  -7.533  0.00  0.00     0.120 C 
HETATM    2  C   UNK N   1      28.589  22.380  -7.197  0.00  0.00     0.025 C 
HETATM    3  C   UNK N   1      27.093  22.376  -7.420  0.00  0.00     0.034 C 
HETATM    4  C   UNK N   1      26.945  21.460  -8.614  0.00  0.00     0.120 C 
HETATM    5  N   UNK N   1      28.028  20.482  -8.556  0.00  0.00    -0.420 N 
HETATM    6  H   UNK N   1      28.117  19.636  -9.118  0.00  0.00     0.153 HD
ENDROOT
BRANCH   2   7
HETATM    7  C   UNK N   1      29.032  22.836  -5.786  0.00  0.00     0.114 C 
BRANCH   7   8
HETATM    8  N   UNK N   1      30.327  23.531  -5.773  0.00  0.00    -0.206 NA
BRANCH   8   9
HETATM    9  C   UNK N   1      31.407  22.716  -5.202  0.00  0.00     0.111 C 
BRANCH   9  10
HETATM   10  C   UNK N   1      30.960  21.603  -4.249  0.00  0.00    -0.009 C 
HETATM   11  C   UNK N   1      31.525  20.250  -4.639  0.00  0.00     0.011 C 
HETATM   12  C   UNK N   1      31.461  21.937  -2.859  0.00  0.00     0.011 C 
ENDBRANCH   9  10
ENDBRANCH   8   9
BRANCH   8  13
HETATM   13  S   UNK N   1      30.248  25.211  -5.154  0.00  0.00     0.243 S 
HETATM   14  O   UNK N   1      31.699  25.614  -4.860  0.00  0.00    -0.206 OA
HETATM   15  O   UNK N   1      29.735  25.019  -3.716  0.00  0.00    -0.206 OA
BRANCH  13  16
HETATM   16  C   UNK N   1      29.440  26.658  -5.831  0.00  0.00     0.074 A 
HETATM   17  C   UNK N   1      28.663  26.498  -6.986  0.00  0.00     0.025 A 
HETATM   18  C   UNK N   1      27.917  27.565  -7.489  0.00  0.00     0.002 A 
HETATM   19  C   UNK N   1      27.935  28.796  -6.830  0.00  0.00     0.000 A 
HETATM   20  C   UNK N   1      28.704  28.958  -5.671  0.00  0.00     0.002 A 
HETATM   21  C   UNK N   1      29.449  27.886  -5.167  0.00  0.00     0.025 A 
ENDBRANCH  13  16
ENDBRANCH   8  13
ENDBRANCH   7   8
ENDBRANCH   2   7
BRANCH   3  22
HETATM   22  C   UNK N   1      26.500  23.763  -7.679  0.00  0.00     0.174 C 
BRANCH  22  23
HETATM   23  O   UNK N   1      25.325  23.961  -6.935  0.00  0.00    -0.386 OA
BRANCH  23  24
HETATM   24  C   UNK N   1      25.737  23.975  -5.596  0.00  0.00     0.206 C 
BRANCH  24  25
HETATM   25  C   UNK N   1      25.711  25.354  -4.996  0.00  0.00    -0.035 A 
HETATM   26  C   UNK N   1      24.991  26.361  -5.649  0.00  0.00     0.009 A 
HETATM   27  C   UNK N   1      24.960  27.659  -5.127  0.00  0.00     0.001 A 
HETATM   28  C   UNK N   1      25.653  27.956  -3.950  0.00  0.00     0.000 A 
HETATM   29  C   UNK N   1      26.370  26.955  -3.290  0.00  0.00     0.001 A 
HETATM   30  C   UNK N   1      26.397  25.656  -3.809  0.00  0.00     0.009 A 
ENDBRANCH  24  25
ENDBRANCH  23  24
ENDBRANCH  22  23
ENDBRANCH   3  22
TORSDOF 10
ENDMDL
MODEL 2
REMARK VINA RESULT:      -5.9      1.703      3.650
REMARK  10 active torsions:
REMARK  status: ('A' for Active; 'I' for Inactive)
REMARK    1  A    between atoms: C_2  and  C_7 
REMARK    2  A    between atoms: C_3  and  C_5 
REMARK    3  A    between atoms: C_5  and  O_22 
REMARK    4  A    between atoms: C_7  and  N_8 
REMARK    5  A    between atoms: N_8  and  C_9 
REMARK    6  A    between atoms: N_8  and  S_13 
REMARK    7  A    between atoms: C_9  and  C_10 
REMARK    8  A    between atoms: S_13  and  C_16 
REMARK    9  A    between atoms: O_22  and  C_23 
REMARK   10  A    between atoms: C_23  and  C_24 
ROOT
HETATM    1  C   UNK N   1      30.976  21.075  -5.148  0.00  0.00     0.120 C 
HETATM    2  C   UNK N   1      30.155  22.342  -5.208  0.00  0.00     0.025 C 
HETATM    3  C   UNK N   1      30.435  22.960  -3.856  0.00  0.00     0.034 C 
HETATM    4  C   UNK N   1      30.512  21.748  -2.955  0.00  0.00     0.120 C 
HETATM    5  N   UNK N   1      31.015  20.635  -3.755  0.00  0.00    -0.420 N 
HETATM    6  H   UNK N   1      31.332  19.729  -3.409  0.00  0.00     0.153 HD
ENDROOT
BRANCH   2   7
HETATM    7  C   UNK N   1      30.480  23.253  -6.416  0.00  0.00     0.114 C 
BRANCH   7   8
HETATM    8  N   UNK N   1      29.363  23.394  -7.362  0.00  0.00    -0.206 NA
BRANCH   8   9
HETATM    9  C   UNK N   1      29.373  22.371  -8.415  0.00  0.00     0.111 C 
BRANCH   9  10
HETATM   10  C   UNK N   1      28.203  21.384  -8.388  0.00  0.00    -0.009 C 
HETATM   11  C   UNK N   1      28.618  20.011  -7.895  0.00  0.00     0.011 C 
HETATM   12  C   UNK N   1      27.149  21.921  -7.442  0.00  0.00     0.011 C 
ENDBRANCH   9  10
ENDBRANCH   8   9
BRANCH   8  13
HETATM   13  S   UNK N   1      29.110  25.070  -7.946  0.00  0.00     0.243 S 
HETATM   14  O   UNK N   1      28.032  24.971  -9.034  0.00  0.00    -0.206 OA
HETATM   15  O   UNK N   1      30.347  25.312  -8.827  0.00  0.00    -0.206 OA
BRANCH  13  16
HETATM   16  C   UNK N   1      28.786  26.577  -7.036  0.00  0.00     0.074 A 
HETATM   17  C   UNK N   1      29.367  26.719  -5.770  0.00  0.00     0.025 A 
HETATM   18  C   UNK N   1      29.246  27.920  -5.067  0.00  0.00     0.002 A 
HETATM   19  C   UNK N   1      28.551  28.989  -5.636  0.00  0.00     0.000 A 
HETATM   20  C   UNK N   1      27.974  28.853  -6.904  0.00  0.00     0.002 A 
HETATM   21  C   UNK N   1      28.100  27.650  -7.609  0.00  0.00     0.025 A 
ENDBRANCH  13  16
ENDBRANCH   8  13
ENDBRANCH   7   8
ENDBRANCH   2   7
BRANCH   3  22
HETATM   22  C   UNK N   1      29.368  23.956  -3.396  0.00  0.00     0.174 C 
BRANCH  22  23
HETATM   23  O   UNK N   1      28.143  23.725  -4.042  0.00  0.00    -0.386 OA
BRANCH  23  24
HETATM   24  C   UNK N   1      27.180  24.339  -3.231  0.00  0.00     0.206 C 
BRANCH  24  25
HETATM   25  C   UNK N   1      26.436  25.436  -3.942  0.00  0.00    -0.035 A 
HETATM   26  C   UNK N   1      26.302  26.678  -3.313  0.00  0.00     0.009 A 
HETATM   27  C   UNK N   1      25.602  27.715  -3.940  0.00  0.00     0.001 A 
HETATM   28  C   UNK N   1      25.029  27.512  -5.198  0.00  0.00     0.000 A 
HETATM   29  C   UNK N   1      25.163  26.275  -5.835  0.00  0.00     0.001 A 
HETATM   30  C   UNK N   1      25.867  25.240  -5.211  0.00  0.00     0.009 A 
ENDBRANCH  24  25
ENDBRANCH  23  24
ENDBRANCH  22  23
ENDBRANCH   3  22
TORSDOF 10
ENDMDL
MODEL 3
REMARK VINA RESULT:      -5.8      1.566      4.865
REMARK  10 active torsions:
REMARK  status: ('A' for Active; 'I' for Inactive)
REMARK    1  A    between atoms: C_2  and  C_7 
REMARK    2  A    between atoms: C_3  and  C_5 
REMARK    3  A    between atoms: C_5  and  O_22 
REMARK    4  A    between atoms: C_7  and  N_8 
REMARK    5  A    between atoms: N_8  and  C_9 
REMARK    6  A    between atoms: N_8  and  S_13 
REMARK    7  A    between atoms: C_9  and  C_10 
REMARK    8  A    between atoms: S_13  and  C_16 
REMARK    9  A    between atoms: O_22  and  C_23 
REMARK   10  A    between atoms: C_23  and  C_24 
ROOT
HETATM    1  C   UNK N   1      29.713  21.455  -5.621  0.00  0.00     0.120 C 
HETATM    2  C   UNK N   1      29.281  22.877  -5.351  0.00  0.00     0.025 C 
HETATM    3  C   UNK N   1      30.481  23.434  -4.617  0.00  0.00     0.034 C 
HETATM    4  C   UNK N   1      30.935  22.252  -3.790  0.00  0.00     0.120 C 
HETATM    5  N   UNK N   1      30.592  21.040  -4.529  0.00  0.00    -0.420 N 
HETATM    6  H   UNK N   1      30.904  20.092  -4.323  0.00  0.00     0.153 HD
ENDROOT
BRANCH   2   7
HETATM    7  C   UNK N   1      28.869  23.668  -6.615  0.00  0.00     0.114 C 
BRANCH   7   8
HETATM    8  N   UNK N   1      27.596  23.220  -7.199  0.00  0.00    -0.206 NA
BRANCH   8   9
HETATM    9  C   UNK N   1      27.643  23.121  -8.663  0.00  0.00     0.111 C 
BRANCH   9  10
HETATM   10  C   UNK N   1      27.457  21.713  -9.236  0.00  0.00    -0.009 C 
HETATM   11  C   UNK N   1      26.996  20.720  -8.187  0.00  0.00     0.011 C 
HETATM   12  C   UNK N   1      26.399  21.775 -10.318  0.00  0.00     0.011 C 
ENDBRANCH   9  10
ENDBRANCH   8   9
BRANCH   8  13
HETATM   13  S   UNK N   1      26.157  24.069  -6.551  0.00  0.00     0.243 S 
HETATM   14  O   UNK N   1      25.271  22.977  -5.938  0.00  0.00    -0.206 OA
HETATM   15  O   UNK N   1      25.346  24.380  -7.821  0.00  0.00    -0.206 OA
BRANCH  13  16
HETATM   16  C   UNK N   1      26.041  25.492  -5.470  0.00  0.00     0.074 A 
HETATM   17  C   UNK N   1      25.310  26.600  -5.916  0.00  0.00     0.025 A 
HETATM   18  C   UNK N   1      25.088  27.688  -5.069  0.00  0.00     0.002 A 
HETATM   19  C   UNK N   1      25.587  27.664  -3.765  0.00  0.00     0.000 A 
HETATM   20  C   UNK N   1      26.312  26.555  -3.313  0.00  0.00     0.002 A 
HETATM   21  C   UNK N   1      26.531  25.465  -4.162  0.00  0.00     0.025 A 
ENDBRANCH  13  16
ENDBRANCH   8  13
ENDBRANCH   7   8
ENDBRANCH   2   7
BRANCH   3  22
HETATM   22  C   UNK N   1      30.167  24.658  -3.754  0.00  0.00     0.174 C 
BRANCH  22  23
HETATM   23  O   UNK N   1      30.859  25.793  -4.206  0.00  0.00    -0.386 OA
BRANCH  23  24
HETATM   24  C   UNK N   1      30.151  26.885  -3.688  0.00  0.00     0.206 C 
BRANCH  24  25
HETATM   25  C   UNK N   1      29.446  27.676  -4.755  0.00  0.00    -0.035 A 
HETATM   26  C   UNK N   1      28.956  28.948  -4.439  0.00  0.00     0.009 A 
HETATM   27  C   UNK N   1      28.281  29.705  -5.403  0.00  0.00     0.001 A 
HETATM   28  C   UNK N   1      28.090  29.191  -6.688  0.00  0.00     0.000 A 
HETATM   29  C   UNK N   1      28.580  27.923  -7.013  0.00  0.00     0.001 A 
HETATM   30  C   UNK N   1      29.259  27.169  -6.051  0.00  0.00     0.009 A 
ENDBRANCH  24  25
ENDBRANCH  23  24
ENDBRANCH  22  23
ENDBRANCH   3  22
TORSDOF 10
ENDMDL
MODEL 4
REMARK VINA RESULT:      -5.7      2.744      6.664
REMARK  10 active torsions:
REMARK  status: ('A' for Active; 'I' for Inactive)
REMARK    1  A    between atoms: C_2  and  C_7 
REMARK    2  A    between atoms: C_3  and  C_5 
REMARK    3  A    between atoms: C_5  and  O_22 
REMARK    4  A    between atoms: C_7  and  N_8 
REMARK    5  A    between atoms: N_8  and  C_9 
REMARK    6  A    between atoms: N_8  and  S_13 
REMARK    7  A    between atoms: C_9  and  C_10 
REMARK    8  A    between atoms: S_13  and  C_16 
REMARK    9  A    between atoms: O_22  and  C_23 
REMARK   10  A    between atoms: C_23  and  C_24 
ROOT
HETATM    1  C   UNK N   1      27.680  27.591  -7.723  0.00  0.00     0.120 C 
HETATM    2  C   UNK N   1      26.781  26.656  -6.950  0.00  0.00     0.025 C 
HETATM    3  C   UNK N   1      26.211  27.573  -5.891  0.00  0.00     0.034 C 
HETATM    4  C   UNK N   1      27.385  28.473  -5.574  0.00  0.00     0.120 C 
HETATM    5  N   UNK N   1      28.185  28.597  -6.790  0.00  0.00    -0.420 N 
HETATM    6  H   UNK N   1      28.945  29.256  -6.954  0.00  0.00     0.153 HD
ENDROOT
BRANCH   2   7
HETATM    7  C   UNK N   1      25.723  25.930  -7.816  0.00  0.00     0.114 C 
BRANCH   7   8
HETATM    8  N   UNK N   1      26.282  24.852  -8.645  0.00  0.00    -0.206 NA
BRANCH   8   9
HETATM    9  C   UNK N   1      25.815  24.901 -10.036  0.00  0.00     0.111 C 
BRANCH   9  10
HETATM   10  C   UNK N   1      25.519  26.300 -10.585  0.00  0.00    -0.009 C 
HETATM   11  C   UNK N   1      26.626  26.811 -11.486  0.00  0.00     0.011 C 
HETATM   12  C   UNK N   1      24.245  26.231 -11.400  0.00  0.00     0.011 C 
ENDBRANCH   9  10
ENDBRANCH   8   9
BRANCH   8  13
HETATM   13  S   UNK N   1      26.203  23.231  -7.884  0.00  0.00     0.243 S 
HETATM   14  O   UNK N   1      25.205  22.426  -8.726  0.00  0.00    -0.206 OA
HETATM   15  O   UNK N   1      25.344  23.485  -6.633  0.00  0.00    -0.206 OA
BRANCH  13  16
HETATM   16  C   UNK N   1      27.515  22.103  -7.423  0.00  0.00     0.074 A 
HETATM   17  C   UNK N   1      27.649  20.916  -8.154  0.00  0.00     0.025 A 
HETATM   18  C   UNK N   1      28.724  20.057  -7.916  0.00  0.00     0.002 A 
HETATM   19  C   UNK N   1      29.678  20.391  -6.952  0.00  0.00     0.000 A 
HETATM   20  C   UNK N   1      29.551  21.580  -6.225  0.00  0.00     0.002 A 
HETATM   21  C   UNK N   1      28.475  22.441  -6.466  0.00  0.00     0.025 A 
ENDBRANCH  13  16
ENDBRANCH   8  13
ENDBRANCH   7   8
ENDBRANCH   2   7
BRANCH   3  22
HETATM   22  C   UNK N   1      25.692  26.842  -4.651  0.00  0.00     0.174 C 
BRANCH  22  23
HETATM   23  O   UNK N   1      26.738  26.528  -3.769  0.00  0.00    -0.386 OA
BRANCH  23  24
HETATM   24  C   UNK N   1      26.766  25.128  -3.719  0.00  0.00     0.206 C 
BRANCH  24  25
HETATM   25  C   UNK N   1      28.149  24.584  -3.486  0.00  0.00    -0.035 A 
HETATM   26  C   UNK N   1      29.237  25.232  -4.079  0.00  0.00     0.009 A 
HETATM   27  C   UNK N   1      30.535  24.742  -3.897  0.00  0.00     0.001 A 
HETATM   28  C   UNK N   1      30.750  23.599  -3.121  0.00  0.00     0.000 A 
HETATM   29  C   UNK N   1      29.668  22.949  -2.521  0.00  0.00     0.001 A 
HETATM   30  C   UNK N   1      28.371  23.442  -2.700  0.00  0.00     0.009 A 
ENDBRANCH  24  25
ENDBRANCH  23  24
ENDBRANCH  22  23
ENDBRANCH   3  22
TORSDOF 10
ENDMDL
MODEL 5
REMARK VINA RESULT:      -5.7      1.993      4.763
REMARK  10 active torsions:
REMARK  status: ('A' for Active; 'I' for Inactive)
REMARK    1  A    between atoms: C_2  and  C_7 
REMARK    2  A    between atoms: C_3  and  C_5 
REMARK    3  A    between atoms: C_5  and  O_22 
REMARK    4  A    between atoms: C_7  and  N_8 
REMARK    5  A    between atoms: N_8  and  C_9 
REMARK    6  A    between atoms: N_8  and  S_13 
REMARK    7  A    between atoms: C_9  and  C_10 
REMARK    8  A    between atoms: S_13  and  C_16 
REMARK    9  A    between atoms: O_22  and  C_23 
REMARK   10  A    between atoms: C_23  and  C_24 
ROOT
HETATM    1  C   UNK N   1      30.023  21.193  -6.513  0.00  0.00     0.120 C 
HETATM    2  C   UNK N   1      29.231  22.065  -5.567  0.00  0.00     0.025 C 
HETATM    3  C   UNK N   1      30.267  22.412  -4.521  0.00  0.00     0.034 C 
HETATM    4  C   UNK N   1      31.069  21.133  -4.419  0.00  0.00     0.120 C 
HETATM    5  N   UNK N   1      31.034  20.487  -5.729  0.00  0.00    -0.420 N 
HETATM    6  H   UNK N   1      31.604  19.699  -6.035  0.00  0.00     0.153 HD
ENDROOT
BRANCH   2   7
HETATM    7  C   UNK N   1      28.556  23.284  -6.239  0.00  0.00     0.114 C 
BRANCH   7   8
HETATM    8  N   UNK N   1      27.089  23.269  -6.144  0.00  0.00    -0.206 NA
BRANCH   8   9
HETATM    9  C   UNK N   1      26.435  23.060  -7.442  0.00  0.00     0.111 C 
BRANCH   9  10
HETATM   10  C   UNK N   1      25.947  21.634  -7.714  0.00  0.00    -0.009 C 
HETATM   11  C   UNK N   1      24.618  21.342  -7.044  0.00  0.00     0.011 C 
HETATM   12  C   UNK N   1      25.765  21.470  -9.208  0.00  0.00     0.011 C 
ENDBRANCH   9  10
ENDBRANCH   8   9
BRANCH   8  13
HETATM   13  S   UNK N   1      26.408  24.609  -5.168  0.00  0.00     0.243 S 
HETATM   14  O   UNK N   1      26.329  24.078  -3.731  0.00  0.00    -0.206 OA
HETATM   15  O   UNK N   1      24.916  24.576  -5.541  0.00  0.00    -0.206 OA
BRANCH  13  16
HETATM   16  C   UNK N   1      26.902  26.327  -5.055  0.00  0.00     0.074 A 
HETATM   17  C   UNK N   1      27.000  27.063  -6.242  0.00  0.00     0.025 A 
HETATM   18  C   UNK N   1      27.266  28.433  -6.204  0.00  0.00     0.002 A 
HETATM   19  C   UNK N   1      27.422  29.075  -4.974  0.00  0.00     0.000 A 
HETATM   20  C   UNK N   1      27.319  28.344  -3.785  0.00  0.00     0.002 A 
HETATM   21  C   UNK N   1      27.049  26.971  -3.825  0.00  0.00     0.025 A 
ENDBRANCH  13  16
ENDBRANCH   8  13
ENDBRANCH   7   8
ENDBRANCH   2   7
BRANCH   3  22
HETATM   22  C   UNK N   1      29.674  22.831  -3.174  0.00  0.00     0.174 C 
BRANCH  22  23
HETATM   23  O   UNK N   1      29.569  24.227  -3.075  0.00  0.00    -0.386 OA
BRANCH  23  24
HETATM   24  C   UNK N   1      30.864  24.709  -3.306  0.00  0.00     0.206 C 
BRANCH  24  25
HETATM   25  C   UNK N   1      30.871  26.071  -3.944  0.00  0.00    -0.035 A 
HETATM   26  C   UNK N   1      30.737  26.166  -5.333  0.00  0.00     0.009 A 
HETATM   27  C   UNK N   1      30.756  27.416  -5.961  0.00  0.00     0.001 A 
HETATM   28  C   UNK N   1      30.912  28.579  -5.200  0.00  0.00     0.000 A 
HETATM   29  C   UNK N   1      31.042  28.492  -3.811  0.00  0.00     0.001 A 
HETATM   30  C   UNK N   1      31.018  27.242  -3.184  0.00  0.00     0.009 A 
ENDBRANCH  24  25
ENDBRANCH  23  24
ENDBRANCH  22  23
ENDBRANCH   3  22
TORSDOF 10
ENDMDL
MODEL 6
REMARK VINA RESULT:      -5.6     16.766     20.739
REMARK  10 active torsions:
REMARK  status: ('A' for Active; 'I' for Inactive)
REMARK    1  A    between atoms: C_2  and  C_7 
REMARK    2  A    between atoms: C_3  and  C_5 
REMARK    3  A    between atoms: C_5  and  O_22 
REMARK    4  A    between atoms: C_7  and  N_8 
REMARK    5  A    between atoms: N_8  and  C_9 
REMARK    6  A    between atoms: N_8  and  S_13 
REMARK    7  A    between atoms: C_9  and  C_10 
REMARK    8  A    between atoms: S_13  and  C_16 
REMARK    9  A    between atoms: O_22  and  C_23 
REMARK   10  A    between atoms: C_23  and  C_24 
ROOT
HETATM    1  C   UNK N   1      34.070  12.861   9.431  0.00  0.00     0.120 C 
HETATM    2  C   UNK N   1      34.635  14.042  10.184  0.00  0.00     0.025 C 
HETATM    3  C   UNK N   1      35.602  13.372  11.136  0.00  0.00     0.034 C 
HETATM    4  C   UNK N   1      34.876  12.093  11.490  0.00  0.00     0.120 C 
HETATM    5  N   UNK N   1      34.062  11.715  10.338  0.00  0.00    -0.420 N 
HETATM    6  H   UNK N   1      33.583  10.826  10.196  0.00  0.00     0.153 HD
ENDROOT
BRANCH   2   7
HETATM    7  C   UNK N   1      35.264  15.130   9.282  0.00  0.00     0.114 C 
BRANCH   7   8
HETATM    8  N   UNK N   1      34.511  15.372   8.042  0.00  0.00    -0.206 NA
BRANCH   8   9
HETATM    9  C   UNK N   1      35.264  15.006   6.836  0.00  0.00     0.111 C 
BRANCH   9  10
HETATM   10  C   UNK N   1      34.489  14.193   5.795  0.00  0.00    -0.009 C 
HETATM   11  C   UNK N   1      33.118  13.778   6.293  0.00  0.00     0.011 C 
HETATM   12  C   UNK N   1      34.300  15.054   4.563  0.00  0.00     0.011 C 
ENDBRANCH   9  10
ENDBRANCH   8   9
BRANCH   8  13
HETATM   13  S   UNK N   1      33.718  16.978   7.972  0.00  0.00     0.243 S 
HETATM   14  O   UNK N   1      34.547  17.807   6.983  0.00  0.00    -0.206 OA
HETATM   15  O   UNK N   1      34.157  17.631   9.294  0.00  0.00    -0.206 OA
BRANCH  13  16
HETATM   16  C   UNK N   1      32.003  17.410   7.694  0.00  0.00     0.074 A 
HETATM   17  C   UNK N   1      31.418  17.036   6.478  0.00  0.00     0.025 A 
HETATM   18  C   UNK N   1      30.055  17.242   6.255  0.00  0.00     0.002 A 
HETATM   19  C   UNK N   1      29.268  17.814   7.257  0.00  0.00     0.000 A 
HETATM   20  C   UNK N   1      29.847  18.183   8.477  0.00  0.00     0.002 A 
HETATM   21  C   UNK N   1      31.213  17.972   8.699  0.00  0.00     0.025 A 
ENDBRANCH  13  16
ENDBRANCH   8  13
ENDBRANCH   7   8
ENDBRANCH   2   7
BRANCH   3  22
HETATM   22  C   UNK N   1      35.936  14.209  12.372  0.00  0.00     0.174 C 
BRANCH  22  23
HETATM   23  O   UNK N   1      35.194  13.789  13.488  0.00  0.00    -0.386 OA
BRANCH  23  24
HETATM   24  C   UNK N   1      36.054  13.953  14.582  0.00  0.00     0.206 C 
BRANCH  24  25
HETATM   25  C   UNK N   1      35.818  12.932  15.662  0.00  0.00    -0.035 A 
HETATM   26  C   UNK N   1      35.427  13.371  16.931  0.00  0.00     0.009 A 
HETATM   27  C   UNK N   1      35.216  12.450  17.963  0.00  0.00     0.001 A 
HETATM   28  C   UNK N   1      35.398  11.084  17.729  0.00  0.00     0.000 A 
HETATM   29  C   UNK N   1      35.783  10.637  16.462  0.00  0.00     0.001 A 
HETATM   30  C   UNK N   1      35.990  11.558  15.430  0.00  0.00     0.009 A 
ENDBRANCH  24  25
ENDBRANCH  23  24
ENDBRANCH  22  23
ENDBRANCH   3  22
TORSDOF 10
ENDMDL
MODEL 7
REMARK VINA RESULT:      -5.6      2.640      4.964
REMARK  10 active torsions:
REMARK  status: ('A' for Active; 'I' for Inactive)
REMARK    1  A    between atoms: C_2  and  C_7 
REMARK    2  A    between atoms: C_3  and  C_5 
REMARK    3  A    between atoms: C_5  and  O_22 
REMARK    4  A    between atoms: C_7  and  N_8 
REMARK    5  A    between atoms: N_8  and  C_9 
REMARK    6  A    between atoms: N_8  and  S_13 
REMARK    7  A    between atoms: C_9  and  C_10 
REMARK    8  A    between atoms: S_13  and  C_16 
REMARK    9  A    between atoms: O_22  and  C_23 
REMARK   10  A    between atoms: C_23  and  C_24 
ROOT
HETATM    1  C   UNK N   1      29.102  23.057  -4.935  0.00  0.00     0.120 C 
HETATM    2  C   UNK N   1      27.745  23.130  -5.596  0.00  0.00     0.025 C 
HETATM    3  C   UNK N   1      27.172  24.394  -4.994  0.00  0.00     0.034 C 
HETATM    4  C   UNK N   1      27.698  24.347  -3.577  0.00  0.00     0.120 C 
HETATM    5  N   UNK N   1      28.984  23.655  -3.607  0.00  0.00    -0.420 N 
HETATM    6  H   UNK N   1      29.665  23.601  -2.850  0.00  0.00     0.153 HD
ENDROOT
BRANCH   2   7
HETATM    7  C   UNK N   1      27.789  23.110  -7.142  0.00  0.00     0.114 C 
BRANCH   7   8
HETATM    8  N   UNK N   1      26.796  22.211  -7.747  0.00  0.00    -0.206 NA
BRANCH   8   9
HETATM    9  C   UNK N   1      27.360  20.908  -8.124  0.00  0.00     0.111 C 
BRANCH   9  10
HETATM   10  C   UNK N   1      28.885  20.860  -8.246  0.00  0.00    -0.009 C 
HETATM   11  C   UNK N   1      29.488  19.694  -7.486  0.00  0.00     0.011 C 
HETATM   12  C   UNK N   1      29.240  20.698  -9.710  0.00  0.00     0.011 C 
ENDBRANCH   9  10
ENDBRANCH   8   9
BRANCH   8  13
HETATM   13  S   UNK N   1      25.785  22.984  -9.009  0.00  0.00     0.243 S 
HETATM   14  O   UNK N   1      24.373  23.069  -8.415  0.00  0.00    -0.206 OA
HETATM   15  O   UNK N   1      25.574  21.844 -10.020  0.00  0.00    -0.206 OA
BRANCH  13  16
HETATM   16  C   UNK N   1      26.044  24.493  -9.937  0.00  0.00     0.074 A 
HETATM   17  C   UNK N   1      27.323  24.737 -10.453  0.00  0.00     0.025 A 
HETATM   18  C   UNK N   1      27.552  25.837 -11.282  0.00  0.00     0.002 A 
HETATM   19  C   UNK N   1      26.497  26.691 -11.608  0.00  0.00     0.000 A 
HETATM   20  C   UNK N   1      25.216  26.447 -11.100  0.00  0.00     0.002 A 
HETATM   21  C   UNK N   1      24.987  25.342 -10.272  0.00  0.00     0.025 A 
ENDBRANCH  13  16
ENDBRANCH   8  13
ENDBRANCH   7   8
ENDBRANCH   2   7
BRANCH   3  22
HETATM   22  C   UNK N   1      25.645  24.467  -5.042  0.00  0.00     0.174 C 
BRANCH  22  23
HETATM   23  O   UNK N   1      25.206  25.258  -6.116  0.00  0.00    -0.386 OA
BRANCH  23  24
HETATM   24  C   UNK N   1      25.271  26.577  -5.650  0.00  0.00     0.206 C 
BRANCH  24  25
HETATM   25  C   UNK N   1      26.401  27.355  -6.268  0.00  0.00    -0.035 A 
HETATM   26  C   UNK N   1      26.882  28.488  -5.605  0.00  0.00     0.009 A 
HETATM   27  C   UNK N   1      27.921  29.244  -6.159  0.00  0.00     0.001 A 
HETATM   28  C   UNK N   1      28.482  28.869  -7.384  0.00  0.00     0.000 A 
HETATM   29  C   UNK N   1      28.010  27.735  -8.050  0.00  0.00     0.001 A 
HETATM   30  C   UNK N   1      26.975  26.977  -7.493  0.00  0.00     0.009 A 
ENDBRANCH  24  25
ENDBRANCH  23  24
ENDBRANCH  22  23
ENDBRANCH   3  22
TORSDOF 10
ENDMDL
MODEL 8
REMARK VINA RESULT:      -5.6     11.276     13.470
REMARK  10 active torsions:
REMARK  status: ('A' for Active; 'I' for Inactive)
REMARK    1  A    between atoms: C_2  and  C_7 
REMARK    2  A    between atoms: C_3  and  C_5 
REMARK    3  A    between atoms: C_5  and  O_22 
REMARK    4  A    between atoms: C_7  and  N_8 
REMARK    5  A    between atoms: N_8  and  C_9 
REMARK    6  A    between atoms: N_8  and  S_13 
REMARK    7  A    between atoms: C_9  and  C_10 
REMARK    8  A    between atoms: S_13  and  C_16 
REMARK    9  A    between atoms: O_22  and  C_23 
REMARK   10  A    between atoms: C_23  and  C_24 
ROOT
HETATM    1  C   UNK N   1      28.040  19.134   6.692  0.00  0.00     0.120 C 
HETATM    2  C   UNK N   1      27.614  18.899   5.262  0.00  0.00     0.025 C 
HETATM    3  C   UNK N   1      27.063  20.253   4.874  0.00  0.00     0.034 C 
HETATM    4  C   UNK N   1      26.398  20.712   6.152  0.00  0.00     0.120 C 
HETATM    5  N   UNK N   1      27.139  20.131   7.268  0.00  0.00    -0.420 N 
HETATM    6  H   UNK N   1      27.047  20.373   8.254  0.00  0.00     0.153 HD
ENDROOT
BRANCH   2   7
HETATM    7  C   UNK N   1      28.741  18.370   4.342  0.00  0.00     0.114 C 
BRANCH   7   8
HETATM    8  N   UNK N   1      28.826  16.903   4.303  0.00  0.00    -0.206 NA
BRANCH   8   9
HETATM    9  C   UNK N   1      27.577  16.247   4.712  0.00  0.00     0.111 C 
BRANCH   9  10
HETATM   10  C   UNK N   1      26.752  15.633   3.577  0.00  0.00    -0.009 C 
HETATM   11  C   UNK N   1      25.659  16.564   3.090  0.00  0.00     0.011 C 
HETATM   12  C   UNK N   1      27.680  15.350   2.413  0.00  0.00     0.011 C 
ENDBRANCH   9  10
ENDBRANCH   8   9
BRANCH   8  13
HETATM   13  S   UNK N   1      30.306  16.237   5.064  0.00  0.00     0.243 S 
HETATM   14  O   UNK N   1      31.111  15.605   3.922  0.00  0.00    -0.206 OA
HETATM   15  O   UNK N   1      29.789  14.964   5.755  0.00  0.00    -0.206 OA
BRANCH  13  16
HETATM   16  C   UNK N   1      31.491  17.010   6.162  0.00  0.00     0.074 A 
HETATM   17  C   UNK N   1      31.093  17.276   7.478  0.00  0.00     0.025 A 
HETATM   18  C   UNK N   1      32.011  17.768   8.408  0.00  0.00     0.002 A 
HETATM   19  C   UNK N   1      33.337  17.983   8.027  0.00  0.00     0.000 A 
HETATM   20  C   UNK N   1      33.740  17.711   6.714  0.00  0.00     0.002 A 
HETATM   21  C   UNK N   1      32.820  17.216   5.784  0.00  0.00     0.025 A 
ENDBRANCH  13  16
ENDBRANCH   8  13
ENDBRANCH   7   8
ENDBRANCH   2   7
BRANCH   3  22
HETATM   22  C   UNK N   1      26.087  20.212   3.696  0.00  0.00     0.174 C 
BRANCH  22  23
HETATM   23  O   UNK N   1      24.754  20.221   4.139  0.00  0.00    -0.386 OA
BRANCH  23  24
HETATM   24  C   UNK N   1      23.997  20.572   3.013  0.00  0.00     0.206 C 
BRANCH  24  25
HETATM   25  C   UNK N   1      22.634  19.937   3.010  0.00  0.00    -0.035 A 
HETATM   26  C   UNK N   1      21.618  20.522   2.247  0.00  0.00     0.009 A 
HETATM   27  C   UNK N   1      20.334  19.966   2.235  0.00  0.00     0.001 A 
HETATM   28  C   UNK N   1      20.060  18.822   2.989  0.00  0.00     0.000 A 
HETATM   29  C   UNK N   1      21.071  18.229   3.750  0.00  0.00     0.001 A 
HETATM   30  C   UNK N   1      22.355  18.782   3.759  0.00  0.00     0.009 A 
ENDBRANCH  24  25
ENDBRANCH  23  24
ENDBRANCH  22  23
ENDBRANCH   3  22
TORSDOF 10
ENDMDL
MODEL 9
REMARK VINA RESULT:      -5.6     12.119     15.564
REMARK  10 active torsions:
REMARK  status: ('A' for Active; 'I' for Inactive)
REMARK    1  A    between atoms: C_2  and  C_7 
REMARK    2  A    between atoms: C_3  and  C_5 
REMARK    3  A    between atoms: C_5  and  O_22 
REMARK    4  A    between atoms: C_7  and  N_8 
REMARK    5  A    between atoms: N_8  and  C_9 
REMARK    6  A    between atoms: N_8  and  S_13 
REMARK    7  A    between atoms: C_9  and  C_10 
REMARK    8  A    between atoms: S_13  and  C_16 
REMARK    9  A    between atoms: O_22  and  C_23 
REMARK   10  A    between atoms: C_23  and  C_24 
ROOT
HETATM    1  C   UNK N   1      31.177  17.465   8.742  0.00  0.00     0.120 C 
HETATM    2  C   UNK N   1      30.674  16.320   7.896  0.00  0.00     0.025 C 
HETATM    3  C   UNK N   1      29.883  17.045   6.828  0.00  0.00     0.034 C 
HETATM    4  C   UNK N   1      29.265  18.188   7.601  0.00  0.00     0.120 C 
HETATM    5  N   UNK N   1      30.182  18.535   8.684  0.00  0.00    -0.420 N 
HETATM    6  H   UNK N   1      30.137  19.360   9.281  0.00  0.00     0.153 HD
ENDROOT
BRANCH   2   7
HETATM    7  C   UNK N   1      31.787  15.390   7.358  0.00  0.00     0.114 C 
BRANCH   7   8
HETATM    8  N   UNK N   1      32.675  16.039   6.382  0.00  0.00    -0.206 NA
BRANCH   8   9
HETATM    9  C   UNK N   1      32.687  15.358   5.081  0.00  0.00     0.111 C 
BRANCH   9  10
HETATM   10  C   UNK N   1      32.289  16.221   3.880  0.00  0.00    -0.009 C 
HETATM   11  C   UNK N   1      32.214  17.695   4.230  0.00  0.00     0.011 C 
HETATM   12  C   UNK N   1      33.338  16.048   2.802  0.00  0.00     0.011 C 
ENDBRANCH   9  10
ENDBRANCH   8   9
BRANCH   8  13
HETATM   13  S   UNK N   1      34.295  16.449   7.029  0.00  0.00     0.243 S 
HETATM   14  O   UNK N   1      34.427  17.971   6.881  0.00  0.00    -0.206 OA
HETATM   15  O   UNK N   1      35.236  15.994   5.901  0.00  0.00    -0.206 OA
BRANCH  13  16
HETATM   16  C   UNK N   1      35.063  16.016   8.588  0.00  0.00     0.074 A 
HETATM   17  C   UNK N   1      34.875  16.877   9.676  0.00  0.00     0.025 A 
HETATM   18  C   UNK N   1      35.350  16.530  10.942  0.00  0.00     0.002 A 
HETATM   19  C   UNK N   1      36.006  15.312  11.127  0.00  0.00     0.000 A 
HETATM   20  C   UNK N   1      36.190  14.445  10.043  0.00  0.00     0.002 A 
HETATM   21  C   UNK N   1      35.710  14.793   8.775  0.00  0.00     0.025 A 
ENDBRANCH  13  16
ENDBRANCH   8  13
ENDBRANCH   7   8
ENDBRANCH   2   7
BRANCH   3  22
HETATM   22  C   UNK N   1      28.829  16.176   6.139  0.00  0.00     0.174 C 
BRANCH  22  23
HETATM   23  O   UNK N   1      28.725  16.486   4.774  0.00  0.00    -0.386 OA
BRANCH  23  24
HETATM   24  C   UNK N   1      27.350  16.507   4.507  0.00  0.00     0.206 C 
BRANCH  24  25
HETATM   25  C   UNK N   1      26.854  17.874   4.125  0.00  0.00    -0.035 A 
HETATM   26  C   UNK N   1      25.529  18.016   3.699  0.00  0.00     0.009 A 
HETATM   27  C   UNK N   1      25.039  19.271   3.321  0.00  0.00     0.001 A 
HETATM   28  C   UNK N   1      25.875  20.390   3.364  0.00  0.00     0.000 A 
HETATM   29  C   UNK N   1      27.199  20.257   3.792  0.00  0.00     0.001 A 
HETATM   30  C   UNK N   1      27.687  19.003   4.175  0.00  0.00     0.009 A 
ENDBRANCH  24  25
ENDBRANCH  23  24
ENDBRANCH  22  23
ENDBRANCH   3  22
TORSDOF 10
ENDMDL
