REMARK  7 active torsions:
REMARK  status: ('A' for Active; 'I' for Inactive)
REMARK    1  A    between atoms: C_1  and  C_2 
REMARK    2  A    between atoms: C_1  and  O_13 
REMARK    3  A    between atoms: C_2  and  C_3 
REMARK    4  A    between atoms: C_3  and  C_4 
REMARK    5  A    between atoms: C_3  and  C_5 
REMARK    6  A    between atoms: C_4  and  O_15 
REMARK    7  A    between atoms: C_5  and  C_6 
ROOT
HETATM    1  C   UNK N   1      -0.978  -0.476   0.118  0.00  0.00     0.098 C 
ENDROOT
BRANCH   1   2
HETATM    2  C   UNK N   1      -2.183  -1.241   0.686  0.00  0.00     0.125 C 
BRANCH   2   3
HETATM    3  C   UNK N   1      -3.481  -1.105  -0.054  0.00  0.00     0.140 C 
HETATM    4  O   UNK N   1      -3.967  -2.081  -0.600  0.00  0.00    -0.650 OA
BRANCH   3   5
HETATM    5  O   UNK N   1      -4.164   0.055  -0.037  0.00  0.00    -0.776 OA
HETATM    6  H   UNK N   1      -3.703   0.870  -0.025  0.00  0.00     0.167 HD
ENDBRANCH   3   5
ENDBRANCH   2   3
ENDBRANCH   1   2
BRANCH   1   7
HETATM    7  C   UNK N   1      -1.152   1.024   0.275  0.00  0.00     0.144 C 
HETATM    8  O   UNK N   1      -0.426   1.665   1.020  0.00  0.00    -0.650 OA
BRANCH   7   9
HETATM    9  O   UNK N   1      -2.108   1.670  -0.417  0.00  0.00    -0.776 OA
HETATM   10  H   UNK N   1      -2.051   2.472  -0.899  0.00  0.00     0.167 HD
ENDBRANCH   7   9
ENDBRANCH   1   7
BRANCH   1  11
HETATM   11  C   UNK N   1       0.236  -1.007   0.899  0.00  0.00     0.054 C 
BRANCH  11  12
HETATM   12  C   UNK N   1       1.593  -0.729   0.315  0.00  0.00    -0.057 A 
HETATM   13  C   UNK N   1       2.047   0.581   0.112  0.00  0.00     0.007 A 
HETATM   14  C   UNK N   1       3.342   0.815  -0.364  0.00  0.00     0.001 A 
HETATM   15  C   UNK N   1       4.194  -0.261  -0.626  0.00  0.00     0.000 A 
HETATM   16  C   UNK N   1       3.749  -1.570  -0.420  0.00  0.00     0.001 A 
HETATM   17  C   UNK N   1       2.453  -1.802   0.052  0.00  0.00     0.007 A 
ENDBRANCH  11  12
ENDBRANCH   1  11
TORSDOF 7
