MODEL 1
REMARK VINA RESULT:      -6.0      0.000      0.000
REMARK  7 active torsions:
REMARK  status: ('A' for Active; 'I' for Inactive)
REMARK    1  A    between atoms: C_1  and  C_2 
REMARK    2  A    between atoms: C_1  and  O_13 
REMARK    3  A    between atoms: C_2  and  C_3 
REMARK    4  A    between atoms: C_3  and  C_4 
REMARK    5  A    between atoms: C_3  and  C_5 
REMARK    6  A    between atoms: C_4  and  O_15 
REMARK    7  A    between atoms: C_5  and  C_6 
ROOT
HETATM    1  C   UNK N   1      33.256  17.488   8.519  0.00  0.00     0.098 C 
ENDROOT
BRANCH   1   2
HETATM    2  C   UNK N   1      33.731  16.149   9.101  0.00  0.00     0.125 C 
BRANCH   2   3
HETATM    3  C   UNK N   1      34.927  16.190  10.006  0.00  0.00     0.140 C 
HETATM    4  O   UNK N   1      35.848  15.412   9.821  0.00  0.00    -0.650 OA
BRANCH   3   5
HETATM    5  O   UNK N   1      35.040  17.139  10.954  0.00  0.00    -0.776 OA
HETATM    6  H   UNK N   1      34.972  18.044  10.721  0.00  0.00     0.167 HD
ENDBRANCH   3   5
ENDBRANCH   2   3
ENDBRANCH   1   2
BRANCH   1   7
HETATM    7  C   UNK N   1      34.384  18.212   7.805  0.00  0.00     0.144 C 
HETATM    8  O   UNK N   1      34.600  18.019   6.618  0.00  0.00    -0.650 OA
BRANCH   7   9
HETATM    9  O   UNK N   1      35.156  19.087   8.475  0.00  0.00    -0.776 OA
HETATM   10  H   UNK N   1      35.072  20.017   8.546  0.00  0.00     0.167 HD
ENDBRANCH   7   9
ENDBRANCH   1   7
BRANCH   1  11
HETATM   11  C   UNK N   1      32.103  17.124   7.568  0.00  0.00     0.054 C 
BRANCH  11  12
HETATM   12  C   UNK N   1      30.716  17.507   8.005  0.00  0.00    -0.057 A 
HETATM   13  C   UNK N   1      29.582  17.032   7.334  0.00  0.00     0.007 A 
HETATM   14  C   UNK N   1      28.301  17.342   7.803  0.00  0.00     0.001 A 
HETATM   15  C   UNK N   1      28.149  18.119   8.955  0.00  0.00     0.000 A 
HETATM   16  C   UNK N   1      29.277  18.591   9.632  0.00  0.00     0.001 A 
HETATM   17  C   UNK N   1      30.557  18.282   9.159  0.00  0.00     0.007 A 
ENDBRANCH  11  12
ENDBRANCH   1  11
TORSDOF 7
ENDMDL
MODEL 2
REMARK VINA RESULT:      -5.6      7.412     10.117
REMARK  7 active torsions:
REMARK  status: ('A' for Active; 'I' for Inactive)
REMARK    1  A    between atoms: C_1  and  C_2 
REMARK    2  A    between atoms: C_1  and  O_13 
REMARK    3  A    between atoms: C_2  and  C_3 
REMARK    4  A    between atoms: C_3  and  C_4 
REMARK    5  A    between atoms: C_3  and  C_5 
REMARK    6  A    between atoms: C_4  and  O_15 
REMARK    7  A    between atoms: C_5  and  C_6 
ROOT
HETATM    1  C   UNK N   1      36.571  13.115  15.062  0.00  0.00     0.098 C 
ENDROOT
BRANCH   1   2
HETATM    2  C   UNK N   1      36.350  12.568  13.643  0.00  0.00     0.125 C 
BRANCH   2   3
HETATM    3  C   UNK N   1      34.962  12.679  13.084  0.00  0.00     0.140 C 
HETATM    4  O   UNK N   1      34.566  13.753  12.665  0.00  0.00    -0.650 OA
BRANCH   3   5
HETATM    5  O   UNK N   1      34.187  11.586  12.946  0.00  0.00    -0.776 OA
HETATM    6  H   UNK N   1      33.306  11.594  13.261  0.00  0.00     0.167 HD
ENDBRANCH   3   5
ENDBRANCH   2   3
ENDBRANCH   1   2
BRANCH   1   7
HETATM    7  C   UNK N   1      37.013  14.567  15.032  0.00  0.00     0.144 C 
HETATM    8  O   UNK N   1      37.562  15.075  15.998  0.00  0.00    -0.650 OA
BRANCH   7   9
HETATM    9  O   UNK N   1      36.812  15.312  13.930  0.00  0.00    -0.776 OA
HETATM   10  H   UNK N   1      36.960  16.229  13.800  0.00  0.00     0.167 HD
ENDBRANCH   7   9
ENDBRANCH   1   7
BRANCH   1  11
HETATM   11  C   UNK N   1      35.220  12.931  15.775  0.00  0.00     0.054 C 
BRANCH  11  12
HETATM   12  C   UNK N   1      35.264  12.444  17.196  0.00  0.00    -0.057 A 
HETATM   13  C   UNK N   1      35.459  11.090  17.499  0.00  0.00     0.007 A 
HETATM   14  C   UNK N   1      35.570  10.671  18.830  0.00  0.00     0.001 A 
HETATM   15  C   UNK N   1      35.501  11.608  19.864  0.00  0.00     0.000 A 
HETATM   16  C   UNK N   1      35.312  12.961  19.568  0.00  0.00     0.001 A 
HETATM   17  C   UNK N   1      35.198  13.377  18.237  0.00  0.00     0.007 A 
ENDBRANCH  11  12
ENDBRANCH   1  11
TORSDOF 7
ENDMDL
MODEL 3
REMARK VINA RESULT:      -5.6      4.282      6.416
REMARK  7 active torsions:
REMARK  status: ('A' for Active; 'I' for Inactive)
REMARK    1  A    between atoms: C_1  and  C_2 
REMARK    2  A    between atoms: C_1  and  O_13 
REMARK    3  A    between atoms: C_2  and  C_3 
REMARK    4  A    between atoms: C_3  and  C_4 
REMARK    5  A    between atoms: C_3  and  C_5 
REMARK    6  A    between atoms: C_4  and  O_15 
REMARK    7  A    between atoms: C_5  and  C_6 
ROOT
HETATM    1  C   UNK N   1      29.064  18.527   7.650  0.00  0.00     0.098 C 
ENDROOT
BRANCH   1   2
HETATM    2  C   UNK N   1      27.854  18.914   6.787  0.00  0.00     0.125 C 
BRANCH   2   3
HETATM    3  C   UNK N   1      27.321  20.306   6.953  0.00  0.00     0.140 C 
HETATM    4  O   UNK N   1      27.684  21.184   6.189  0.00  0.00    -0.650 OA
BRANCH   3   5
HETATM    5  O   UNK N   1      26.373  20.575   7.870  0.00  0.00    -0.776 OA
HETATM    6  H   UNK N   1      25.777  19.904   8.138  0.00  0.00     0.167 HD
ENDBRANCH   3   5
ENDBRANCH   2   3
ENDBRANCH   1   2
BRANCH   1   7
HETATM    7  C   UNK N   1      28.678  18.389   9.112  0.00  0.00     0.144 C 
HETATM    8  O   UNK N   1      29.492  18.604   9.998  0.00  0.00    -0.650 OA
BRANCH   7   9
HETATM    9  O   UNK N   1      27.425  18.037   9.450  0.00  0.00    -0.776 OA
HETATM   10  H   UNK N   1      26.650  18.026   8.923  0.00  0.00     0.167 HD
ENDBRANCH   7   9
ENDBRANCH   1   7
BRANCH   1  11
HETATM   11  C   UNK N   1      29.573  17.203   7.054  0.00  0.00     0.054 C 
BRANCH  11  12
HETATM   12  C   UNK N   1      30.897  17.243   6.345  0.00  0.00    -0.057 A 
HETATM   13  C   UNK N   1      30.977  17.325   4.948  0.00  0.00     0.007 A 
HETATM   14  C   UNK N   1      32.220  17.435   4.316  0.00  0.00     0.001 A 
HETATM   15  C   UNK N   1      33.390  17.478   5.079  0.00  0.00     0.000 A 
HETATM   16  C   UNK N   1      33.317  17.402   6.472  0.00  0.00     0.001 A 
HETATM   17  C   UNK N   1      32.074  17.288   7.103  0.00  0.00     0.007 A 
ENDBRANCH  11  12
ENDBRANCH   1  11
TORSDOF 7
ENDMDL
MODEL 4
REMARK VINA RESULT:      -5.4     16.362     17.934
REMARK  7 active torsions:
REMARK  status: ('A' for Active; 'I' for Inactive)
REMARK    1  A    between atoms: C_1  and  C_2 
REMARK    2  A    between atoms: C_1  and  O_13 
REMARK    3  A    between atoms: C_2  and  C_3 
REMARK    4  A    between atoms: C_3  and  C_4 
REMARK    5  A    between atoms: C_3  and  C_5 
REMARK    6  A    between atoms: C_4  and  O_15 
REMARK    7  A    between atoms: C_5  and  C_6 
ROOT
HETATM    1  C   UNK N   1      26.100  25.095  -5.939  0.00  0.00     0.098 C 
ENDROOT
BRANCH   1   2
HETATM    2  C   UNK N   1      25.953  24.281  -4.644  0.00  0.00     0.125 C 
BRANCH   2   3
HETATM    3  C   UNK N   1      26.993  24.499  -3.585  0.00  0.00     0.140 C 
HETATM    4  O   UNK N   1      26.922  23.883  -2.536  0.00  0.00    -0.650 OA
BRANCH   3   5
HETATM    5  O   UNK N   1      28.057  25.291  -3.819  0.00  0.00    -0.776 OA
HETATM    6  H   UNK N   1      28.013  25.951  -4.482  0.00  0.00     0.167 HD
ENDBRANCH   3   5
ENDBRANCH   2   3
ENDBRANCH   1   2
BRANCH   1   7
HETATM    7  C   UNK N   1      25.675  24.287  -7.151  0.00  0.00     0.144 C 
HETATM    8  O   UNK N   1      25.707  24.773  -8.272  0.00  0.00    -0.650 OA
BRANCH   7   9
HETATM    9  O   UNK N   1      25.266  23.013  -7.006  0.00  0.00    -0.776 OA
HETATM   10  H   UNK N   1      24.873  22.442  -7.636  0.00  0.00     0.167 HD
ENDBRANCH   7   9
ENDBRANCH   1   7
BRANCH   1  11
HETATM   11  C   UNK N   1      25.220  26.339  -5.730  0.00  0.00     0.054 C 
BRANCH  11  12
HETATM   12  C   UNK N   1      25.925  27.618  -5.373  0.00  0.00    -0.057 A 
HETATM   13  C   UNK N   1      25.629  28.311  -4.193  0.00  0.00     0.007 A 
HETATM   14  C   UNK N   1      26.351  29.459  -3.846  0.00  0.00     0.001 A 
HETATM   15  C   UNK N   1      27.382  29.911  -4.674  0.00  0.00     0.000 A 
HETATM   16  C   UNK N   1      27.687  29.220  -5.850  0.00  0.00     0.001 A 
HETATM   17  C   UNK N   1      26.962  28.075  -6.196  0.00  0.00     0.007 A 
ENDBRANCH  11  12
ENDBRANCH   1  11
TORSDOF 7
ENDMDL
MODEL 5
REMARK VINA RESULT:      -5.2     10.696     12.335
REMARK  7 active torsions:
REMARK  status: ('A' for Active; 'I' for Inactive)
REMARK    1  A    between atoms: C_1  and  C_2 
REMARK    2  A    between atoms: C_1  and  O_13 
REMARK    3  A    between atoms: C_2  and  C_3 
REMARK    4  A    between atoms: C_3  and  C_4 
REMARK    5  A    between atoms: C_3  and  C_5 
REMARK    6  A    between atoms: C_4  and  O_15 
REMARK    7  A    between atoms: C_5  and  C_6 
ROOT
HETATM    1  C   UNK N   1      21.001  15.790   8.138  0.00  0.00     0.098 C 
ENDROOT
BRANCH   1   2
HETATM    2  C   UNK N   1      21.070  16.147   6.645  0.00  0.00     0.125 C 
BRANCH   2   3
HETATM    3  C   UNK N   1      21.850  17.375   6.279  0.00  0.00     0.140 C 
HETATM    4  O   UNK N   1      22.808  17.278   5.531  0.00  0.00    -0.650 OA
BRANCH   3   5
HETATM    5  O   UNK N   1      21.445  18.593   6.685  0.00  0.00    -0.776 OA
HETATM    6  H   UNK N   1      21.384  18.786   7.599  0.00  0.00     0.167 HD
ENDBRANCH   3   5
ENDBRANCH   2   3
ENDBRANCH   1   2
BRANCH   1   7
HETATM    7  C   UNK N   1      19.859  16.515   8.827  0.00  0.00     0.144 C 
HETATM    8  O   UNK N   1      19.949  17.701   9.110  0.00  0.00    -0.650 OA
BRANCH   7   9
HETATM    9  O   UNK N   1      18.723  15.859   9.127  0.00  0.00    -0.776 OA
HETATM   10  H   UNK N   1      18.084  16.051   9.785  0.00  0.00     0.167 HD
ENDBRANCH   7   9
ENDBRANCH   1   7
BRANCH   1  11
HETATM   11  C   UNK N   1      20.827  14.262   8.175  0.00  0.00     0.054 C 
BRANCH  11  12
HETATM   12  C   UNK N   1      21.434  13.538   9.345  0.00  0.00    -0.057 A 
HETATM   13  C   UNK N   1      20.637  12.982  10.354  0.00  0.00     0.007 A 
HETATM   14  C   UNK N   1      21.221  12.250  11.394  0.00  0.00     0.001 A 
HETATM   15  C   UNK N   1      22.605  12.059  11.421  0.00  0.00     0.000 A 
HETATM   16  C   UNK N   1      23.405  12.606  10.414  0.00  0.00     0.001 A 
HETATM   17  C   UNK N   1      22.820  13.341   9.378  0.00  0.00     0.007 A 
ENDBRANCH  11  12
ENDBRANCH   1  11
TORSDOF 7
ENDMDL
MODEL 6
REMARK VINA RESULT:      -5.2     14.262     15.722
REMARK  7 active torsions:
REMARK  status: ('A' for Active; 'I' for Inactive)
REMARK    1  A    between atoms: C_1  and  C_2 
REMARK    2  A    between atoms: C_1  and  O_13 
REMARK    3  A    between atoms: C_2  and  C_3 
REMARK    4  A    between atoms: C_3  and  C_4 
REMARK    5  A    between atoms: C_3  and  C_5 
REMARK    6  A    between atoms: C_4  and  O_15 
REMARK    7  A    between atoms: C_5  and  C_6 
ROOT
HETATM    1  C   UNK N   1      28.294  23.973  -4.195  0.00  0.00     0.098 C 
ENDROOT
BRANCH   1   2
HETATM    2  C   UNK N   1      28.849  23.186  -2.998  0.00  0.00     0.125 C 
BRANCH   2   3
HETATM    3  C   UNK N   1      30.184  23.618  -2.465  0.00  0.00     0.140 C 
HETATM    4  O   UNK N   1      30.777  22.901  -1.677  0.00  0.00    -0.650 OA
BRANCH   3   5
HETATM    5  O   UNK N   1      30.779  24.735  -2.924  0.00  0.00    -0.776 OA
HETATM    6  H   UNK N   1      31.710  24.823  -2.878  0.00  0.00     0.167 HD
ENDBRANCH   3   5
ENDBRANCH   2   3
ENDBRANCH   1   2
BRANCH   1   7
HETATM    7  C   UNK N   1      28.552  23.245  -5.502  0.00  0.00     0.144 C 
HETATM    8  O   UNK N   1      29.685  22.920  -5.825  0.00  0.00    -0.650 OA
BRANCH   7   9
HETATM    9  O   UNK N   1      27.529  22.939  -6.319  0.00  0.00    -0.776 OA
HETATM   10  H   UNK N   1      26.871  23.501  -6.681  0.00  0.00     0.167 HD
ENDBRANCH   7   9
ENDBRANCH   1   7
BRANCH   1  11
HETATM   11  C   UNK N   1      26.792  24.133  -3.904  0.00  0.00     0.054 C 
BRANCH  11  12
HETATM   12  C   UNK N   1      26.188  25.483  -4.176  0.00  0.00    -0.057 A 
HETATM   13  C   UNK N   1      26.378  26.559  -3.299  0.00  0.00     0.007 A 
HETATM   14  C   UNK N   1      25.869  27.824  -3.610  0.00  0.00     0.001 A 
HETATM   15  C   UNK N   1      25.178  28.022  -4.809  0.00  0.00     0.000 A 
HETATM   16  C   UNK N   1      24.990  26.954  -5.691  0.00  0.00     0.001 A 
HETATM   17  C   UNK N   1      25.497  25.689  -5.376  0.00  0.00     0.007 A 
ENDBRANCH  11  12
ENDBRANCH   1  11
TORSDOF 7
ENDMDL
MODEL 7
REMARK VINA RESULT:      -5.2      7.840     10.452
REMARK  7 active torsions:
REMARK  status: ('A' for Active; 'I' for Inactive)
REMARK    1  A    between atoms: C_1  and  C_2 
REMARK    2  A    between atoms: C_1  and  O_13 
REMARK    3  A    between atoms: C_2  and  C_3 
REMARK    4  A    between atoms: C_3  and  C_4 
REMARK    5  A    between atoms: C_3  and  C_5 
REMARK    6  A    between atoms: C_4  and  O_15 
REMARK    7  A    between atoms: C_5  and  C_6 
ROOT
HETATM    1  C   UNK N   1      35.677  12.662  14.859  0.00  0.00     0.098 C 
ENDROOT
BRANCH   1   2
HETATM    2  C   UNK N   1      34.728  12.327  13.698  0.00  0.00     0.125 C 
BRANCH   2   3
HETATM    3  C   UNK N   1      34.451  10.874  13.448  0.00  0.00     0.140 C 
HETATM    4  O   UNK N   1      35.003  10.030  14.132  0.00  0.00    -0.650 OA
BRANCH   3   5
HETATM    5  O   UNK N   1      33.525  10.496  12.546  0.00  0.00    -0.776 OA
HETATM    6  H   UNK N   1      33.713   9.804  11.944  0.00  0.00     0.167 HD
ENDBRANCH   3   5
ENDBRANCH   2   3
ENDBRANCH   1   2
BRANCH   1   7
HETATM    7  C   UNK N   1      36.554  13.856  14.529  0.00  0.00     0.144 C 
HETATM    8  O   UNK N   1      36.386  14.492  13.499  0.00  0.00    -0.650 OA
BRANCH   7   9
HETATM    9  O   UNK N   1      37.526  14.236  15.378  0.00  0.00    -0.776 OA
HETATM   10  H   UNK N   1      38.026  13.717  15.977  0.00  0.00     0.167 HD
ENDBRANCH   7   9
ENDBRANCH   1   7
BRANCH   1  11
HETATM   11  C   UNK N   1      34.756  12.928  16.062  0.00  0.00     0.054 C 
BRANCH  11  12
HETATM   12  C   UNK N   1      35.188  12.360  17.385  0.00  0.00    -0.057 A 
HETATM   13  C   UNK N   1      35.063  13.095  18.572  0.00  0.00     0.007 A 
HETATM   14  C   UNK N   1      35.403  12.517  19.800  0.00  0.00     0.001 A 
HETATM   15  C   UNK N   1      35.855  11.196  19.849  0.00  0.00     0.000 A 
HETATM   16  C   UNK N   1      35.976  10.456  18.669  0.00  0.00     0.001 A 
HETATM   17  C   UNK N   1      35.640  11.036  17.442  0.00  0.00     0.007 A 
ENDBRANCH  11  12
ENDBRANCH   1  11
TORSDOF 7
ENDMDL
MODEL 8
REMARK VINA RESULT:      -5.2      6.834      8.852
REMARK  7 active torsions:
REMARK  status: ('A' for Active; 'I' for Inactive)
REMARK    1  A    between atoms: C_1  and  C_2 
REMARK    2  A    between atoms: C_1  and  O_13 
REMARK    3  A    between atoms: C_2  and  C_3 
REMARK    4  A    between atoms: C_3  and  C_4 
REMARK    5  A    between atoms: C_3  and  C_5 
REMARK    6  A    between atoms: C_4  and  O_15 
REMARK    7  A    between atoms: C_5  and  C_6 
ROOT
HETATM    1  C   UNK N   1      36.558  13.300  13.090  0.00  0.00     0.098 C 
ENDROOT
BRANCH   1   2
HETATM    2  C   UNK N   1      37.277  12.365  12.106  0.00  0.00     0.125 C 
BRANCH   2   3
HETATM    3  C   UNK N   1      37.779  12.979  10.833  0.00  0.00     0.140 C 
HETATM    4  O   UNK N   1      37.030  13.076   9.875  0.00  0.00    -0.650 OA
BRANCH   3   5
HETATM    5  O   UNK N   1      39.012  13.516  10.768  0.00  0.00    -0.776 OA
HETATM    6  H   UNK N   1      39.552  13.360  10.019  0.00  0.00     0.167 HD
ENDBRANCH   3   5
ENDBRANCH   2   3
ENDBRANCH   1   2
BRANCH   1   7
HETATM    7  C   UNK N   1      35.073  13.385  12.787  0.00  0.00     0.144 C 
HETATM    8  O   UNK N   1      34.625  14.286  12.094  0.00  0.00    -0.650 OA
BRANCH   7   9
HETATM    9  O   UNK N   1      34.229  12.457  13.274  0.00  0.00    -0.776 OA
HETATM   10  H   UNK N   1      33.828  11.732  12.834  0.00  0.00     0.167 HD
ENDBRANCH   7   9
ENDBRANCH   1   7
BRANCH   1  11
HETATM   11  C   UNK N   1      36.836  12.704  14.481  0.00  0.00     0.054 C 
BRANCH  11  12
HETATM   12  C   UNK N   1      36.641  13.616  15.660  0.00  0.00    -0.057 A 
HETATM   13  C   UNK N   1      37.289  14.855  15.742  0.00  0.00     0.007 A 
HETATM   14  C   UNK N   1      37.034  15.718  16.814  0.00  0.00     0.001 A 
HETATM   15  C   UNK N   1      36.118  15.350  17.803  0.00  0.00     0.000 A 
HETATM   16  C   UNK N   1      35.464  14.117  17.724  0.00  0.00     0.001 A 
HETATM   17  C   UNK N   1      35.723  13.255  16.654  0.00  0.00     0.007 A 
ENDBRANCH  11  12
ENDBRANCH   1  11
TORSDOF 7
ENDMDL
MODEL 9
REMARK VINA RESULT:      -5.1      5.532      8.593
REMARK  7 active torsions:
REMARK  status: ('A' for Active; 'I' for Inactive)
REMARK    1  A    between atoms: C_1  and  C_2 
REMARK    2  A    between atoms: C_1  and  O_13 
REMARK    3  A    between atoms: C_2  and  C_3 
REMARK    4  A    between atoms: C_3  and  C_4 
REMARK    5  A    between atoms: C_3  and  C_5 
REMARK    6  A    between atoms: C_4  and  O_15 
REMARK    7  A    between atoms: C_5  and  C_6 
ROOT
HETATM    1  C   UNK N   1      35.686  13.639  12.972  0.00  0.00     0.098 C 
ENDROOT
BRANCH   1   2
HETATM    2  C   UNK N   1      36.517  14.437  11.956  0.00  0.00     0.125 C 
BRANCH   2   3
HETATM    3  C   UNK N   1      35.846  15.612  11.308  0.00  0.00     0.140 C 
HETATM    4  O   UNK N   1      36.518  16.430  10.703  0.00  0.00    -0.650 OA
BRANCH   3   5
HETATM    5  O   UNK N   1      34.504  15.720  11.300  0.00  0.00    -0.776 OA
HETATM    6  H   UNK N   1      33.975  14.969  11.117  0.00  0.00     0.167 HD
ENDBRANCH   3   5
ENDBRANCH   2   3
ENDBRANCH   1   2
BRANCH   1   7
HETATM    7  C   UNK N   1      35.003  12.452  12.315  0.00  0.00     0.144 C 
HETATM    8  O   UNK N   1      35.174  11.318  12.737  0.00  0.00    -0.650 OA
BRANCH   7   9
HETATM    9  O   UNK N   1      34.189  12.639  11.261  0.00  0.00    -0.776 OA
HETATM   10  H   UNK N   1      33.377  13.106  11.214  0.00  0.00     0.167 HD
ENDBRANCH   7   9
ENDBRANCH   1   7
BRANCH   1  11
HETATM   11  C   UNK N   1      36.688  13.208  14.057  0.00  0.00     0.054 C 
BRANCH  11  12
HETATM   12  C   UNK N   1      36.508  13.808  15.423  0.00  0.00    -0.057 A 
HETATM   13  C   UNK N   1      37.173  14.982  15.799  0.00  0.00     0.007 A 
HETATM   14  C   UNK N   1      36.933  15.562  17.050  0.00  0.00     0.001 A 
HETATM   15  C   UNK N   1      36.015  14.976  17.925  0.00  0.00     0.000 A 
HETATM   16  C   UNK N   1      35.343  13.808  17.554  0.00  0.00     0.001 A 
HETATM   17  C   UNK N   1      35.588  13.228  16.305  0.00  0.00     0.007 A 
ENDBRANCH  11  12
ENDBRANCH   1  11
TORSDOF 7
ENDMDL
