MODEL 1
REMARK VINA RESULT:      -8.3      0.000      0.000
REMARK  3 active torsions:
REMARK  status: ('A' for Active; 'I' for Inactive)
REMARK    1  A    between atoms: C_7  and  N_17 
REMARK    2  A    between atoms: C_9  and  C_21 
REMARK    3  A    between atoms: C_12  and  O_20 
ROOT
HETATM    1  C   UNK N   1      35.887  13.785  11.352  0.00  0.00     0.080 A 
HETATM    2  C   UNK N   1      35.882  14.152  12.708  0.00  0.00     0.045 A 
HETATM    3  C   UNK N   1      36.482  13.392  13.709  0.00  0.00    -0.024 A 
HETATM    4  C   UNK N   1      37.134  12.210  13.358  0.00  0.00     0.015 A 
HETATM    5  C   UNK N   1      37.166  11.802  12.025  0.00  0.00     0.040 A 
HETATM    6  C   UNK N   1      36.547  12.559  11.020  0.00  0.00     0.093 A 
ENDROOT
BRANCH   1   7
HETATM    7  N   UNK N   1      35.208  14.666  10.412  0.00  0.00    -0.241 N 
HETATM    8  C   UNK N   1      34.164  14.405   9.564  0.00  0.00     0.267 A 
HETATM    9  C   UNK N   1      33.832  15.608   8.794  0.00  0.00     0.054 A 
HETATM   10  O   UNK N   1      33.603  13.333   9.433  0.00  0.00    -0.267 OA
HETATM   11  C   UNK N   1      34.703  16.581   9.206  0.00  0.00     0.049 A 
HETATM   12  C   UNK N   1      32.872  15.866   7.811  0.00  0.00    -0.045 A 
HETATM   13  C   UNK N   1      35.555  15.978  10.215  0.00  0.00     0.266 A 
HETATM   14  C   UNK N   1      34.683  17.868   8.676  0.00  0.00     0.018 A 
HETATM   15  O   UNK N   1      36.450  16.566  10.803  0.00  0.00    -0.267 OA
HETATM   16  C   UNK N   1      33.727  18.155   7.686  0.00  0.00     0.002 A 
HETATM   17  C   UNK N   1      32.824  17.158   7.256  0.00  0.00     0.008 A 
HETATM   18  C   UNK N   1      31.920  14.817   7.354  0.00  0.00     0.049 C 
ENDBRANCH   1   7
BRANCH   6  19
HETATM   19  O   UNK N   1      36.588  12.073   9.774  0.00  0.00    -0.358 OA
HETATM   20  H   UNK N   1      37.391  11.741   9.423  0.00  0.00     0.217 HD
ENDBRANCH   6  19
BRANCH   3  21
HETATM   21  C   UNK N   1      36.357  13.826  15.120  0.00  0.00    -0.026 A 
HETATM   22  C   UNK N   1      35.443  13.206  15.987  0.00  0.00     0.012 A 
HETATM   23  C   UNK N   1      35.296  13.665  17.300  0.00  0.00     0.001 A 
HETATM   24  C   UNK N   1      36.058  14.745  17.757  0.00  0.00     0.000 A 
HETATM   25  C   UNK N   1      36.974  15.363  16.903  0.00  0.00     0.001 A 
HETATM   26  C   UNK N   1      37.120  14.908  15.592  0.00  0.00     0.012 A 
ENDBRANCH   3  21
TORSDOF 3
ENDMDL
MODEL 2
REMARK VINA RESULT:      -8.2     17.458     20.782
REMARK  3 active torsions:
REMARK  status: ('A' for Active; 'I' for Inactive)
REMARK    1  A    between atoms: C_7  and  N_17 
REMARK    2  A    between atoms: C_9  and  C_21 
REMARK    3  A    between atoms: C_12  and  O_20 
ROOT
HETATM    1  C   UNK N   1      29.411  23.310  -4.174  0.00  0.00     0.080 A 
HETATM    2  C   UNK N   1      29.428  22.479  -5.307  0.00  0.00     0.045 A 
HETATM    3  C   UNK N   1      30.117  21.269  -5.358  0.00  0.00    -0.024 A 
HETATM    4  C   UNK N   1      30.817  20.844  -4.229  0.00  0.00     0.015 A 
HETATM    5  C   UNK N   1      30.830  21.635  -3.080  0.00  0.00     0.040 A 
HETATM    6  C   UNK N   1      30.151  22.860  -3.036  0.00  0.00     0.093 A 
ENDROOT
BRANCH   1   7
HETATM    7  N   UNK N   1      28.661  24.556  -4.263  0.00  0.00    -0.241 N 
HETATM    8  C   UNK N   1      28.875  25.652  -5.058  0.00  0.00     0.267 A 
HETATM    9  C   UNK N   1      27.863  26.676  -4.780  0.00  0.00     0.054 A 
HETATM   10  O   UNK N   1      29.782  25.786  -5.857  0.00  0.00    -0.267 OA
HETATM   11  C   UNK N   1      27.050  26.160  -3.806  0.00  0.00     0.049 A 
HETATM   12  C   UNK N   1      27.643  27.953  -5.303  0.00  0.00    -0.045 A 
HETATM   13  C   UNK N   1      27.562  24.837  -3.493  0.00  0.00     0.266 A 
HETATM   14  C   UNK N   1      25.972  26.870  -3.285  0.00  0.00     0.018 A 
HETATM   15  O   UNK N   1      27.072  24.086  -2.663  0.00  0.00    -0.267 OA
HETATM   16  C   UNK N   1      25.728  28.157  -3.794  0.00  0.00     0.002 A 
HETATM   17  C   UNK N   1      26.560  28.697  -4.799  0.00  0.00     0.008 A 
HETATM   18  C   UNK N   1      28.519  28.526  -6.361  0.00  0.00     0.049 C 
ENDBRANCH   1   7
BRANCH   6  19
HETATM   19  O   UNK N   1      30.252  23.575  -1.909  0.00  0.00    -0.358 OA
HETATM   20  H   UNK N   1      29.522  24.074  -1.599  0.00  0.00     0.217 HD
ENDBRANCH   6  19
BRANCH   3  21
HETATM   21  C   UNK N   1      30.137  20.501  -6.625  0.00  0.00    -0.026 A 
HETATM   22  C   UNK N   1      31.293  19.821  -7.038  0.00  0.00     0.012 A 
HETATM   23  C   UNK N   1      31.313  19.147  -8.264  0.00  0.00     0.001 A 
HETATM   24  C   UNK N   1      30.183  19.150  -9.086  0.00  0.00     0.000 A 
HETATM   25  C   UNK N   1      29.027  19.819  -8.681  0.00  0.00     0.001 A 
HETATM   26  C   UNK N   1      29.005  20.494  -7.459  0.00  0.00     0.012 A 
ENDBRANCH   3  21
TORSDOF 3
ENDMDL
MODEL 3
REMARK VINA RESULT:      -8.0     11.924     15.994
REMARK  3 active torsions:
REMARK  status: ('A' for Active; 'I' for Inactive)
REMARK    1  A    between atoms: C_7  and  N_17 
REMARK    2  A    between atoms: C_9  and  C_21 
REMARK    3  A    between atoms: C_12  and  O_20 
ROOT
HETATM    1  C   UNK N   1      21.874  15.721   6.397  0.00  0.00     0.080 A 
HETATM    2  C   UNK N   1      22.304  15.164   5.181  0.00  0.00     0.045 A 
HETATM    3  C   UNK N   1      22.317  15.868   3.979  0.00  0.00    -0.024 A 
HETATM    4  C   UNK N   1      21.896  17.198   3.973  0.00  0.00     0.015 A 
HETATM    5  C   UNK N   1      21.460  17.796   5.156  0.00  0.00     0.040 A 
HETATM    6  C   UNK N   1      21.431  17.080   6.361  0.00  0.00     0.093 A 
ENDROOT
BRANCH   1   7
HETATM    7  N   UNK N   1      21.899  14.866   7.576  0.00  0.00    -0.241 N 
HETATM    8  C   UNK N   1      22.946  14.189   8.146  0.00  0.00     0.267 A 
HETATM    9  C   UNK N   1      22.480  13.442   9.318  0.00  0.00     0.054 A 
HETATM   10  O   UNK N   1      24.092  14.173   7.736  0.00  0.00    -0.267 OA
HETATM   11  C   UNK N   1      21.138  13.692   9.425  0.00  0.00     0.049 A 
HETATM   12  C   UNK N   1      23.134  12.605  10.227  0.00  0.00    -0.045 A 
HETATM   13  C   UNK N   1      20.791  14.581   8.331  0.00  0.00     0.266 A 
HETATM   14  C   UNK N   1      20.357  13.133  10.433  0.00  0.00     0.018 A 
HETATM   15  O   UNK N   1      19.667  15.013   8.123  0.00  0.00    -0.267 OA
HETATM   16  C   UNK N   1      20.990  12.288  11.360  0.00  0.00     0.002 A 
HETATM   17  C   UNK N   1      22.373  12.025  11.258  0.00  0.00     0.008 A 
HETATM   18  C   UNK N   1      24.592  12.324  10.120  0.00  0.00     0.049 C 
ENDBRANCH   1   7
BRANCH   6  19
HETATM   19  O   UNK N   1      20.958  17.716   7.439  0.00  0.00    -0.358 OA
HETATM   20  H   UNK N   1      21.251  18.583   7.643  0.00  0.00     0.217 HD
ENDBRANCH   6  19
BRANCH   3  21
HETATM   21  C   UNK N   1      22.715  15.170   2.735  0.00  0.00    -0.026 A 
HETATM   22  C   UNK N   1      21.750  14.652   1.857  0.00  0.00     0.012 A 
HETATM   23  C   UNK N   1      22.144  13.945   0.716  0.00  0.00     0.001 A 
HETATM   24  C   UNK N   1      23.501  13.749   0.444  0.00  0.00     0.000 A 
HETATM   25  C   UNK N   1      24.468  14.266   1.308  0.00  0.00     0.001 A 
HETATM   26  C   UNK N   1      24.077  14.969   2.449  0.00  0.00     0.012 A 
ENDBRANCH   3  21
TORSDOF 3
ENDMDL
MODEL 4
REMARK VINA RESULT:      -7.9      1.876      7.091
REMARK  3 active torsions:
REMARK  status: ('A' for Active; 'I' for Inactive)
REMARK    1  A    between atoms: C_7  and  N_17 
REMARK    2  A    between atoms: C_9  and  C_21 
REMARK    3  A    between atoms: C_12  and  O_20 
ROOT
HETATM    1  C   UNK N   1      36.015  13.907  11.670  0.00  0.00     0.080 A 
HETATM    2  C   UNK N   1      34.973  14.633  11.072  0.00  0.00     0.045 A 
HETATM    3  C   UNK N   1      35.035  15.136   9.775  0.00  0.00    -0.024 A 
HETATM    4  C   UNK N   1      36.182  14.901   9.016  0.00  0.00     0.015 A 
HETATM    5  C   UNK N   1      37.245  14.185   9.565  0.00  0.00     0.040 A 
HETATM    6  C   UNK N   1      37.188  13.694  10.878  0.00  0.00     0.093 A 
ENDROOT
BRANCH   1   7
HETATM    7  N   UNK N   1      35.822  13.453  13.040  0.00  0.00    -0.241 N 
HETATM    8  C   UNK N   1      35.304  12.273  13.508  0.00  0.00     0.267 A 
HETATM    9  C   UNK N   1      35.294  12.277  14.974  0.00  0.00     0.054 A 
HETATM   10  O   UNK N   1      34.881  11.360  12.824  0.00  0.00    -0.267 OA
HETATM   11  C   UNK N   1      35.815  13.483  15.359  0.00  0.00     0.049 A 
HETATM   12  C   UNK N   1      34.870  11.338  15.919  0.00  0.00    -0.045 A 
HETATM   13  C   UNK N   1      36.139  14.206  14.142  0.00  0.00     0.266 A 
HETATM   14  C   UNK N   1      35.951  13.840  16.698  0.00  0.00     0.018 A 
HETATM   15  O   UNK N   1      36.629  15.324  14.113  0.00  0.00    -0.267 OA
HETATM   16  C   UNK N   1      35.533  12.914  17.668  0.00  0.00     0.002 A 
HETATM   17  C   UNK N   1      34.995  11.667  17.281  0.00  0.00     0.008 A 
HETATM   18  C   UNK N   1      34.300  10.025  15.513  0.00  0.00     0.049 C 
ENDBRANCH   1   7
BRANCH   6  19
HETATM   19  O   UNK N   1      38.269  13.056  11.341  0.00  0.00    -0.358 OA
HETATM   20  H   UNK N   1      39.046  13.536  11.553  0.00  0.00     0.217 HD
ENDBRANCH   6  19
BRANCH   3  21
HETATM   21  C   UNK N   1      33.913  15.955   9.261  0.00  0.00    -0.026 A 
HETATM   22  C   UNK N   1      32.622  15.418   9.144  0.00  0.00     0.012 A 
HETATM   23  C   UNK N   1      31.585  16.187   8.605  0.00  0.00     0.001 A 
HETATM   24  C   UNK N   1      31.830  17.495   8.176  0.00  0.00     0.000 A 
HETATM   25  C   UNK N   1      33.110  18.040   8.294  0.00  0.00     0.001 A 
HETATM   26  C   UNK N   1      34.146  17.273   8.830  0.00  0.00     0.012 A 
ENDBRANCH   3  21
TORSDOF 3
ENDMDL
MODEL 5
REMARK VINA RESULT:      -7.9      2.387      7.585
REMARK  3 active torsions:
REMARK  status: ('A' for Active; 'I' for Inactive)
REMARK    1  A    between atoms: C_7  and  N_17 
REMARK    2  A    between atoms: C_9  and  C_21 
REMARK    3  A    between atoms: C_12  and  O_20 
ROOT
HETATM    1  C   UNK N   1      33.729  15.815   8.373  0.00  0.00     0.080 A 
HETATM    2  C   UNK N   1      32.425  16.327   8.477  0.00  0.00     0.045 A 
HETATM    3  C   UNK N   1      31.780  16.994   7.438  0.00  0.00    -0.024 A 
HETATM    4  C   UNK N   1      32.448  17.157   6.224  0.00  0.00     0.015 A 
HETATM    5  C   UNK N   1      33.745  16.668   6.072  0.00  0.00     0.040 A 
HETATM    6  C   UNK N   1      34.400  16.011   7.124  0.00  0.00     0.093 A 
ENDROOT
BRANCH   1   7
HETATM    7  N   UNK N   1      34.289  15.152   9.543  0.00  0.00    -0.241 N 
HETATM    8  C   UNK N   1      34.266  13.828   9.893  0.00  0.00     0.267 A 
HETATM    9  C   UNK N   1      34.949  13.638  11.177  0.00  0.00     0.054 A 
HETATM   10  O   UNK N   1      33.735  12.932   9.263  0.00  0.00    -0.267 OA
HETATM   11  C   UNK N   1      35.374  14.878  11.574  0.00  0.00     0.049 A 
HETATM   12  C   UNK N   1      35.192  12.506  11.960  0.00  0.00    -0.045 A 
HETATM   13  C   UNK N   1      34.954  15.812  10.544  0.00  0.00     0.266 A 
HETATM   14  C   UNK N   1      36.063  15.080  12.766  0.00  0.00     0.018 A 
HETATM   15  O   UNK N   1      35.170  17.014  10.573  0.00  0.00    -0.267 OA
HETATM   16  C   UNK N   1      36.321  13.959  13.573  0.00  0.00     0.002 A 
HETATM   17  C   UNK N   1      35.888  12.676  13.171  0.00  0.00     0.008 A 
HETATM   18  C   UNK N   1      34.735  11.153  11.541  0.00  0.00     0.049 C 
ENDBRANCH   1   7
BRANCH   6  19
HETATM   19  O   UNK N   1      35.658  15.612   6.907  0.00  0.00    -0.358 OA
HETATM   20  H   UNK N   1      36.363  15.979   7.405  0.00  0.00     0.217 HD
ENDBRANCH   6  19
BRANCH   3  21
HETATM   21  C   UNK N   1      30.432  17.563   7.670  0.00  0.00    -0.026 A 
HETATM   22  C   UNK N   1      29.493  17.642   6.631  0.00  0.00     0.012 A 
HETATM   23  C   UNK N   1      28.245  18.234   6.853  0.00  0.00     0.001 A 
HETATM   24  C   UNK N   1      27.927  18.753   8.111  0.00  0.00     0.000 A 
HETATM   25  C   UNK N   1      28.853  18.673   9.153  0.00  0.00     0.001 A 
HETATM   26  C   UNK N   1      30.099  18.085   8.933  0.00  0.00     0.012 A 
ENDBRANCH   3  21
TORSDOF 3
ENDMDL
MODEL 6
REMARK VINA RESULT:      -7.9     13.917     17.707
REMARK  3 active torsions:
REMARK  status: ('A' for Active; 'I' for Inactive)
REMARK    1  A    between atoms: C_7  and  N_17 
REMARK    2  A    between atoms: C_9  and  C_21 
REMARK    3  A    between atoms: C_12  and  O_20 
ROOT
HETATM    1  C   UNK N   1      20.455  17.743   2.748  0.00  0.00     0.080 A 
HETATM    2  C   UNK N   1      21.794  18.034   3.057  0.00  0.00     0.045 A 
HETATM    3  C   UNK N   1      22.258  19.323   3.311  0.00  0.00    -0.024 A 
HETATM    4  C   UNK N   1      21.355  20.384   3.271  0.00  0.00     0.015 A 
HETATM    5  C   UNK N   1      20.014  20.147   2.968  0.00  0.00     0.040 A 
HETATM    6  C   UNK N   1      19.551  18.851   2.696  0.00  0.00     0.093 A 
ENDROOT
BRANCH   1   7
HETATM    7  N   UNK N   1      20.109  16.352   2.491  0.00  0.00    -0.241 N 
HETATM    8  C   UNK N   1      19.809  15.346   3.372  0.00  0.00     0.267 A 
HETATM    9  C   UNK N   1      19.542  14.103   2.641  0.00  0.00     0.054 A 
HETATM   10  O   UNK N   1      19.792  15.443   4.585  0.00  0.00    -0.267 OA
HETATM   11  C   UNK N   1      19.692  14.399   1.312  0.00  0.00     0.049 A 
HETATM   12  C   UNK N   1      19.205  12.814   3.060  0.00  0.00    -0.045 A 
HETATM   13  C   UNK N   1      20.047  15.805   1.235  0.00  0.00     0.266 A 
HETATM   14  C   UNK N   1      19.520  13.443   0.315  0.00  0.00     0.018 A 
HETATM   15  O   UNK N   1      20.254  16.408   0.193  0.00  0.00    -0.267 OA
HETATM   16  C   UNK N   1      19.180  12.138   0.710  0.00  0.00     0.002 A 
HETATM   17  C   UNK N   1      19.022  11.824   2.077  0.00  0.00     0.008 A 
HETATM   18  C   UNK N   1      19.040  12.479   4.501  0.00  0.00     0.049 C 
ENDBRANCH   1   7
BRANCH   6  19
HETATM   19  O   UNK N   1      18.260  18.718   2.372  0.00  0.00    -0.358 OA
HETATM   20  H   UNK N   1      17.802  19.423   1.958  0.00  0.00     0.217 HD
ENDBRANCH   6  19
BRANCH   3  21
HETATM   21  C   UNK N   1      23.704  19.536   3.553  0.00  0.00    -0.026 A 
HETATM   22  C   UNK N   1      24.438  20.450   2.780  0.00  0.00     0.012 A 
HETATM   23  C   UNK N   1      25.814  20.599   2.983  0.00  0.00     0.001 A 
HETATM   24  C   UNK N   1      26.467  19.836   3.956  0.00  0.00     0.000 A 
HETATM   25  C   UNK N   1      25.744  18.929   4.733  0.00  0.00     0.001 A 
HETATM   26  C   UNK N   1      24.372  18.778   4.531  0.00  0.00     0.012 A 
ENDBRANCH   3  21
TORSDOF 3
ENDMDL
MODEL 7
REMARK VINA RESULT:      -7.8      1.964      7.418
REMARK  3 active torsions:
REMARK  status: ('A' for Active; 'I' for Inactive)
REMARK    1  A    between atoms: C_7  and  N_17 
REMARK    2  A    between atoms: C_9  and  C_21 
REMARK    3  A    between atoms: C_12  and  O_20 
ROOT
HETATM    1  C   UNK N   1      35.946  13.749  11.612  0.00  0.00     0.080 A 
HETATM    2  C   UNK N   1      34.909  14.470  10.997  0.00  0.00     0.045 A 
HETATM    3  C   UNK N   1      35.041  15.093   9.758  0.00  0.00    -0.024 A 
HETATM    4  C   UNK N   1      36.256  14.994   9.080  0.00  0.00     0.015 A 
HETATM    5  C   UNK N   1      37.316  14.289   9.650  0.00  0.00     0.040 A 
HETATM    6  C   UNK N   1      37.187  13.676  10.905  0.00  0.00     0.093 A 
ENDROOT
BRANCH   1   7
HETATM    7  N   UNK N   1      35.675  13.159  12.916  0.00  0.00    -0.241 N 
HETATM    8  C   UNK N   1      35.872  13.677  14.170  0.00  0.00     0.267 A 
HETATM    9  C   UNK N   1      35.462  12.701  15.184  0.00  0.00     0.054 A 
HETATM   10  O   UNK N   1      36.343  14.769  14.424  0.00  0.00    -0.267 OA
HETATM   11  C   UNK N   1      35.022  11.598  14.502  0.00  0.00     0.049 A 
HETATM   12  C   UNK N   1      35.466  12.731  16.582  0.00  0.00    -0.045 A 
HETATM   13  C   UNK N   1      35.162  11.899  13.088  0.00  0.00     0.266 A 
HETATM   14  C   UNK N   1      34.559  10.458  15.152  0.00  0.00     0.018 A 
HETATM   15  O   UNK N   1      34.858  11.133  12.186  0.00  0.00    -0.267 OA
HETATM   16  C   UNK N   1      34.551  10.463  16.558  0.00  0.00     0.002 A 
HETATM   17  C   UNK N   1      35.002  11.595  17.270  0.00  0.00     0.008 A 
HETATM   18  C   UNK N   1      35.942  13.923  17.335  0.00  0.00     0.049 C 
ENDBRANCH   1   7
BRANCH   6  19
HETATM   19  O   UNK N   1      38.267  13.058  11.397  0.00  0.00    -0.358 OA
HETATM   20  H   UNK N   1      38.683  12.374  10.910  0.00  0.00     0.217 HD
ENDBRANCH   6  19
BRANCH   3  21
HETATM   21  C   UNK N   1      33.914  15.894   9.227  0.00  0.00    -0.026 A 
HETATM   22  C   UNK N   1      34.115  17.202   8.758  0.00  0.00     0.012 A 
HETATM   23  C   UNK N   1      33.030  17.965   8.313  0.00  0.00     0.001 A 
HETATM   24  C   UNK N   1      31.739  17.431   8.335  0.00  0.00     0.000 A 
HETATM   25  C   UNK N   1      31.530  16.129   8.794  0.00  0.00     0.001 A 
HETATM   26  C   UNK N   1      32.611  15.366   9.240  0.00  0.00     0.012 A 
ENDBRANCH   3  21
TORSDOF 3
ENDMDL
MODEL 8
REMARK VINA RESULT:      -7.8     13.887     17.538
REMARK  3 active torsions:
REMARK  status: ('A' for Active; 'I' for Inactive)
REMARK    1  A    between atoms: C_7  and  N_17 
REMARK    2  A    between atoms: C_9  and  C_21 
REMARK    3  A    between atoms: C_12  and  O_20 
ROOT
HETATM    1  C   UNK N   1      20.562  17.845   2.993  0.00  0.00     0.080 A 
HETATM    2  C   UNK N   1      21.911  18.124   3.267  0.00  0.00     0.045 A 
HETATM    3  C   UNK N   1      22.436  19.414   3.292  0.00  0.00    -0.024 A 
HETATM    4  C   UNK N   1      21.586  20.492   3.047  0.00  0.00     0.015 A 
HETATM    5  C   UNK N   1      20.237  20.267   2.770  0.00  0.00     0.040 A 
HETATM    6  C   UNK N   1      19.714  18.967   2.728  0.00  0.00     0.093 A 
ENDROOT
BRANCH   1   7
HETATM    7  N   UNK N   1      20.151  16.448   2.985  0.00  0.00    -0.241 N 
HETATM    8  C   UNK N   1      20.179  15.532   1.966  0.00  0.00     0.267 A 
HETATM    9  C   UNK N   1      19.643  14.249   2.430  0.00  0.00     0.054 A 
HETATM   10  O   UNK N   1      20.560  15.743   0.829  0.00  0.00    -0.267 OA
HETATM   11  C   UNK N   1      19.298  14.429   3.743  0.00  0.00     0.049 A 
HETATM   12  C   UNK N   1      19.451  13.019   1.795  0.00  0.00    -0.045 A 
HETATM   13  C   UNK N   1      19.620  15.806   4.074  0.00  0.00     0.266 A 
HETATM   14  C   UNK N   1      18.742  13.410   4.511  0.00  0.00     0.018 A 
HETATM   15  O   UNK N   1      19.443  16.311   5.172  0.00  0.00    -0.267 OA
HETATM   16  C   UNK N   1      18.539  12.163   3.897  0.00  0.00     0.002 A 
HETATM   17  C   UNK N   1      18.893  11.967   2.544  0.00  0.00     0.008 A 
HETATM   18  C   UNK N   1      19.821  12.811   0.369  0.00  0.00     0.049 C 
ENDBRANCH   1   7
BRANCH   6  19
HETATM   19  O   UNK N   1      18.420  18.838   2.412  0.00  0.00    -0.358 OA
HETATM   20  H   UNK N   1      17.761  19.228   2.952  0.00  0.00     0.217 HD
ENDBRANCH   6  19
BRANCH   3  21
HETATM   21  C   UNK N   1      23.889  19.600   3.515  0.00  0.00    -0.026 A 
HETATM   22  C   UNK N   1      24.547  18.943   4.566  0.00  0.00     0.012 A 
HETATM   23  C   UNK N   1      25.908  19.173   4.797  0.00  0.00     0.001 A 
HETATM   24  C   UNK N   1      26.619  20.060   3.985  0.00  0.00     0.000 A 
HETATM   25  C   UNK N   1      25.973  20.714   2.934  0.00  0.00     0.001 A 
HETATM   26  C   UNK N   1      24.616  20.487   2.702  0.00  0.00     0.012 A 
ENDBRANCH   3  21
TORSDOF 3
ENDMDL
MODEL 9
REMARK VINA RESULT:      -7.7      3.072      4.616
REMARK  3 active torsions:
REMARK  status: ('A' for Active; 'I' for Inactive)
REMARK    1  A    between atoms: C_7  and  N_17 
REMARK    2  A    between atoms: C_9  and  C_21 
REMARK    3  A    between atoms: C_12  and  O_20 
ROOT
HETATM    1  C   UNK N   1      34.255  15.764   9.358  0.00  0.00     0.080 A 
HETATM    2  C   UNK N   1      34.132  14.425   9.761  0.00  0.00     0.045 A 
HETATM    3  C   UNK N   1      34.817  13.887  10.849  0.00  0.00    -0.024 A 
HETATM    4  C   UNK N   1      35.660  14.714  11.590  0.00  0.00     0.015 A 
HETATM    5  C   UNK N   1      35.816  16.052  11.229  0.00  0.00     0.040 A 
HETATM    6  C   UNK N   1      35.139  16.588  10.124  0.00  0.00     0.093 A 
ENDROOT
BRANCH   1   7
HETATM    7  N   UNK N   1      33.491  16.191   8.194  0.00  0.00    -0.241 N 
HETATM    8  C   UNK N   1      32.156  16.476   8.077  0.00  0.00     0.267 A 
HETATM    9  C   UNK N   1      31.842  16.849   6.695  0.00  0.00     0.054 A 
HETATM   10  O   UNK N   1      31.332  16.405   8.970  0.00  0.00    -0.267 OA
HETATM   11  C   UNK N   1      33.020  16.777   6.000  0.00  0.00     0.049 A 
HETATM   12  C   UNK N   1      30.651  17.217   6.061  0.00  0.00    -0.045 A 
HETATM   13  C   UNK N   1      34.039  16.365   6.948  0.00  0.00     0.266 A 
HETATM   14  C   UNK N   1      33.098  17.062   4.640  0.00  0.00     0.018 A 
HETATM   15  O   UNK N   1      35.217  16.202   6.668  0.00  0.00    -0.267 OA
HETATM   16  C   UNK N   1      31.915  17.434   3.979  0.00  0.00     0.002 A 
HETATM   17  C   UNK N   1      30.696  17.512   4.687  0.00  0.00     0.008 A 
HETATM   18  C   UNK N   1      29.364  17.297   6.805  0.00  0.00     0.049 C 
ENDBRANCH   1   7
BRANCH   6  19
HETATM   19  O   UNK N   1      35.379  17.869   9.822  0.00  0.00    -0.358 OA
HETATM   20  H   UNK N   1      34.742  18.372   9.353  0.00  0.00     0.217 HD
ENDBRANCH   6  19
BRANCH   3  21
HETATM   21  C   UNK N   1      34.679  12.442  11.148  0.00  0.00    -0.026 A 
HETATM   22  C   UNK N   1      34.324  11.528  10.144  0.00  0.00     0.012 A 
HETATM   23  C   UNK N   1      34.143  10.176  10.455  0.00  0.00     0.001 A 
HETATM   24  C   UNK N   1      34.312   9.728  11.767  0.00  0.00     0.000 A 
HETATM   25  C   UNK N   1      34.671  10.629  12.771  0.00  0.00     0.001 A 
HETATM   26  C   UNK N   1      34.851  11.979  12.464  0.00  0.00     0.012 A 
ENDBRANCH   3  21
TORSDOF 3
ENDMDL
