REMARK  7 active torsions:
REMARK  status: ('A' for Active; 'I' for Inactive)
REMARK    1  A    between atoms: C_3  and  N_4 
REMARK    2  A    between atoms: C_3  and  C_5 
REMARK    3  A    between atoms: C_8  and  C_11 
REMARK    4  A    between atoms: C_11  and  C_12 
REMARK    5  A    between atoms: C_21  and  N_23 
REMARK    6  A    between atoms: N_23  and  S_24 
REMARK    7  A    between atoms: S_24  and  C_25 
ROOT
HETATM    1  C   UNK N   1      -0.947  -0.199  -0.064  0.00  0.00     0.088 A 
HETATM    2  N   UNK N   1       0.009  -1.155   0.006  0.00  0.00    -0.344 N 
ATOM      3  HN  UNK N   1      -0.104  -2.137   0.255  1.00  0.00     0.167 HD
HETATM    4  C   UNK N   1       1.140  -0.513  -0.328  0.00  0.00     0.062 A 
HETATM    5  C   UNK N   1       0.882   0.789  -0.604  0.00  0.00     0.062 A 
HETATM    6  N   UNK N   1      -0.426   1.013  -0.443  0.00  0.00    -0.339 N 
HETATM    7  C   UNK N   1      -1.069   2.304  -0.636  0.00  0.00     0.158 C 
HETATM    8  C   UNK N   1       1.894   1.681  -0.972  0.00  0.00     0.034 A 
HETATM    9  C   UNK N   1       3.214   1.183  -1.017  0.00  0.00     0.032 A 
HETATM   10  C   UNK N   1       3.474  -0.171  -0.692  0.00  0.00     0.044 A 
HETATM   11  C   UNK N   1       2.413  -1.027  -0.355  0.00  0.00     0.062 A 
ENDROOT
BRANCH   1  12
HETATM   12  C   UNK N   1      -2.386  -0.525   0.268  0.00  0.00     0.115 C 
BRANCH  12  13
HETATM   13  C   UNK N   1      -3.275   0.657   0.243  0.00  0.00    -0.051 A 
HETATM   14  C   UNK N   1      -3.258   1.568   1.304  0.00  0.00     0.008 A 
HETATM   15  C   UNK N   1      -3.959   2.770   1.195  0.00  0.00     0.016 A 
HETATM   16  C   UNK N   1      -4.676   3.064   0.026  0.00  0.00     0.007 A 
HETATM   17  C   UNK N   1      -4.721   2.123  -1.013  0.00  0.00     0.016 A 
HETATM   18  C   UNK N   1      -4.019   0.925  -0.907  0.00  0.00     0.008 A 
BRANCH  16  19
HETATM   19  C   UNK N   1      -5.335   4.375  -0.127  0.00  0.00     0.102 C 
HETATM   20  N   UNK N   1      -5.952   4.666  -1.213  0.00  0.00    -0.385 N 
HETATM   21  H   UNK N   1      -5.996   5.188  -2.047  0.00  0.00     0.157 HD
ATOM     22  HN  UNK N   1      -6.790   4.084  -1.213  1.00  0.00     0.157 HD
BRANCH  19  23
HETATM   23  N   UNK N   1      -5.199   5.360   0.878  0.00  0.00    -0.385 N 
HETATM   24  H   UNK N   1      -4.558   5.620   1.578  0.00  0.00     0.157 HD
HETATM   25  H   UNK N   1      -5.976   5.964   0.878  0.00  0.00     0.157 HD
ENDBRANCH  19  23
ENDBRANCH  16  19
ENDBRANCH  12  13
ENDBRANCH   1  12
BRANCH  10  26
HETATM   26  N   UNK N   1       4.803  -0.641  -0.598  0.00  0.00    -0.281 N 
HETATM   27  H   UNK N   1       5.523  -0.188  -1.094  0.00  0.00     0.179 HD
BRANCH  26  28
HETATM   28  S   UNK N   1       5.170  -2.038   0.409  0.00  0.00     0.263 S 
HETATM   29  O   UNK N   1       4.944  -1.515   1.836  0.00  0.00    -0.200 OA
HETATM   30  O   UNK N   1       6.698  -2.184   0.380  0.00  0.00    -0.200 OA
BRANCH  28  31
HETATM   31  C   UNK N   1       4.273  -3.572   0.147  0.00  0.00     0.079 A 
HETATM   32  C   UNK N   1       4.850  -4.610  -0.590  0.00  0.00     0.025 A 
HETATM   33  C   UNK N   1       4.143  -5.800  -0.795  0.00  0.00     0.002 A 
HETATM   34  C   UNK N   1       2.856  -5.951  -0.269  0.00  0.00     0.000 A 
HETATM   35  C   UNK N   1       2.278  -4.917   0.471  0.00  0.00     0.002 A 
HETATM   36  C   UNK N   1       2.988  -3.734   0.684  0.00  0.00     0.025 A 
ENDBRANCH  28  31
ENDBRANCH  26  28
ENDBRANCH  10  26
TORSDOF 7
