MODEL 1
REMARK VINA RESULT:      -9.2      0.000      0.000
REMARK  7 active torsions:
REMARK  status: ('A' for Active; 'I' for Inactive)
REMARK    1  A    between atoms: C_3  and  N_4 
REMARK    2  A    between atoms: C_3  and  C_5 
REMARK    3  A    between atoms: C_8  and  C_11 
REMARK    4  A    between atoms: C_11  and  C_12 
REMARK    5  A    between atoms: C_21  and  N_23 
REMARK    6  A    between atoms: N_23  and  S_24 
REMARK    7  A    between atoms: S_24  and  C_25 
ROOT
HETATM    1  C   UNK N   1      36.364  12.953  13.385  0.00  0.00     0.088 A 
HETATM    2  N   UNK N   1      36.742  14.226  13.119  0.00  0.00    -0.344 N 
ATOM      3  HN  UNK N   1      37.484  14.765  13.564  1.00  0.00     0.167 HD
HETATM    4  C   UNK N   1      35.915  14.615  12.135  0.00  0.00     0.062 A 
HETATM    5  C   UNK N   1      35.068  13.610  11.802  0.00  0.00     0.062 A 
HETATM    6  N   UNK N   1      35.329  12.552  12.577  0.00  0.00    -0.339 N 
HETATM    7  C   UNK N   1      34.606  11.291  12.516  0.00  0.00     0.158 C 
HETATM    8  C   UNK N   1      34.099  13.760  10.806  0.00  0.00     0.034 A 
HETATM    9  C   UNK N   1      34.008  15.018  10.172  0.00  0.00     0.032 A 
HETATM   10  C   UNK N   1      34.876  16.070  10.554  0.00  0.00     0.044 A 
HETATM   11  C   UNK N   1      35.849  15.852  11.543  0.00  0.00     0.062 A 
ENDROOT
BRANCH   1  12
HETATM   12  C   UNK N   1      37.053  12.157  14.470  0.00  0.00     0.115 C 
BRANCH  12  13
HETATM   13  C   UNK N   1      36.344  12.201  15.768  0.00  0.00    -0.051 A 
HETATM   14  C   UNK N   1      36.198  11.034  16.525  0.00  0.00     0.008 A 
HETATM   15  C   UNK N   1      35.693  11.111  17.824  0.00  0.00     0.016 A 
HETATM   16  C   UNK N   1      35.337  12.353  18.369  0.00  0.00     0.007 A 
HETATM   17  C   UNK N   1      35.447  13.511  17.584  0.00  0.00     0.016 A 
HETATM   18  C   UNK N   1      35.954  13.436  16.289  0.00  0.00     0.008 A 
BRANCH  16  19
HETATM   19  C   UNK N   1      34.897  12.445  19.774  0.00  0.00     0.102 C 
HETATM   20  N   UNK N   1      34.680  13.590  20.311  0.00  0.00    -0.385 N 
HETATM   21  H   UNK N   1      34.951  14.290  20.948  0.00  0.00     0.157 HD
ATOM     22  HN  UNK N   1      33.828  13.939  19.871  1.00  0.00     0.157 HD
BRANCH  19  23
HETATM   23  N   UNK N   1      34.815  11.280  20.571  0.00  0.00    -0.385 N 
HETATM   24  H   UNK N   1      35.364  10.791  21.226  0.00  0.00     0.157 HD
HETATM   25  H   UNK N   1      33.957  10.822  20.427  0.00  0.00     0.157 HD
ENDBRANCH  19  23
ENDBRANCH  16  19
ENDBRANCH  12  13
ENDBRANCH   1  12
BRANCH  10  26
HETATM   26  N   UNK N   1      34.701  17.369  10.025  0.00  0.00    -0.281 N 
HETATM   27  H   UNK N   1      34.811  18.157  10.605  0.00  0.00     0.179 HD
BRANCH  26  28
HETATM   28  S   UNK N   1      34.286  17.576   8.327  0.00  0.00     0.263 S 
HETATM   29  O   UNK N   1      35.157  16.526   7.619  0.00  0.00    -0.200 OA
HETATM   30  O   UNK N   1      34.967  18.879   7.886  0.00  0.00    -0.200 OA
BRANCH  28  31
HETATM   31  C   UNK N   1      32.571  17.425   7.815  0.00  0.00     0.079 A 
HETATM   32  C   UNK N   1      32.247  16.798   6.608  0.00  0.00     0.025 A 
HETATM   33  C   UNK N   1      30.909  16.689   6.213  0.00  0.00     0.002 A 
HETATM   34  C   UNK N   1      29.895  17.213   7.020  0.00  0.00     0.000 A 
HETATM   35  C   UNK N   1      30.215  17.837   8.228  0.00  0.00     0.002 A 
HETATM   36  C   UNK N   1      31.549  17.936   8.627  0.00  0.00     0.025 A 
ENDBRANCH  28  31
ENDBRANCH  26  28
ENDBRANCH  10  26
TORSDOF 7
ENDMDL
MODEL 2
REMARK VINA RESULT:      -9.1      3.565      9.800
REMARK  7 active torsions:
REMARK  status: ('A' for Active; 'I' for Inactive)
REMARK    1  A    between atoms: C_3  and  N_4 
REMARK    2  A    between atoms: C_3  and  C_5 
REMARK    3  A    between atoms: C_8  and  C_11 
REMARK    4  A    between atoms: C_11  and  C_12 
REMARK    5  A    between atoms: C_21  and  N_23 
REMARK    6  A    between atoms: N_23  and  S_24 
REMARK    7  A    between atoms: S_24  and  C_25 
ROOT
HETATM    1  C   UNK N   1      34.255  16.907   8.838  0.00  0.00     0.088 A 
HETATM    2  N   UNK N   1      34.493  16.861  10.170  0.00  0.00    -0.344 N 
ATOM      3  HN  UNK N   1      34.215  17.538  10.880  1.00  0.00     0.167 HD
HETATM    4  C   UNK N   1      35.179  15.720  10.341  0.00  0.00     0.062 A 
HETATM    5  C   UNK N   1      35.345  15.084   9.155  0.00  0.00     0.062 A 
HETATM    6  N   UNK N   1      34.773  15.813   8.192  0.00  0.00    -0.339 N 
HETATM    7  C   UNK N   1      34.765  15.451   6.782  0.00  0.00     0.158 C 
HETATM    8  C   UNK N   1      36.035  13.872   9.057  0.00  0.00     0.034 A 
HETATM    9  C   UNK N   1      36.588  13.341  10.242  0.00  0.00     0.032 A 
HETATM   10  C   UNK N   1      36.438  14.034  11.469  0.00  0.00     0.044 A 
HETATM   11  C   UNK N   1      35.711  15.235  11.511  0.00  0.00     0.062 A 
ENDROOT
BRANCH   1  12
HETATM   12  C   UNK N   1      33.509  18.074   8.230  0.00  0.00     0.115 C 
BRANCH  12  13
HETATM   13  C   UNK N   1      32.068  17.808   8.032  0.00  0.00    -0.051 A 
HETATM   14  C   UNK N   1      31.132  18.306   8.944  0.00  0.00     0.008 A 
HETATM   15  C   UNK N   1      29.769  18.211   8.659  0.00  0.00     0.016 A 
HETATM   16  C   UNK N   1      29.339  17.621   7.462  0.00  0.00     0.007 A 
HETATM   17  C   UNK N   1      30.286  17.086   6.575  0.00  0.00     0.016 A 
HETATM   18  C   UNK N   1      31.646  17.184   6.857  0.00  0.00     0.008 A 
BRANCH  16  19
HETATM   19  C   UNK N   1      27.905  17.609   7.116  0.00  0.00     0.102 C 
HETATM   20  N   UNK N   1      27.378  18.607   6.507  0.00  0.00    -0.385 N 
HETATM   21  H   UNK N   1      26.781  19.390   6.526  0.00  0.00     0.157 HD
ATOM     22  HN  UNK N   1      27.754  18.575   5.559  1.00  0.00     0.157 HD
BRANCH  19  23
HETATM   23  N   UNK N   1      27.079  16.547   7.550  0.00  0.00    -0.385 N 
HETATM   24  H   UNK N   1      27.010  15.925   8.309  0.00  0.00     0.157 HD
HETATM   25  H   UNK N   1      26.360  16.380   6.899  0.00  0.00     0.157 HD
ENDBRANCH  19  23
ENDBRANCH  16  19
ENDBRANCH  12  13
ENDBRANCH   1  12
BRANCH  10  26
HETATM   26  N   UNK N   1      37.105  13.584  12.630  0.00  0.00    -0.281 N 
HETATM   27  H   UNK N   1      38.089  13.606  12.674  0.00  0.00     0.179 HD
BRANCH  26  28
HETATM   28  S   UNK N   1      36.175  12.985  13.999  0.00  0.00     0.263 S 
HETATM   29  O   UNK N   1      36.685  11.546  14.172  0.00  0.00    -0.200 OA
HETATM   30  O   UNK N   1      34.756  12.739  13.465  0.00  0.00    -0.200 OA
BRANCH  28  31
HETATM   31  C   UNK N   1      36.236  13.870  15.561  0.00  0.00     0.079 A 
HETATM   32  C   UNK N   1      37.093  14.963  15.719  0.00  0.00     0.025 A 
HETATM   33  C   UNK N   1      37.140  15.645  16.940  0.00  0.00     0.002 A 
HETATM   34  C   UNK N   1      36.335  15.231  18.006  0.00  0.00     0.000 A 
HETATM   35  C   UNK N   1      35.475  14.141  17.850  0.00  0.00     0.002 A 
HETATM   36  C   UNK N   1      35.421  13.468  16.628  0.00  0.00     0.025 A 
ENDBRANCH  28  31
ENDBRANCH  26  28
ENDBRANCH  10  26
TORSDOF 7
ENDMDL
MODEL 3
REMARK VINA RESULT:      -8.7      3.521     10.402
REMARK  7 active torsions:
REMARK  status: ('A' for Active; 'I' for Inactive)
REMARK    1  A    between atoms: C_3  and  N_4 
REMARK    2  A    between atoms: C_3  and  C_5 
REMARK    3  A    between atoms: C_8  and  C_11 
REMARK    4  A    between atoms: C_11  and  C_12 
REMARK    5  A    between atoms: C_21  and  N_23 
REMARK    6  A    between atoms: N_23  and  S_24 
REMARK    7  A    between atoms: S_24  and  C_25 
ROOT
HETATM    1  C   UNK N   1      34.655  16.830   8.938  0.00  0.00     0.088 A 
HETATM    2  N   UNK N   1      34.623  16.962  10.286  0.00  0.00    -0.344 N 
ATOM      3  HN  UNK N   1      34.278  17.752  10.830  1.00  0.00     0.167 HD
HETATM    4  C   UNK N   1      35.149  15.813  10.740  0.00  0.00     0.062 A 
HETATM    5  C   UNK N   1      35.481  15.002   9.705  0.00  0.00     0.062 A 
HETATM    6  N   UNK N   1      35.181  15.621   8.559  0.00  0.00    -0.339 N 
HETATM    7  C   UNK N   1      35.413  15.060   7.236  0.00  0.00     0.158 C 
HETATM    8  C   UNK N   1      36.057  13.744   9.908  0.00  0.00     0.034 A 
HETATM    9  C   UNK N   1      36.314  13.354  11.240  0.00  0.00     0.032 A 
HETATM   10  C   UNK N   1      35.995  14.226  12.309  0.00  0.00     0.044 A 
HETATM   11  C   UNK N   1      35.393  15.467  12.046  0.00  0.00     0.062 A 
ENDROOT
BRANCH   1  12
HETATM   12  C   UNK N   1      34.158  17.945   8.045  0.00  0.00     0.115 C 
BRANCH  12  13
HETATM   13  C   UNK N   1      33.039  17.538   7.168  0.00  0.00    -0.051 A 
HETATM   14  C   UNK N   1      31.772  17.304   7.713  0.00  0.00     0.008 A 
HETATM   15  C   UNK N   1      30.682  17.099   6.866  0.00  0.00     0.016 A 
HETATM   16  C   UNK N   1      30.855  17.131   5.475  0.00  0.00     0.007 A 
HETATM   17  C   UNK N   1      32.137  17.324   4.941  0.00  0.00     0.016 A 
HETATM   18  C   UNK N   1      33.226  17.532   5.785  0.00  0.00     0.008 A 
BRANCH  16  19
HETATM   19  C   UNK N   1      29.686  17.013   4.582  0.00  0.00     0.102 C 
HETATM   20  N   UNK N   1      28.511  16.861   5.071  0.00  0.00    -0.385 N 
HETATM   21  H   UNK N   1      27.728  16.284   5.230  0.00  0.00     0.157 HD
ATOM     22  HN  UNK N   1      28.276  17.759   5.496  1.00  0.00     0.157 HD
BRANCH  19  23
HETATM   23  N   UNK N   1      29.866  16.957   3.181  0.00  0.00    -0.385 N 
HETATM   24  H   UNK N   1      30.217  16.335   2.504  0.00  0.00     0.157 HD
HETATM   25  H   UNK N   1      29.545  17.785   2.757  0.00  0.00     0.157 HD
ENDBRANCH  19  23
ENDBRANCH  16  19
ENDBRANCH  12  13
ENDBRANCH   1  12
BRANCH  10  26
HETATM   26  N   UNK N   1      36.376  13.905  13.631  0.00  0.00    -0.281 N 
HETATM   27  H   UNK N   1      37.056  14.446  14.094  0.00  0.00     0.179 HD
BRANCH  26  28
HETATM   28  S   UNK N   1      35.631  12.536  14.451  0.00  0.00     0.263 S 
HETATM   29  O   UNK N   1      36.474  11.340  13.980  0.00  0.00    -0.200 OA
HETATM   30  O   UNK N   1      34.308  12.279  13.716  0.00  0.00    -0.200 OA
BRANCH  28  31
HETATM   31  C   UNK N   1      35.496  12.549  16.242  0.00  0.00     0.079 A 
HETATM   32  C   UNK N   1      35.509  11.350  16.960  0.00  0.00     0.025 A 
HETATM   33  C   UNK N   1      35.397  11.368  18.354  0.00  0.00     0.002 A 
HETATM   34  C   UNK N   1      35.265  12.584  19.032  0.00  0.00     0.000 A 
HETATM   35  C   UNK N   1      35.255  13.784  18.318  0.00  0.00     0.002 A 
HETATM   36  C   UNK N   1      35.377  13.767  16.927  0.00  0.00     0.025 A 
ENDBRANCH  28  31
ENDBRANCH  26  28
ENDBRANCH  10  26
TORSDOF 7
ENDMDL
MODEL 4
REMARK VINA RESULT:      -8.7      3.580      9.768
REMARK  7 active torsions:
REMARK  status: ('A' for Active; 'I' for Inactive)
REMARK    1  A    between atoms: C_3  and  N_4 
REMARK    2  A    between atoms: C_3  and  C_5 
REMARK    3  A    between atoms: C_8  and  C_11 
REMARK    4  A    between atoms: C_11  and  C_12 
REMARK    5  A    between atoms: C_21  and  N_23 
REMARK    6  A    between atoms: N_23  and  S_24 
REMARK    7  A    between atoms: S_24  and  C_25 
ROOT
HETATM    1  C   UNK N   1      34.411  16.553   8.884  0.00  0.00     0.088 A 
HETATM    2  N   UNK N   1      34.790  17.001  10.103  0.00  0.00    -0.344 N 
ATOM      3  HN  UNK N   1      34.781  17.960  10.449  1.00  0.00     0.167 HD
HETATM    4  C   UNK N   1      35.182  15.893  10.753  0.00  0.00     0.062 A 
HETATM    5  C   UNK N   1      35.036  14.803   9.961  0.00  0.00     0.062 A 
HETATM    6  N   UNK N   1      34.554  15.192   8.776  0.00  0.00    -0.339 N 
HETATM    7  C   UNK N   1      34.283  14.294   7.664  0.00  0.00     0.158 C 
HETATM    8  C   UNK N   1      35.381  13.521  10.398  0.00  0.00     0.034 A 
HETATM    9  C   UNK N   1      35.923  13.400  11.696  0.00  0.00     0.032 A 
HETATM   10  C   UNK N   1      36.103  14.552  12.500  0.00  0.00     0.044 A 
HETATM   11  C   UNK N   1      35.713  15.812  12.017  0.00  0.00     0.062 A 
ENDROOT
BRANCH   1  12
HETATM   12  C   UNK N   1      33.915  17.518   7.830  0.00  0.00     0.115 C 
BRANCH  12  13
HETATM   13  C   UNK N   1      32.443  17.652   7.805  0.00  0.00    -0.051 A 
HETATM   14  C   UNK N   1      31.685  16.881   6.918  0.00  0.00     0.008 A 
HETATM   15  C   UNK N   1      30.293  16.876   7.022  0.00  0.00     0.016 A 
HETATM   16  C   UNK N   1      29.657  17.638   8.012  0.00  0.00     0.007 A 
HETATM   17  C   UNK N   1      30.426  18.441   8.867  0.00  0.00     0.016 A 
HETATM   18  C   UNK N   1      31.815  18.445   8.767  0.00  0.00     0.008 A 
BRANCH  16  19
HETATM   19  C   UNK N   1      28.194  17.555   8.184  0.00  0.00     0.102 C 
HETATM   20  N   UNK N   1      27.486  16.859   7.373  0.00  0.00    -0.385 N 
HETATM   21  H   UNK N   1      26.827  16.822   6.641  0.00  0.00     0.157 HD
ATOM     22  HN  UNK N   1      27.710  15.886   7.584  1.00  0.00     0.157 HD
BRANCH  19  23
HETATM   23  N   UNK N   1      27.550  18.329   9.176  0.00  0.00    -0.385 N 
HETATM   24  H   UNK N   1      26.639  18.608   9.423  0.00  0.00     0.157 HD
HETATM   25  H   UNK N   1      28.208  18.700   9.807  0.00  0.00     0.157 HD
ENDBRANCH  19  23
ENDBRANCH  16  19
ENDBRANCH  12  13
ENDBRANCH   1  12
BRANCH  10  26
HETATM   26  N   UNK N   1      36.771  14.460  13.741  0.00  0.00    -0.281 N 
HETATM   27  H   UNK N   1      37.573  15.007  13.912  0.00  0.00     0.179 HD
BRANCH  26  28
HETATM   28  S   UNK N   1      36.168  13.368  14.983  0.00  0.00     0.263 S 
HETATM   29  O   UNK N   1      34.664  13.285  14.681  0.00  0.00    -0.200 OA
HETATM   30  O   UNK N   1      36.169  14.177  16.288  0.00  0.00    -0.200 OA
BRANCH  28  31
HETATM   31  C   UNK N   1      36.876  11.724  15.129  0.00  0.00     0.079 A 
HETATM   32  C   UNK N   1      37.883  11.309  14.252  0.00  0.00     0.025 A 
HETATM   33  C   UNK N   1      38.426  10.024  14.368  0.00  0.00     0.002 A 
HETATM   34  C   UNK N   1      37.959   9.152  15.356  0.00  0.00     0.000 A 
HETATM   35  C   UNK N   1      36.956   9.565  16.236  0.00  0.00     0.002 A 
HETATM   36  C   UNK N   1      36.422  10.850  16.127  0.00  0.00     0.025 A 
ENDBRANCH  28  31
ENDBRANCH  26  28
ENDBRANCH  10  26
TORSDOF 7
ENDMDL
MODEL 5
REMARK VINA RESULT:      -8.3      9.120     13.873
REMARK  7 active torsions:
REMARK  status: ('A' for Active; 'I' for Inactive)
REMARK    1  A    between atoms: C_3  and  N_4 
REMARK    2  A    between atoms: C_3  and  C_5 
REMARK    3  A    between atoms: C_8  and  C_11 
REMARK    4  A    between atoms: C_11  and  C_12 
REMARK    5  A    between atoms: C_21  and  N_23 
REMARK    6  A    between atoms: N_23  and  S_24 
REMARK    7  A    between atoms: S_24  and  C_25 
ROOT
HETATM    1  C   UNK N   1      25.612  18.903   4.473  0.00  0.00     0.088 A 
HETATM    2  N   UNK N   1      25.060  17.996   5.313  0.00  0.00    -0.344 N 
ATOM      3  HN  UNK N   1      25.534  17.403   5.994  1.00  0.00     0.167 HD
HETATM    4  C   UNK N   1      23.746  18.055   5.043  0.00  0.00     0.062 A 
HETATM    5  C   UNK N   1      23.501  18.976   4.079  0.00  0.00     0.062 A 
HETATM    6  N   UNK N   1      24.661  19.524   3.701  0.00  0.00    -0.339 N 
HETATM    7  C   UNK N   1      24.792  20.543   2.671  0.00  0.00     0.158 C 
HETATM    8  C   UNK N   1      22.209  19.228   3.609  0.00  0.00     0.034 A 
HETATM    9  C   UNK N   1      21.158  18.461   4.155  0.00  0.00     0.032 A 
HETATM   10  C   UNK N   1      21.432  17.477   5.136  0.00  0.00     0.044 A 
HETATM   11  C   UNK N   1      22.748  17.287   5.589  0.00  0.00     0.062 A 
ENDROOT
BRANCH   1  12
HETATM   12  C   UNK N   1      27.108  19.123   4.454  0.00  0.00     0.115 C 
BRANCH  12  13
HETATM   13  C   UNK N   1      27.785  18.652   5.682  0.00  0.00    -0.051 A 
HETATM   14  C   UNK N   1      28.591  17.509   5.641  0.00  0.00     0.008 A 
HETATM   15  C   UNK N   1      29.369  17.173   6.750  0.00  0.00     0.016 A 
HETATM   16  C   UNK N   1      29.345  17.977   7.898  0.00  0.00     0.007 A 
HETATM   17  C   UNK N   1      28.499  19.095   7.942  0.00  0.00     0.016 A 
HETATM   18  C   UNK N   1      27.725  19.434   6.836  0.00  0.00     0.008 A 
BRANCH  16  19
HETATM   19  C   UNK N   1      30.240  17.676   9.031  0.00  0.00     0.102 C 
HETATM   20  N   UNK N   1      31.512  17.758   8.890  0.00  0.00    -0.385 N 
HETATM   21  H   UNK N   1      32.387  17.310   8.822  0.00  0.00     0.157 HD
ATOM     22  HN  UNK N   1      31.712  18.756   8.811  1.00  0.00     0.157 HD
BRANCH  19  23
HETATM   23  N   UNK N   1      29.709  17.190  10.248  0.00  0.00    -0.385 N 
HETATM   24  H   UNK N   1      30.027  16.910  11.136  0.00  0.00     0.157 HD
HETATM   25  H   UNK N   1      28.730  17.105  10.188  0.00  0.00     0.157 HD
ENDBRANCH  19  23
ENDBRANCH  16  19
ENDBRANCH  12  13
ENDBRANCH   1  12
BRANCH  10  26
HETATM   26  N   UNK N   1      20.410  16.611   5.585  0.00  0.00    -0.281 N 
HETATM   27  H   UNK N   1      19.870  16.106   4.935  0.00  0.00     0.179 HD
BRANCH  26  28
HETATM   28  S   UNK N   1      20.105  16.434   7.310  0.00  0.00     0.263 S 
HETATM   29  O   UNK N   1      18.573  16.351   7.392  0.00  0.00    -0.200 OA
HETATM   30  O   UNK N   1      20.365  17.817   7.924  0.00  0.00    -0.200 OA
BRANCH  28  31
HETATM   31  C   UNK N   1      20.862  15.072   8.203  0.00  0.00     0.079 A 
HETATM   32  C   UNK N   1      20.269  14.575   9.368  0.00  0.00     0.025 A 
HETATM   33  C   UNK N   1      20.868  13.518  10.061  0.00  0.00     0.002 A 
HETATM   34  C   UNK N   1      22.063  12.960   9.595  0.00  0.00     0.000 A 
HETATM   35  C   UNK N   1      22.655  13.452   8.430  0.00  0.00     0.002 A 
HETATM   36  C   UNK N   1      22.052  14.500   7.733  0.00  0.00     0.025 A 
ENDBRANCH  28  31
ENDBRANCH  26  28
ENDBRANCH  10  26
TORSDOF 7
ENDMDL
MODEL 6
REMARK VINA RESULT:      -8.2      1.883      2.569
REMARK  7 active torsions:
REMARK  status: ('A' for Active; 'I' for Inactive)
REMARK    1  A    between atoms: C_3  and  N_4 
REMARK    2  A    between atoms: C_3  and  C_5 
REMARK    3  A    between atoms: C_8  and  C_11 
REMARK    4  A    between atoms: C_11  and  C_12 
REMARK    5  A    between atoms: C_21  and  N_23 
REMARK    6  A    between atoms: N_23  and  S_24 
REMARK    7  A    between atoms: S_24  and  C_25 
ROOT
HETATM    1  C   UNK N   1      35.453  12.254  11.697  0.00  0.00     0.088 A 
HETATM    2  N   UNK N   1      34.419  12.974  11.200  0.00  0.00    -0.344 N 
ATOM      3  HN  UNK N   1      33.485  13.084  11.594  1.00  0.00     0.167 HD
HETATM    4  C   UNK N   1      34.905  13.508  10.068  0.00  0.00     0.062 A 
HETATM    5  C   UNK N   1      36.196  13.137   9.886  0.00  0.00     0.062 A 
HETATM    6  N   UNK N   1      36.565  12.345  10.898  0.00  0.00    -0.339 N 
HETATM    7  C   UNK N   1      37.882  11.741  11.031  0.00  0.00     0.158 C 
HETATM    8  C   UNK N   1      36.935  13.555   8.774  0.00  0.00     0.034 A 
HETATM    9  C   UNK N   1      36.275  14.359   7.820  0.00  0.00     0.032 A 
HETATM   10  C   UNK N   1      34.915  14.710   8.006  0.00  0.00     0.044 A 
HETATM   11  C   UNK N   1      34.232  14.283   9.156  0.00  0.00     0.062 A 
ENDROOT
BRANCH   1  12
HETATM   12  C   UNK N   1      35.296  11.468  12.979  0.00  0.00     0.115 C 
BRANCH  12  13
HETATM   13  C   UNK N   1      35.300  12.317  14.191  0.00  0.00    -0.051 A 
HETATM   14  C   UNK N   1      34.295  12.169  15.152  0.00  0.00     0.008 A 
HETATM   15  C   UNK N   1      34.401  12.839  16.372  0.00  0.00     0.016 A 
HETATM   16  C   UNK N   1      35.511  13.655  16.634  0.00  0.00     0.007 A 
HETATM   17  C   UNK N   1      36.490  13.829  15.645  0.00  0.00     0.016 A 
HETATM   18  C   UNK N   1      36.387  13.159  14.428  0.00  0.00     0.008 A 
BRANCH  16  19
HETATM   19  C   UNK N   1      35.671  14.283  17.959  0.00  0.00     0.102 C 
HETATM   20  N   UNK N   1      36.299  15.395  18.077  0.00  0.00    -0.385 N 
HETATM   21  H   UNK N   1      37.095  15.889  18.381  0.00  0.00     0.157 HD
ATOM     22  HN  UNK N   1      35.688  16.097  17.658  1.00  0.00     0.157 HD
BRANCH  19  23
HETATM   23  N   UNK N   1      35.228  13.611  19.122  0.00  0.00    -0.385 N 
HETATM   24  H   UNK N   1      35.334  13.673  20.098  0.00  0.00     0.157 HD
HETATM   25  H   UNK N   1      34.641  12.858  18.884  0.00  0.00     0.157 HD
ENDBRANCH  19  23
ENDBRANCH  16  19
ENDBRANCH  12  13
ENDBRANCH   1  12
BRANCH  10  26
HETATM   26  N   UNK N   1      34.209  15.394   6.992  0.00  0.00    -0.281 N 
HETATM   27  H   UNK N   1      34.008  14.943   6.139  0.00  0.00     0.179 HD
BRANCH  26  28
HETATM   28  S   UNK N   1      33.686  17.055   7.254  0.00  0.00     0.263 S 
HETATM   29  O   UNK N   1      34.199  17.789   6.006  0.00  0.00    -0.200 OA
HETATM   30  O   UNK N   1      34.615  17.618   8.339  0.00  0.00    -0.200 OA
BRANCH  28  31
HETATM   31  C   UNK N   1      31.943  17.397   7.519  0.00  0.00     0.079 A 
HETATM   32  C   UNK N   1      31.523  18.073   8.668  0.00  0.00     0.025 A 
HETATM   33  C   UNK N   1      30.162  18.331   8.871  0.00  0.00     0.002 A 
HETATM   34  C   UNK N   1      29.220  17.908   7.928  0.00  0.00     0.000 A 
HETATM   35  C   UNK N   1      29.637  17.236   6.777  0.00  0.00     0.002 A 
HETATM   36  C   UNK N   1      30.995  16.988   6.571  0.00  0.00     0.025 A 
ENDBRANCH  28  31
ENDBRANCH  26  28
ENDBRANCH  10  26
TORSDOF 7
ENDMDL
MODEL 7
REMARK VINA RESULT:      -8.0      6.300     13.485
REMARK  7 active torsions:
REMARK  status: ('A' for Active; 'I' for Inactive)
REMARK    1  A    between atoms: C_3  and  N_4 
REMARK    2  A    between atoms: C_3  and  C_5 
REMARK    3  A    between atoms: C_8  and  C_11 
REMARK    4  A    between atoms: C_11  and  C_12 
REMARK    5  A    between atoms: C_21  and  N_23 
REMARK    6  A    between atoms: N_23  and  S_24 
REMARK    7  A    between atoms: S_24  and  C_25 
ROOT
HETATM    1  C   UNK N   1      27.557  19.577   4.528  0.00  0.00     0.088 A 
HETATM    2  N   UNK N   1      28.507  18.628   4.362  0.00  0.00    -0.344 N 
ATOM      3  HN  UNK N   1      28.839  18.219   3.489  1.00  0.00     0.167 HD
HETATM    4  C   UNK N   1      28.913  18.348   5.611  0.00  0.00     0.062 A 
HETATM    5  C   UNK N   1      28.241  19.109   6.510  0.00  0.00     0.062 A 
HETATM    6  N   UNK N   1      27.379  19.891   5.852  0.00  0.00    -0.339 N 
HETATM    7  C   UNK N   1      26.472  20.833   6.491  0.00  0.00     0.158 C 
HETATM    8  C   UNK N   1      28.472  19.006   7.885  0.00  0.00     0.034 A 
HETATM    9  C   UNK N   1      29.416  18.050   8.315  0.00  0.00     0.032 A 
HETATM   10  C   UNK N   1      30.086  17.237   7.368  0.00  0.00     0.044 A 
HETATM   11  C   UNK N   1      29.832  17.404   5.997  0.00  0.00     0.062 A 
ENDROOT
BRANCH   1  12
HETATM   12  C   UNK N   1      26.826  20.150   3.334  0.00  0.00     0.115 C 
BRANCH  12  13
HETATM   13  C   UNK N   1      25.391  19.793   3.299  0.00  0.00    -0.051 A 
HETATM   14  C   UNK N   1      24.951  18.603   3.887  0.00  0.00     0.008 A 
HETATM   15  C   UNK N   1      23.583  18.358   4.013  0.00  0.00     0.016 A 
HETATM   16  C   UNK N   1      22.653  19.302   3.553  0.00  0.00     0.007 A 
HETATM   17  C   UNK N   1      23.107  20.471   2.926  0.00  0.00     0.016 A 
HETATM   18  C   UNK N   1      24.472  20.719   2.803  0.00  0.00     0.008 A 
BRANCH  16  19
HETATM   19  C   UNK N   1      21.210  19.086   3.775  0.00  0.00     0.102 C 
HETATM   20  N   UNK N   1      20.775  17.932   4.126  0.00  0.00    -0.385 N 
HETATM   21  H   UNK N   1      20.280  17.111   3.902  0.00  0.00     0.157 HD
ATOM     22  HN  UNK N   1      21.088  17.806   5.089  1.00  0.00     0.157 HD
BRANCH  19  23
HETATM   23  N   UNK N   1      20.287  20.120   3.496  0.00  0.00    -0.385 N 
HETATM   24  H   UNK N   1      19.316  20.234   3.381  0.00  0.00     0.157 HD
HETATM   25  H   UNK N   1      20.753  20.979   3.384  0.00  0.00     0.157 HD
ENDBRANCH  19  23
ENDBRANCH  16  19
ENDBRANCH  12  13
ENDBRANCH   1  12
BRANCH  10  26
HETATM   26  N   UNK N   1      30.926  16.184   7.797  0.00  0.00    -0.281 N 
HETATM   27  H   UNK N   1      30.534  15.358   8.162  0.00  0.00     0.179 HD
BRANCH  26  28
HETATM   28  S   UNK N   1      32.674  16.353   7.674  0.00  0.00     0.263 S 
HETATM   29  O   UNK N   1      32.857  17.792   7.168  0.00  0.00    -0.200 OA
HETATM   30  O   UNK N   1      33.086  15.543   6.436  0.00  0.00    -0.200 OA
BRANCH  28  31
HETATM   31  C   UNK N   1      33.691  16.057   9.125  0.00  0.00     0.079 A 
HETATM   32  C   UNK N   1      34.700  16.959   9.476  0.00  0.00     0.025 A 
HETATM   33  C   UNK N   1      35.491  16.720  10.604  0.00  0.00     0.002 A 
HETATM   34  C   UNK N   1      35.280  15.575  11.379  0.00  0.00     0.000 A 
HETATM   35  C   UNK N   1      34.271  14.674  11.034  0.00  0.00     0.002 A 
HETATM   36  C   UNK N   1      33.474  14.919   9.914  0.00  0.00     0.025 A 
ENDBRANCH  28  31
ENDBRANCH  26  28
ENDBRANCH  10  26
TORSDOF 7
ENDMDL
MODEL 8
REMARK VINA RESULT:      -7.9      3.666     10.042
REMARK  7 active torsions:
REMARK  status: ('A' for Active; 'I' for Inactive)
REMARK    1  A    between atoms: C_3  and  N_4 
REMARK    2  A    between atoms: C_3  and  C_5 
REMARK    3  A    between atoms: C_8  and  C_11 
REMARK    4  A    between atoms: C_11  and  C_12 
REMARK    5  A    between atoms: C_21  and  N_23 
REMARK    6  A    between atoms: N_23  and  S_24 
REMARK    7  A    between atoms: S_24  and  C_25 
ROOT
HETATM    1  C   UNK N   1      34.948  15.631   7.383  0.00  0.00     0.088 A 
HETATM    2  N   UNK N   1      35.657  14.559   7.806  0.00  0.00    -0.344 N 
ATOM      3  HN  UNK N   1      35.972  13.760   7.258  1.00  0.00     0.167 HD
HETATM    4  C   UNK N   1      35.853  14.791   9.114  0.00  0.00     0.062 A 
HETATM    5  C   UNK N   1      35.291  15.970   9.476  0.00  0.00     0.062 A 
HETATM    6  N   UNK N   1      34.712  16.519   8.404  0.00  0.00    -0.339 N 
HETATM    7  C   UNK N   1      33.994  17.785   8.414  0.00  0.00     0.158 C 
HETATM    8  C   UNK N   1      35.346  16.443  10.791  0.00  0.00     0.034 A 
HETATM    9  C   UNK N   1      35.987  15.626  11.748  0.00  0.00     0.032 A 
HETATM   10  C   UNK N   1      36.539  14.380  11.363  0.00  0.00     0.044 A 
HETATM   11  C   UNK N   1      36.476  13.970  10.022  0.00  0.00     0.062 A 
ENDROOT
BRANCH   1  12
HETATM   12  C   UNK N   1      34.503  15.739   5.942  0.00  0.00     0.115 C 
BRANCH  12  13
HETATM   13  C   UNK N   1      33.049  15.971   5.793  0.00  0.00    -0.051 A 
HETATM   14  C   UNK N   1      32.138  15.160   6.477  0.00  0.00     0.008 A 
HETATM   15  C   UNK N   1      30.782  15.493   6.480  0.00  0.00     0.016 A 
HETATM   16  C   UNK N   1      30.336  16.637   5.802  0.00  0.00     0.007 A 
HETATM   17  C   UNK N   1      31.254  17.418   5.085  0.00  0.00     0.016 A 
HETATM   18  C   UNK N   1      32.607  17.088   5.084  0.00  0.00     0.008 A 
BRANCH  16  19
HETATM   19  C   UNK N   1      28.920  17.042   5.888  0.00  0.00     0.102 C 
HETATM   20  N   UNK N   1      28.031  16.434   5.192  0.00  0.00    -0.385 N 
HETATM   21  H   UNK N   1      27.394  16.442   4.441  0.00  0.00     0.157 HD
ATOM     22  HN  UNK N   1      27.941  15.510   5.614  1.00  0.00     0.157 HD
BRANCH  19  23
HETATM   23  N   UNK N   1      28.549  18.171   6.653  0.00  0.00    -0.385 N 
HETATM   24  H   UNK N   1      28.858  19.092   6.811  0.00  0.00     0.157 HD
HETATM   25  H   UNK N   1      27.744  17.979   7.186  0.00  0.00     0.157 HD
ENDBRANCH  19  23
ENDBRANCH  16  19
ENDBRANCH  12  13
ENDBRANCH   1  12
BRANCH  10  26
HETATM   26  N   UNK N   1      37.055  13.496  12.337  0.00  0.00    -0.281 N 
HETATM   27  H   UNK N   1      37.971  13.145  12.249  0.00  0.00     0.179 HD
BRANCH  26  28
HETATM   28  S   UNK N   1      36.058  13.023  13.709  0.00  0.00     0.263 S 
HETATM   29  O   UNK N   1      36.379  11.530  13.882  0.00  0.00    -0.200 OA
HETATM   30  O   UNK N   1      34.619  12.962  13.178  0.00  0.00    -0.200 OA
BRANCH  28  31
HETATM   31  C   UNK N   1      36.238  13.894  15.269  0.00  0.00     0.079 A 
HETATM   32  C   UNK N   1      35.502  13.496  16.389  0.00  0.00     0.025 A 
HETATM   33  C   UNK N   1      35.643  14.183  17.600  0.00  0.00     0.002 A 
HETATM   34  C   UNK N   1      36.513  15.273  17.691  0.00  0.00     0.000 A 
HETATM   35  C   UNK N   1      37.252  15.672  16.575  0.00  0.00     0.002 A 
HETATM   36  C   UNK N   1      37.120  14.980  15.370  0.00  0.00     0.025 A 
ENDBRANCH  28  31
ENDBRANCH  26  28
ENDBRANCH  10  26
TORSDOF 7
ENDMDL
MODEL 9
REMARK VINA RESULT:      -7.8     10.738     12.464
REMARK  7 active torsions:
REMARK  status: ('A' for Active; 'I' for Inactive)
REMARK    1  A    between atoms: C_3  and  N_4 
REMARK    2  A    between atoms: C_3  and  C_5 
REMARK    3  A    between atoms: C_8  and  C_11 
REMARK    4  A    between atoms: C_11  and  C_12 
REMARK    5  A    between atoms: C_21  and  N_23 
REMARK    6  A    between atoms: N_23  and  S_24 
REMARK    7  A    between atoms: S_24  and  C_25 
ROOT
HETATM    1  C   UNK N   1      23.196  15.482   5.787  0.00  0.00     0.088 A 
HETATM    2  N   UNK N   1      24.260  15.544   6.621  0.00  0.00    -0.344 N 
ATOM      3  HN  UNK N   1      24.255  15.599   7.639  1.00  0.00     0.167 HD
HETATM    4  C   UNK N   1      25.322  15.515   5.801  0.00  0.00     0.062 A 
HETATM    5  C   UNK N   1      24.921  15.427   4.509  0.00  0.00     0.062 A 
HETATM    6  N   UNK N   1      23.585  15.407   4.473  0.00  0.00    -0.339 N 
HETATM    7  C   UNK N   1      22.797  15.335   3.252  0.00  0.00     0.158 C 
HETATM    8  C   UNK N   1      25.836  15.389   3.452  0.00  0.00     0.034 A 
HETATM    9  C   UNK N   1      27.207  15.477   3.776  0.00  0.00     0.032 A 
HETATM   10  C   UNK N   1      27.611  15.603   5.128  0.00  0.00     0.044 A 
HETATM   11  C   UNK N   1      26.647  15.610   6.150  0.00  0.00     0.062 A 
ENDROOT
BRANCH   1  12
HETATM   12  C   UNK N   1      21.786  15.513   6.334  0.00  0.00     0.115 C 
BRANCH  12  13
HETATM   13  C   UNK N   1      21.572  14.569   7.453  0.00  0.00    -0.051 A 
HETATM   14  C   UNK N   1      22.007  13.245   7.345  0.00  0.00     0.008 A 
HETATM   15  C   UNK N   1      21.969  12.410   8.463  0.00  0.00     0.016 A 
HETATM   16  C   UNK N   1      21.499  12.898   9.691  0.00  0.00     0.007 A 
HETATM   17  C   UNK N   1      21.025  14.215   9.776  0.00  0.00     0.016 A 
HETATM   18  C   UNK N   1      21.066  15.050   8.662  0.00  0.00     0.008 A 
BRANCH  16  19
HETATM   19  C   UNK N   1      21.550  12.046  10.894  0.00  0.00     0.102 C 
HETATM   20  N   UNK N   1      20.566  12.026  11.715  0.00  0.00    -0.385 N 
HETATM   21  H   UNK N   1      20.194  12.261  12.596  0.00  0.00     0.157 HD
ATOM     22  HN  UNK N   1      19.815  11.537  11.226  1.00  0.00     0.157 HD
BRANCH  19  23
HETATM   23  N   UNK N   1      22.728  11.329  11.206  0.00  0.00    -0.385 N 
HETATM   24  H   UNK N   1      23.703  11.466  11.196  0.00  0.00     0.157 HD
HETATM   25  H   UNK N   1      22.508  10.426  11.530  0.00  0.00     0.157 HD
ENDBRANCH  19  23
ENDBRANCH  16  19
ENDBRANCH  12  13
ENDBRANCH   1  12
BRANCH  10  26
HETATM   26  N   UNK N   1      28.967  15.833   5.451  0.00  0.00    -0.281 N 
HETATM   27  H   UNK N   1      29.602  15.080   5.478  0.00  0.00     0.179 HD
BRANCH  26  28
HETATM   28  S   UNK N   1      29.521  17.467   5.803  0.00  0.00     0.263 S 
HETATM   29  O   UNK N   1      30.692  17.661   4.828  0.00  0.00    -0.200 OA
HETATM   30  O   UNK N   1      30.259  17.377   7.146  0.00  0.00    -0.200 OA
BRANCH  28  31
HETATM   31  C   UNK N   1      28.362  18.834   5.682  0.00  0.00     0.079 A 
HETATM   32  C   UNK N   1      27.872  19.236   4.437  0.00  0.00     0.025 A 
HETATM   33  C   UNK N   1      26.974  20.306   4.350  0.00  0.00     0.002 A 
HETATM   34  C   UNK N   1      26.570  20.978   5.508  0.00  0.00     0.000 A 
HETATM   35  C   UNK N   1      27.055  20.576   6.754  0.00  0.00     0.002 A 
HETATM   36  C   UNK N   1      27.943  19.502   6.841  0.00  0.00     0.025 A 
ENDBRANCH  28  31
ENDBRANCH  26  28
ENDBRANCH  10  26
TORSDOF 7
ENDMDL
