MODEL 1
REMARK VINA RESULT:      -6.5      0.000      0.000
REMARK  6 active torsions:
REMARK  status: ('A' for Active; 'I' for Inactive)
REMARK    1  A    between atoms: C_2  and  O_1 
REMARK    2  A    between atoms: C_4  and  C_2 
REMARK    3  A    between atoms: O_5  and  C_4 
REMARK    4  A    between atoms: C_6  and  C_8 
REMARK    5  A    between atoms: C_9  and  C_10 
REMARK    6  A    between atoms: C_10  and  C_12 
ROOT
HETATM    1  C   UNK N   1      22.669  20.297   3.113  0.00  0.00     0.049 C 
HETATM    2  C   UNK N   1      23.781  19.565   3.152  0.00  0.00     0.059 C 
ENDROOT
BRANCH   1   3
HETATM    3  C   UNK N   1      21.307  19.741   3.091  0.00  0.00     0.156 C 
HETATM    4  C   UNK N   1      20.419  20.078   2.127  0.00  0.00     0.179 C 
HETATM    5  F   UNK N   1      20.935  18.867   4.066  0.00  0.00    -0.203 F 
BRANCH   4   6
HETATM    6  C   UNK N   1      20.716  21.025   1.010  0.00  0.00     0.203 C 
HETATM    7  O   UNK N   1      21.193  20.639  -0.047  0.00  0.00    -0.644 OA
BRANCH   6   8
HETATM    8  O   UNK N   1      20.455  22.335   1.165  0.00  0.00    -0.771 OA
HETATM    9  H   UNK N   1      19.750  22.731   0.692  0.00  0.00     0.167 HD
ENDBRANCH   6   8
ENDBRANCH   4   6
BRANCH   4  10
HETATM   10  O   UNK N   1      19.188  19.529   2.170  0.00  0.00    -0.353 OA
HETATM   11  H   UNK N   1      18.821  19.265   2.991  0.00  0.00     0.218 HD
ENDBRANCH   4  10
ENDBRANCH   1   3
BRANCH   2  12
HETATM   12  C   UNK N   1      25.135  20.189   3.172  0.00  0.00     0.182 C 
HETATM   13  O   UNK N   1      25.465  20.864   2.209  0.00  0.00    -0.288 OA
BRANCH  12  14
HETATM   14  C   UNK N   1      26.099  20.027   4.308  0.00  0.00     0.014 A 
HETATM   15  C   UNK N   1      27.169  19.123   4.238  0.00  0.00     0.018 A 
HETATM   16  C   UNK N   1      28.063  18.975   5.295  0.00  0.00     0.043 A 
HETATM   17  C   UNK N   1      27.900  19.735   6.450  0.00  0.00     0.116 A 
HETATM   18  C   UNK N   1      26.841  20.644   6.543  0.00  0.00     0.043 A 
HETATM   19  F   UNK N   1      28.770  19.590   7.477  0.00  0.00    -0.206 F 
HETATM   20  C   UNK N   1      25.944  20.790   5.478  0.00  0.00     0.018 A 
ENDBRANCH  12  14
ENDBRANCH   2  12
TORSDOF 6
ENDMDL
MODEL 2
REMARK VINA RESULT:      -6.3      6.132     10.180
REMARK  6 active torsions:
REMARK  status: ('A' for Active; 'I' for Inactive)
REMARK    1  A    between atoms: C_2  and  O_1 
REMARK    2  A    between atoms: C_4  and  C_2 
REMARK    3  A    between atoms: O_5  and  C_4 
REMARK    4  A    between atoms: C_6  and  C_8 
REMARK    5  A    between atoms: C_9  and  C_10 
REMARK    6  A    between atoms: C_10  and  C_12 
ROOT
HETATM    1  C   UNK N   1      31.559  17.229   7.351  0.00  0.00     0.049 C 
HETATM    2  C   UNK N   1      30.324  16.836   7.040  0.00  0.00     0.059 C 
ENDROOT
BRANCH   1   3
HETATM    3  C   UNK N   1      32.317  16.746   8.515  0.00  0.00     0.156 C 
HETATM    4  C   UNK N   1      33.592  17.137   8.742  0.00  0.00     0.179 C 
HETATM    5  F   UNK N   1      31.719  15.884   9.382  0.00  0.00    -0.203 F 
BRANCH   4   6
HETATM    6  C   UNK N   1      34.348  18.078   7.860  0.00  0.00     0.203 C 
HETATM    7  O   UNK N   1      34.509  17.851   6.670  0.00  0.00    -0.644 OA
BRANCH   6   8
HETATM    8  O   UNK N   1      34.867  19.204   8.383  0.00  0.00    -0.771 OA
HETATM    9  H   UNK N   1      34.335  19.969   8.469  0.00  0.00     0.167 HD
ENDBRANCH   6   8
ENDBRANCH   4   6
BRANCH   4  10
HETATM   10  O   UNK N   1      34.227  16.654   9.829  0.00  0.00    -0.353 OA
HETATM   11  H   UNK N   1      34.230  17.145  10.627  0.00  0.00     0.218 HD
ENDBRANCH   4  10
ENDBRANCH   1   3
BRANCH   2  12
HETATM   12  C   UNK N   1      29.607  17.364   5.845  0.00  0.00     0.182 C 
HETATM   13  O   UNK N   1      29.787  16.799   4.776  0.00  0.00    -0.288 OA
BRANCH  12  14
HETATM   14  C   UNK N   1      28.684  18.544   5.894  0.00  0.00     0.014 A 
HETATM   15  C   UNK N   1      28.277  19.204   4.726  0.00  0.00     0.018 A 
HETATM   16  C   UNK N   1      27.419  20.301   4.774  0.00  0.00     0.043 A 
HETATM   17  C   UNK N   1      26.951  20.758   6.003  0.00  0.00     0.116 A 
HETATM   18  C   UNK N   1      27.342  20.115   7.182  0.00  0.00     0.043 A 
HETATM   19  F   UNK N   1      26.117  21.824   6.049  0.00  0.00    -0.206 F 
HETATM   20  C   UNK N   1      28.205  19.013   7.128  0.00  0.00     0.018 A 
ENDBRANCH  12  14
ENDBRANCH   2  12
TORSDOF 6
ENDMDL
MODEL 3
REMARK VINA RESULT:      -6.1      6.662     10.431
REMARK  6 active torsions:
REMARK  status: ('A' for Active; 'I' for Inactive)
REMARK    1  A    between atoms: C_2  and  O_1 
REMARK    2  A    between atoms: C_4  and  C_2 
REMARK    3  A    between atoms: O_5  and  C_4 
REMARK    4  A    between atoms: C_6  and  C_8 
REMARK    5  A    between atoms: C_9  and  C_10 
REMARK    6  A    between atoms: C_10  and  C_12 
ROOT
HETATM    1  C   UNK N   1      31.570  17.443   8.609  0.00  0.00     0.049 C 
HETATM    2  C   UNK N   1      30.281  17.132   8.467  0.00  0.00     0.059 C 
ENDROOT
BRANCH   1   3
HETATM    3  C   UNK N   1      32.653  16.457   8.742  0.00  0.00     0.156 C 
HETATM    4  C   UNK N   1      33.898  16.705   8.275  0.00  0.00     0.179 C 
HETATM    5  F   UNK N   1      32.393  15.267   9.351  0.00  0.00    -0.203 F 
BRANCH   4   6
HETATM    6  C   UNK N   1      34.298  17.972   7.591  0.00  0.00     0.203 C 
HETATM    7  O   UNK N   1      34.181  18.113   6.383  0.00  0.00    -0.644 OA
BRANCH   6   8
HETATM    8  O   UNK N   1      34.801  18.987   8.317  0.00  0.00    -0.771 OA
HETATM    9  H   UNK N   1      35.322  19.646   7.903  0.00  0.00     0.167 HD
ENDBRANCH   6   8
ENDBRANCH   4   6
BRANCH   4  10
HETATM   10  O   UNK N   1      34.843  15.755   8.432  0.00  0.00    -0.353 OA
HETATM   11  H   UNK N   1      35.390  15.759   9.193  0.00  0.00     0.218 HD
ENDBRANCH   4  10
ENDBRANCH   1   3
BRANCH   2  12
HETATM   12  C   UNK N   1      29.228  18.179   8.336  0.00  0.00     0.182 C 
HETATM   13  O   UNK N   1      28.787  18.674   9.362  0.00  0.00    -0.288 OA
BRANCH  12  14
HETATM   14  C   UNK N   1      28.693  18.647   7.017  0.00  0.00     0.014 A 
HETATM   15  C   UNK N   1      28.961  17.951   5.829  0.00  0.00     0.018 A 
HETATM   16  C   UNK N   1      28.462  18.388   4.604  0.00  0.00     0.043 A 
HETATM   17  C   UNK N   1      27.680  19.539   4.548  0.00  0.00     0.116 A 
HETATM   18  C   UNK N   1      27.399  20.250   5.719  0.00  0.00     0.043 A 
HETATM   19  F   UNK N   1      27.196  19.963   3.357  0.00  0.00    -0.206 F 
HETATM   20  C   UNK N   1      27.903  19.807   6.948  0.00  0.00     0.018 A 
ENDBRANCH  12  14
ENDBRANCH   2  12
TORSDOF 6
ENDMDL
MODEL 4
REMARK VINA RESULT:      -6.1      4.969      5.867
REMARK  6 active torsions:
REMARK  status: ('A' for Active; 'I' for Inactive)
REMARK    1  A    between atoms: C_2  and  O_1 
REMARK    2  A    between atoms: C_4  and  C_2 
REMARK    3  A    between atoms: O_5  and  C_4 
REMARK    4  A    between atoms: C_6  and  C_8 
REMARK    5  A    between atoms: C_9  and  C_10 
REMARK    6  A    between atoms: C_10  and  C_12 
ROOT
HETATM    1  C   UNK N   1      20.638  18.357   4.164  0.00  0.00     0.049 C 
HETATM    2  C   UNK N   1      21.009  17.305   4.893  0.00  0.00     0.059 C 
ENDROOT
BRANCH   1   3
HETATM    3  C   UNK N   1      20.404  18.321   2.712  0.00  0.00     0.156 C 
HETATM    4  C   UNK N   1      20.807  19.329   1.904  0.00  0.00     0.179 C 
HETATM    5  F   UNK N   1      19.766  17.247   2.171  0.00  0.00    -0.203 F 
BRANCH   4   6
HETATM    6  C   UNK N   1      21.515  20.555   2.385  0.00  0.00     0.203 C 
HETATM    7  O   UNK N   1      22.724  20.686   2.261  0.00  0.00    -0.644 OA
BRANCH   6   8
HETATM    8  O   UNK N   1      20.811  21.540   2.969  0.00  0.00    -0.771 OA
HETATM    9  H   UNK N   1      20.987  22.434   2.752  0.00  0.00     0.167 HD
ENDBRANCH   6   8
ENDBRANCH   4   6
BRANCH   4  10
HETATM   10  O   UNK N   1      20.560  19.229   0.582  0.00  0.00    -0.353 OA
HETATM   11  H   UNK N   1      19.684  19.091   0.279  0.00  0.00     0.218 HD
ENDBRANCH   4  10
ENDBRANCH   1   3
BRANCH   2  12
HETATM   12  C   UNK N   1      21.231  17.405   6.364  0.00  0.00     0.182 C 
HETATM   13  O   UNK N   1      21.382  18.519   6.842  0.00  0.00    -0.288 OA
BRANCH  12  14
HETATM   14  C   UNK N   1      21.277  16.214   7.272  0.00  0.00     0.014 A 
HETATM   15  C   UNK N   1      22.223  15.194   7.094  0.00  0.00     0.018 A 
HETATM   16  C   UNK N   1      22.264  14.088   7.940  0.00  0.00     0.043 A 
HETATM   17  C   UNK N   1      21.351  13.984   8.986  0.00  0.00     0.116 A 
HETATM   18  C   UNK N   1      20.398  14.989   9.184  0.00  0.00     0.043 A 
HETATM   19  F   UNK N   1      21.391  12.909   9.808  0.00  0.00    -0.206 F 
HETATM   20  C   UNK N   1      20.361  16.100   8.331  0.00  0.00     0.018 A 
ENDBRANCH  12  14
ENDBRANCH   2  12
TORSDOF 6
ENDMDL
MODEL 5
REMARK VINA RESULT:      -6.1      6.336     10.330
REMARK  6 active torsions:
REMARK  status: ('A' for Active; 'I' for Inactive)
REMARK    1  A    between atoms: C_2  and  O_1 
REMARK    2  A    between atoms: C_4  and  C_2 
REMARK    3  A    between atoms: O_5  and  C_4 
REMARK    4  A    between atoms: C_6  and  C_8 
REMARK    5  A    between atoms: C_9  and  C_10 
REMARK    6  A    between atoms: C_10  and  C_12 
ROOT
HETATM    1  C   UNK N   1      31.060  17.623   8.075  0.00  0.00     0.049 C 
HETATM    2  C   UNK N   1      30.187  18.423   8.687  0.00  0.00     0.059 C 
ENDROOT
BRANCH   1   3
HETATM    3  C   UNK N   1      32.492  17.550   8.403  0.00  0.00     0.156 C 
HETATM    4  C   UNK N   1      33.040  16.436   8.940  0.00  0.00     0.179 C 
HETATM    5  F   UNK N   1      33.282  18.632   8.160  0.00  0.00    -0.203 F 
BRANCH   4   6
HETATM    6  C   UNK N   1      32.272  15.191   9.249  0.00  0.00     0.203 C 
HETATM    7  O   UNK N   1      32.185  14.276   8.445  0.00  0.00    -0.644 OA
BRANCH   6   8
HETATM    8  O   UNK N   1      31.659  15.069  10.441  0.00  0.00    -0.771 OA
HETATM    9  H   UNK N   1      32.022  15.483  11.198  0.00  0.00     0.167 HD
ENDBRANCH   6   8
ENDBRANCH   4   6
BRANCH   4  10
HETATM   10  O   UNK N   1      34.360  16.439   9.216  0.00  0.00    -0.353 OA
HETATM   11  H   UNK N   1      34.803  17.249   9.377  0.00  0.00     0.218 HD
ENDBRANCH   4  10
ENDBRANCH   1   3
BRANCH   2  12
HETATM   12  C   UNK N   1      28.745  18.451   8.308  0.00  0.00     0.182 C 
HETATM   13  O   UNK N   1      27.938  18.000   9.106  0.00  0.00    -0.288 OA
BRANCH  12  14
HETATM   14  C   UNK N   1      28.248  19.002   7.006  0.00  0.00     0.014 A 
HETATM   15  C   UNK N   1      27.610  20.249   6.934  0.00  0.00     0.018 A 
HETATM   16  C   UNK N   1      27.148  20.759   5.723  0.00  0.00     0.043 A 
HETATM   17  C   UNK N   1      27.318  20.023   4.554  0.00  0.00     0.116 A 
HETATM   18  C   UNK N   1      27.951  18.776   4.600  0.00  0.00     0.043 A 
HETATM   19  F   UNK N   1      26.869  20.519   3.377  0.00  0.00    -0.206 F 
HETATM   20  C   UNK N   1      28.414  18.267   5.820  0.00  0.00     0.018 A 
ENDBRANCH  12  14
ENDBRANCH   2  12
TORSDOF 6
ENDMDL
MODEL 6
REMARK VINA RESULT:      -6.0      9.539     12.828
REMARK  6 active torsions:
REMARK  status: ('A' for Active; 'I' for Inactive)
REMARK    1  A    between atoms: C_2  and  O_1 
REMARK    2  A    between atoms: C_4  and  C_2 
REMARK    3  A    between atoms: O_5  and  C_4 
REMARK    4  A    between atoms: C_6  and  C_8 
REMARK    5  A    between atoms: C_9  and  C_10 
REMARK    6  A    between atoms: C_10  and  C_12 
ROOT
HETATM    1  C   UNK N   1      33.902  15.828   8.655  0.00  0.00     0.049 C 
HETATM    2  C   UNK N   1      33.187  16.842   8.167  0.00  0.00     0.059 C 
ENDROOT
BRANCH   1   3
HETATM    3  C   UNK N   1      33.671  15.204   9.966  0.00  0.00     0.156 C 
HETATM    4  C   UNK N   1      34.697  14.863  10.780  0.00  0.00     0.179 C 
HETATM    5  F   UNK N   1      32.392  14.964  10.369  0.00  0.00    -0.203 F 
BRANCH   4   6
HETATM    6  C   UNK N   1      36.137  15.078  10.444  0.00  0.00     0.203 C 
HETATM    7  O   UNK N   1      36.780  14.248   9.818  0.00  0.00    -0.644 OA
BRANCH   6   8
HETATM    8  O   UNK N   1      36.748  16.210  10.838  0.00  0.00    -0.771 OA
HETATM    9  H   UNK N   1      36.264  17.010  10.888  0.00  0.00     0.167 HD
ENDBRANCH   6   8
ENDBRANCH   4   6
BRANCH   4  10
HETATM   10  O   UNK N   1      34.411  14.295  11.969  0.00  0.00    -0.353 OA
HETATM   11  H   UNK N   1      34.101  13.411  12.003  0.00  0.00     0.218 HD
ENDBRANCH   4  10
ENDBRANCH   1   3
BRANCH   2  12
HETATM   12  C   UNK N   1      33.472  17.432   6.828  0.00  0.00     0.182 C 
HETATM   13  O   UNK N   1      34.469  18.128   6.712  0.00  0.00    -0.288 OA
BRANCH  12  14
HETATM   14  C   UNK N   1      32.598  17.213   5.630  0.00  0.00     0.014 A 
HETATM   15  C   UNK N   1      33.078  17.410   4.327  0.00  0.00     0.018 A 
HETATM   16  C   UNK N   1      32.264  17.205   3.215  0.00  0.00     0.043 A 
HETATM   17  C   UNK N   1      30.945  16.797   3.391  0.00  0.00     0.116 A 
HETATM   18  C   UNK N   1      30.443  16.593   4.681  0.00  0.00     0.043 A 
HETATM   19  F   UNK N   1      30.154  16.598   2.310  0.00  0.00    -0.206 F 
HETATM   20  C   UNK N   1      31.265  16.800   5.796  0.00  0.00     0.018 A 
ENDBRANCH  12  14
ENDBRANCH   2  12
TORSDOF 6
ENDMDL
MODEL 7
REMARK VINA RESULT:      -6.0      4.796      8.154
REMARK  6 active torsions:
REMARK  status: ('A' for Active; 'I' for Inactive)
REMARK    1  A    between atoms: C_2  and  O_1 
REMARK    2  A    between atoms: C_4  and  C_2 
REMARK    3  A    between atoms: O_5  and  C_4 
REMARK    4  A    between atoms: C_6  and  C_8 
REMARK    5  A    between atoms: C_9  and  C_10 
REMARK    6  A    between atoms: C_10  and  C_12 
ROOT
HETATM    1  C   UNK N   1      29.176  17.246   6.407  0.00  0.00     0.049 C 
HETATM    2  C   UNK N   1      29.207  17.933   5.265  0.00  0.00     0.059 C 
ENDROOT
BRANCH   1   3
HETATM    3  C   UNK N   1      30.091  17.469   7.536  0.00  0.00     0.156 C 
HETATM    4  C   UNK N   1      29.631  17.745   8.778  0.00  0.00     0.179 C 
HETATM    5  F   UNK N   1      31.434  17.395   7.324  0.00  0.00    -0.203 F 
BRANCH   4   6
HETATM    6  C   UNK N   1      28.182  17.851   9.129  0.00  0.00     0.203 C 
HETATM    7  O   UNK N   1      27.579  16.924   9.650  0.00  0.00    -0.644 OA
BRANCH   6   8
HETATM    8  O   UNK N   1      27.518  18.991   8.867  0.00  0.00    -0.771 OA
HETATM    9  H   UNK N   1      26.979  19.381   9.526  0.00  0.00     0.167 HD
ENDBRANCH   6   8
ENDBRANCH   4   6
BRANCH   4  10
HETATM   10  O   UNK N   1      30.528  17.938   9.767  0.00  0.00    -0.353 OA
HETATM   11  H   UNK N   1      30.820  17.212  10.283  0.00  0.00     0.218 HD
ENDBRANCH   4  10
ENDBRANCH   1   3
BRANCH   2  12
HETATM   12  C   UNK N   1      28.250  17.659   4.156  0.00  0.00     0.182 C 
HETATM   13  O   UNK N   1      28.493  16.721   3.413  0.00  0.00    -0.288 OA
BRANCH  12  14
HETATM   14  C   UNK N   1      27.017  18.475   3.913  0.00  0.00     0.014 A 
HETATM   15  C   UNK N   1      25.736  17.910   3.996  0.00  0.00     0.018 A 
HETATM   16  C   UNK N   1      24.591  18.670   3.770  0.00  0.00     0.043 A 
HETATM   17  C   UNK N   1      24.710  20.021   3.455  0.00  0.00     0.116 A 
HETATM   18  C   UNK N   1      25.977  20.608   3.366  0.00  0.00     0.043 A 
HETATM   19  F   UNK N   1      23.597  20.760   3.235  0.00  0.00    -0.206 F 
HETATM   20  C   UNK N   1      27.125  19.839   3.594  0.00  0.00     0.018 A 
ENDBRANCH  12  14
ENDBRANCH   2  12
TORSDOF 6
ENDMDL
MODEL 8
REMARK VINA RESULT:      -5.9      7.100      9.433
REMARK  6 active torsions:
REMARK  status: ('A' for Active; 'I' for Inactive)
REMARK    1  A    between atoms: C_2  and  O_1 
REMARK    2  A    between atoms: C_4  and  C_2 
REMARK    3  A    between atoms: O_5  and  C_4 
REMARK    4  A    between atoms: C_6  and  C_8 
REMARK    5  A    between atoms: C_9  and  C_10 
REMARK    6  A    between atoms: C_10  and  C_12 
ROOT
HETATM    1  C   UNK N   1      30.955  18.599   8.426  0.00  0.00     0.049 C 
HETATM    2  C   UNK N   1      31.872  17.632   8.393  0.00  0.00     0.059 C 
ENDROOT
BRANCH   1   3
HETATM    3  C   UNK N   1      29.715  18.542   9.214  0.00  0.00     0.156 C 
HETATM    4  C   UNK N   1      28.528  18.222   8.648  0.00  0.00     0.179 C 
HETATM    5  F   UNK N   1      29.765  18.818  10.546  0.00  0.00    -0.203 F 
BRANCH   4   6
HETATM    6  C   UNK N   1      28.353  17.900   7.199  0.00  0.00     0.203 C 
HETATM    7  O   UNK N   1      28.028  18.754   6.388  0.00  0.00    -0.644 OA
BRANCH   6   8
HETATM    8  O   UNK N   1      28.557  16.641   6.770  0.00  0.00    -0.771 OA
HETATM    9  H   UNK N   1      28.589  15.936   7.385  0.00  0.00     0.167 HD
ENDBRANCH   6   8
ENDBRANCH   4   6
BRANCH   4  10
HETATM   10  O   UNK N   1      27.432  18.188   9.432  0.00  0.00    -0.353 OA
HETATM   11  H   UNK N   1      27.410  18.681  10.228  0.00  0.00     0.218 HD
ENDBRANCH   4  10
ENDBRANCH   1   3
BRANCH   2  12
HETATM   12  C   UNK N   1      33.111  17.750   7.572  0.00  0.00     0.182 C 
HETATM   13  O   UNK N   1      34.024  18.430   8.014  0.00  0.00    -0.288 OA
BRANCH  12  14
HETATM   14  C   UNK N   1      33.284  17.079   6.244  0.00  0.00     0.014 A 
HETATM   15  C   UNK N   1      34.080  15.933   6.101  0.00  0.00     0.018 A 
HETATM   16  C   UNK N   1      34.239  15.310   4.865  0.00  0.00     0.043 A 
HETATM   17  C   UNK N   1      33.599  15.829   3.742  0.00  0.00     0.116 A 
HETATM   18  C   UNK N   1      32.800  16.971   3.860  0.00  0.00     0.043 A 
HETATM   19  F   UNK N   1      33.755  15.224   2.541  0.00  0.00    -0.206 F 
HETATM   20  C   UNK N   1      32.643  17.594   5.105  0.00  0.00     0.018 A 
ENDBRANCH  12  14
ENDBRANCH   2  12
TORSDOF 6
ENDMDL
MODEL 9
REMARK VINA RESULT:      -5.9      9.942     11.964
REMARK  6 active torsions:
REMARK  status: ('A' for Active; 'I' for Inactive)
REMARK    1  A    between atoms: C_2  and  O_1 
REMARK    2  A    between atoms: C_4  and  C_2 
REMARK    3  A    between atoms: O_5  and  C_4 
REMARK    4  A    between atoms: C_6  and  C_8 
REMARK    5  A    between atoms: C_9  and  C_10 
REMARK    6  A    between atoms: C_10  and  C_12 
ROOT
HETATM    1  C   UNK N   1      28.184  24.329  -3.455  0.00  0.00     0.049 C 
HETATM    2  C   UNK N   1      26.874  24.165  -3.637  0.00  0.00     0.059 C 
ENDROOT
BRANCH   1   3
HETATM    3  C   UNK N   1      29.016  23.476  -2.593  0.00  0.00     0.156 C 
HETATM    4  C   UNK N   1      30.330  23.275  -2.850  0.00  0.00     0.179 C 
HETATM    5  F   UNK N   1      28.449  22.876  -1.511  0.00  0.00    -0.203 F 
BRANCH   4   6
HETATM    6  C   UNK N   1      31.058  23.881  -4.006  0.00  0.00     0.203 C 
HETATM    7  O   UNK N   1      31.551  24.997  -3.939  0.00  0.00    -0.644 OA
BRANCH   6   8
HETATM    8  O   UNK N   1      31.178  23.186  -5.151  0.00  0.00    -0.771 OA
HETATM    9  H   UNK N   1      31.840  22.529  -5.233  0.00  0.00     0.167 HD
ENDBRANCH   6   8
ENDBRANCH   4   6
BRANCH   4  10
HETATM   10  O   UNK N   1      31.032  22.481  -2.016  0.00  0.00    -0.353 OA
HETATM   11  H   UNK N   1      31.874  22.160  -2.273  0.00  0.00     0.218 HD
ENDBRANCH   4  10
ENDBRANCH   1   3
BRANCH   2  12
HETATM   12  C   UNK N   1      26.085  25.064  -4.527  0.00  0.00     0.182 C 
HETATM   13  O   UNK N   1      25.216  24.559  -5.221  0.00  0.00    -0.288 OA
BRANCH  12  14
HETATM   14  C   UNK N   1      26.307  26.544  -4.607  0.00  0.00     0.014 A 
HETATM   15  C   UNK N   1      25.932  27.399  -3.560  0.00  0.00     0.018 A 
HETATM   16  C   UNK N   1      26.139  28.774  -3.637  0.00  0.00     0.043 A 
HETATM   17  C   UNK N   1      26.731  29.321  -4.772  0.00  0.00     0.116 A 
HETATM   18  C   UNK N   1      27.114  28.489  -5.829  0.00  0.00     0.043 A 
HETATM   19  F   UNK N   1      26.933  30.658  -4.846  0.00  0.00    -0.206 F 
HETATM   20  C   UNK N   1      26.903  27.107  -5.747  0.00  0.00     0.018 A 
ENDBRANCH  12  14
ENDBRANCH   2  12
TORSDOF 6
ENDMDL
