MODEL 1
REMARK VINA RESULT:      -7.3      0.000      0.000
REMARK  1 active torsions:
REMARK  status: ('A' for Active; 'I' for Inactive)
REMARK    1  A    between atoms: C_8  and  N_9 
ROOT
HETATM    1  N   UNK N   1      22.618  20.877   2.288  0.00  0.00    -0.191 NA
HETATM    2  C   UNK N   1      23.523  20.436   2.857  0.00  0.00     0.099 C 
HETATM    3  C   UNK N   1      24.648  19.898   3.557  0.00  0.00     0.044 A 
HETATM    4  C   UNK N   1      25.894  20.515   3.441  0.00  0.00     0.025 A 
HETATM    5  C   UNK N   1      26.996  19.996   4.121  0.00  0.00     0.031 A 
HETATM    6  C   UNK N   1      24.501  18.761   4.353  0.00  0.00     0.025 A 
HETATM    7  C   UNK N   1      25.603  18.243   5.033  0.00  0.00     0.031 A 
HETATM    8  C   UNK N   1      26.865  18.854   4.925  0.00  0.00     0.046 A 
ENDROOT
BRANCH   8   9
HETATM    9  N   UNK N   1      27.997  18.318   5.626  0.00  0.00    -0.244 N 
HETATM   10  C   UNK N   1      28.347  18.614   6.904  0.00  0.00     0.267 A 
HETATM   11  O   UNK N   1      27.741  19.381   7.637  0.00  0.00    -0.267 OA
HETATM   12  C   UNK N   1      29.553  17.876   7.263  0.00  0.00     0.054 A 
HETATM   13  C   UNK N   1      29.902  17.137   6.157  0.00  0.00     0.049 A 
HETATM   14  C   UNK N   1      30.299  17.832   8.438  0.00  0.00    -0.045 A 
HETATM   15  C   UNK N   1      28.904  17.432   5.132  0.00  0.00     0.266 A 
HETATM   16  C   UNK N   1      31.019  16.306   6.152  0.00  0.00     0.018 A 
HETATM   17  O   UNK N   1      28.882  16.960   4.006  0.00  0.00    -0.267 OA
HETATM   18  C   UNK N   1      31.792  16.243   7.328  0.00  0.00     0.002 A 
HETATM   19  C   UNK N   1      31.433  17.003   8.465  0.00  0.00     0.008 A 
HETATM   20  C   UNK N   1      29.914  18.634   9.630  0.00  0.00     0.049 C 
ENDBRANCH   8   9
TORSDOF 1
ENDMDL
MODEL 2
REMARK VINA RESULT:      -7.0      0.624      2.389
REMARK  1 active torsions:
REMARK  status: ('A' for Active; 'I' for Inactive)
REMARK    1  A    between atoms: C_8  and  N_9 
ROOT
HETATM    1  N   UNK N   1      23.057  20.953   2.557  0.00  0.00    -0.191 NA
HETATM    2  C   UNK N   1      23.956  20.478   3.107  0.00  0.00     0.099 C 
HETATM    3  C   UNK N   1      25.075  19.898   3.785  0.00  0.00     0.044 A 
HETATM    4  C   UNK N   1      26.302  20.561   3.786  0.00  0.00     0.025 A 
HETATM    5  C   UNK N   1      27.397  20.002   4.445  0.00  0.00     0.031 A 
HETATM    6  C   UNK N   1      24.939  18.674   4.442  0.00  0.00     0.025 A 
HETATM    7  C   UNK N   1      26.034  18.115   5.100  0.00  0.00     0.031 A 
HETATM    8  C   UNK N   1      27.277  18.772   5.110  0.00  0.00     0.046 A 
ENDROOT
BRANCH   8   9
HETATM    9  N   UNK N   1      28.402  18.195   5.788  0.00  0.00    -0.244 N 
HETATM   10  C   UNK N   1      29.352  17.411   5.216  0.00  0.00     0.267 A 
HETATM   11  O   UNK N   1      29.379  17.089   4.039  0.00  0.00    -0.267 OA
HETATM   12  C   UNK N   1      30.331  17.016   6.223  0.00  0.00     0.054 A 
HETATM   13  C   UNK N   1      29.928  17.592   7.405  0.00  0.00     0.049 A 
HETATM   14  C   UNK N   1      31.477  16.230   6.146  0.00  0.00    -0.045 A 
HETATM   15  C   UNK N   1      28.705  18.333   7.107  0.00  0.00     0.266 A 
HETATM   16  C   UNK N   1      30.643  17.419   8.587  0.00  0.00     0.018 A 
HETATM   17  O   UNK N   1      28.052  18.979   7.913  0.00  0.00    -0.267 OA
HETATM   18  C   UNK N   1      31.807  16.627   8.537  0.00  0.00     0.002 A 
HETATM   19  C   UNK N   1      32.222  16.035   7.322  0.00  0.00     0.008 A 
HETATM   20  C   UNK N   1      31.906  15.610   4.863  0.00  0.00     0.049 C 
ENDBRANCH   8   9
TORSDOF 1
ENDMDL
MODEL 3
REMARK VINA RESULT:      -6.8      6.919      7.829
REMARK  1 active torsions:
REMARK  status: ('A' for Active; 'I' for Inactive)
REMARK    1  A    between atoms: C_8  and  N_9 
ROOT
HETATM    1  N   UNK N   1      20.390  17.512   2.101  0.00  0.00    -0.191 NA
HETATM    2  C   UNK N   1      20.715  16.955   3.061  0.00  0.00     0.099 C 
HETATM    3  C   UNK N   1      21.117  16.258   4.244  0.00  0.00     0.044 A 
HETATM    4  C   UNK N   1      21.152  14.863   4.246  0.00  0.00     0.025 A 
HETATM    5  C   UNK N   1      21.542  14.176   5.396  0.00  0.00     0.031 A 
HETATM    6  C   UNK N   1      21.473  16.969   5.390  0.00  0.00     0.025 A 
HETATM    7  C   UNK N   1      21.864  16.282   6.540  0.00  0.00     0.031 A 
HETATM    8  C   UNK N   1      21.903  14.876   6.557  0.00  0.00     0.046 A 
ENDROOT
BRANCH   8   9
HETATM    9  N   UNK N   1      22.305  14.172   7.740  0.00  0.00    -0.244 N 
HETATM   10  C   UNK N   1      21.470  13.705   8.704  0.00  0.00     0.267 A 
HETATM   11  O   UNK N   1      20.254  13.821   8.693  0.00  0.00    -0.267 OA
HETATM   12  C   UNK N   1      22.247  13.045   9.747  0.00  0.00     0.054 A 
HETATM   13  C   UNK N   1      23.566  13.139   9.368  0.00  0.00     0.049 A 
HETATM   14  C   UNK N   1      21.868  12.414  10.928  0.00  0.00    -0.045 A 
HETATM   15  C   UNK N   1      23.580  13.855   8.095  0.00  0.00     0.266 A 
HETATM   16  C   UNK N   1      24.591  12.607  10.145  0.00  0.00     0.018 A 
HETATM   17  O   UNK N   1      24.577  14.131   7.446  0.00  0.00    -0.267 OA
HETATM   18  C   UNK N   1      24.236  11.963  11.345  0.00  0.00     0.002 A 
HETATM   19  C   UNK N   1      22.880  11.866  11.735  0.00  0.00     0.008 A 
HETATM   20  C   UNK N   1      20.439  12.317  11.331  0.00  0.00     0.049 C 
ENDBRANCH   8   9
TORSDOF 1
ENDMDL
MODEL 4
REMARK VINA RESULT:      -6.8     10.297     11.693
REMARK  1 active torsions:
REMARK  status: ('A' for Active; 'I' for Inactive)
REMARK    1  A    between atoms: C_8  and  N_9 
ROOT
HETATM    1  N   UNK N   1      25.363  28.018  -3.439  0.00  0.00    -0.191 NA
HETATM    2  C   UNK N   1      26.215  27.241  -3.513  0.00  0.00     0.099 C 
HETATM    3  C   UNK N   1      27.275  26.285  -3.607  0.00  0.00     0.044 A 
HETATM    4  C   UNK N   1      28.583  26.722  -3.818  0.00  0.00     0.025 A 
HETATM    5  C   UNK N   1      29.623  25.796  -3.910  0.00  0.00     0.031 A 
HETATM    6  C   UNK N   1      27.003  24.921  -3.488  0.00  0.00     0.025 A 
HETATM    7  C   UNK N   1      28.043  23.996  -3.580  0.00  0.00     0.031 A 
HETATM    8  C   UNK N   1      29.366  24.422  -3.792  0.00  0.00     0.046 A 
ENDROOT
BRANCH   8   9
HETATM    9  N   UNK N   1      30.434  23.468  -3.887  0.00  0.00    -0.244 N 
HETATM   10  C   UNK N   1      31.001  23.029  -5.040  0.00  0.00     0.267 A 
HETATM   11  O   UNK N   1      30.677  23.389  -6.161  0.00  0.00    -0.267 OA
HETATM   12  C   UNK N   1      32.051  22.065  -4.732  0.00  0.00     0.054 A 
HETATM   13  C   UNK N   1      32.085  21.951  -3.362  0.00  0.00     0.049 A 
HETATM   14  C   UNK N   1      32.914  21.340  -5.548  0.00  0.00    -0.045 A 
HETATM   15  C   UNK N   1      31.053  22.847  -2.847  0.00  0.00     0.266 A 
HETATM   16  C   UNK N   1      32.984  21.104  -2.719  0.00  0.00     0.018 A 
HETATM   17  O   UNK N   1      30.784  23.017  -1.668  0.00  0.00    -0.267 OA
HETATM   18  C   UNK N   1      33.868  20.358  -3.521  0.00  0.00     0.002 A 
HETATM   19  C   UNK N   1      33.833  20.475  -4.930  0.00  0.00     0.008 A 
HETATM   20  C   UNK N   1      32.871  21.469  -7.030  0.00  0.00     0.049 C 
ENDBRANCH   8   9
TORSDOF 1
ENDMDL
MODEL 5
REMARK VINA RESULT:      -6.8      6.622      8.005
REMARK  1 active torsions:
REMARK  status: ('A' for Active; 'I' for Inactive)
REMARK    1  A    between atoms: C_8  and  N_9 
ROOT
HETATM    1  N   UNK N   1      20.353  19.641   2.362  0.00  0.00    -0.191 NA
HETATM    2  C   UNK N   1      20.505  18.876   3.216  0.00  0.00     0.099 C 
HETATM    3  C   UNK N   1      20.699  17.936   4.277  0.00  0.00     0.044 A 
HETATM    4  C   UNK N   1      21.402  18.319   5.420  0.00  0.00     0.025 A 
HETATM    5  C   UNK N   1      21.595  17.408   6.459  0.00  0.00     0.031 A 
HETATM    6  C   UNK N   1      20.187  16.643   4.170  0.00  0.00     0.025 A 
HETATM    7  C   UNK N   1      20.380  15.732   5.210  0.00  0.00     0.031 A 
HETATM    8  C   UNK N   1      21.087  16.104   6.367  0.00  0.00     0.046 A 
ENDROOT
BRANCH   8   9
HETATM    9  N   UNK N   1      21.284  15.165   7.434  0.00  0.00    -0.244 N 
HETATM   10  C   UNK N   1      22.392  14.402   7.620  0.00  0.00     0.267 A 
HETATM   11  O   UNK N   1      23.378  14.411   6.900  0.00  0.00    -0.267 OA
HETATM   12  C   UNK N   1      22.221  13.575   8.809  0.00  0.00     0.054 A 
HETATM   13  C   UNK N   1      20.979  13.874   9.317  0.00  0.00     0.049 A 
HETATM   14  C   UNK N   1      23.053  12.639   9.417  0.00  0.00    -0.045 A 
HETATM   15  C   UNK N   1      20.403  14.883   8.432  0.00  0.00     0.266 A 
HETATM   16  C   UNK N   1      20.487  13.258  10.465  0.00  0.00     0.018 A 
HETATM   17  O   UNK N   1      19.302  15.397   8.561  0.00  0.00    -0.267 OA
HETATM   18  C   UNK N   1      21.309  12.306  11.099  0.00  0.00     0.002 A 
HETATM   19  C   UNK N   1      22.586  11.998  10.577  0.00  0.00     0.008 A 
HETATM   20  C   UNK N   1      24.397  12.320   8.861  0.00  0.00     0.049 C 
ENDBRANCH   8   9
TORSDOF 1
ENDMDL
MODEL 6
REMARK VINA RESULT:      -6.7      3.148      7.962
REMARK  1 active torsions:
REMARK  status: ('A' for Active; 'I' for Inactive)
REMARK    1  A    between atoms: C_8  and  N_9 
ROOT
HETATM    1  N   UNK N   1      36.437  16.190  10.933  0.00  0.00    -0.191 NA
HETATM    2  C   UNK N   1      35.502  16.350  10.273  0.00  0.00     0.099 C 
HETATM    3  C   UNK N   1      34.346  16.556   9.454  0.00  0.00     0.044 A 
HETATM    4  C   UNK N   1      34.240  17.718   8.690  0.00  0.00     0.025 A 
HETATM    5  C   UNK N   1      33.118  17.927   7.888  0.00  0.00     0.031 A 
HETATM    6  C   UNK N   1      33.331  15.600   9.419  0.00  0.00     0.025 A 
HETATM    7  C   UNK N   1      32.209  15.809   8.618  0.00  0.00     0.031 A 
HETATM    8  C   UNK N   1      32.088  16.975   7.842  0.00  0.00     0.046 A 
ENDROOT
BRANCH   8   9
HETATM    9  N   UNK N   1      30.932  17.188   7.019  0.00  0.00    -0.244 N 
HETATM   10  C   UNK N   1      30.818  16.835   5.713  0.00  0.00     0.267 A 
HETATM   11  O   UNK N   1      31.689  16.286   5.056  0.00  0.00    -0.267 OA
HETATM   12  C   UNK N   1      29.498  17.213   5.218  0.00  0.00     0.054 A 
HETATM   13  C   UNK N   1      28.840  17.799   6.274  0.00  0.00     0.049 A 
HETATM   14  C   UNK N   1      28.899  17.073   3.970  0.00  0.00    -0.045 A 
HETATM   15  C   UNK N   1      29.766  17.773   7.404  0.00  0.00     0.266 A 
HETATM   16  C   UNK N   1      27.540  18.283   6.151  0.00  0.00     0.018 A 
HETATM   17  O   UNK N   1      29.534  18.207   8.522  0.00  0.00    -0.267 OA
HETATM   18  C   UNK N   1      26.910  18.153   4.898  0.00  0.00     0.002 A 
HETATM   19  C   UNK N   1      27.587  17.551   3.812  0.00  0.00     0.008 A 
HETATM   20  C   UNK N   1      29.618  16.437   2.833  0.00  0.00     0.049 C 
ENDBRANCH   8   9
TORSDOF 1
ENDMDL
MODEL 7
REMARK VINA RESULT:      -6.5     12.662     14.531
REMARK  1 active torsions:
REMARK  status: ('A' for Active; 'I' for Inactive)
REMARK    1  A    between atoms: C_8  and  N_9 
ROOT
HETATM    1  N   UNK N   1      34.855   8.565   8.734  0.00  0.00    -0.191 NA
HETATM    2  C   UNK N   1      34.887   9.012   9.799  0.00  0.00     0.099 C 
HETATM    3  C   UNK N   1      34.936   9.565  11.118  0.00  0.00     0.044 A 
HETATM    4  C   UNK N   1      36.170   9.767  11.737  0.00  0.00     0.025 A 
HETATM    5  C   UNK N   1      36.226  10.306  13.023  0.00  0.00     0.031 A 
HETATM    6  C   UNK N   1      33.756   9.901  11.782  0.00  0.00     0.025 A 
HETATM    7  C   UNK N   1      33.812  10.440  13.068  0.00  0.00     0.031 A 
HETATM    8  C   UNK N   1      35.048  10.649  13.704  0.00  0.00     0.046 A 
ENDROOT
BRANCH   8   9
HETATM    9  N   UNK N   1      35.104  11.203  15.027  0.00  0.00    -0.244 N 
HETATM   10  C   UNK N   1      35.224  10.491  16.177  0.00  0.00     0.267 A 
HETATM   11  O   UNK N   1      35.302   9.274  16.243  0.00  0.00    -0.267 OA
HETATM   12  C   UNK N   1      35.245  11.403  17.316  0.00  0.00     0.054 A 
HETATM   13  C   UNK N   1      35.134  12.673  16.800  0.00  0.00     0.049 A 
HETATM   14  C   UNK N   1      35.350  11.175  18.685  0.00  0.00    -0.045 A 
HETATM   15  C   UNK N   1      35.045  12.523  15.350  0.00  0.00     0.266 A 
HETATM   16  C   UNK N   1      35.120  13.798  17.619  0.00  0.00     0.018 A 
HETATM   17  O   UNK N   1      34.936  13.438  14.547  0.00  0.00    -0.267 OA
HETATM   18  C   UNK N   1      35.226  13.597  19.009  0.00  0.00     0.002 A 
HETATM   19  C   UNK N   1      35.340  12.291  19.539  0.00  0.00     0.008 A 
HETATM   20  C   UNK N   1      35.471   9.798  19.235  0.00  0.00     0.049 C 
ENDBRANCH   8   9
TORSDOF 1
ENDMDL
MODEL 8
REMARK VINA RESULT:      -6.2     10.929     13.471
REMARK  1 active torsions:
REMARK  status: ('A' for Active; 'I' for Inactive)
REMARK    1  A    between atoms: C_8  and  N_9 
ROOT
HETATM    1  N   UNK N   1      36.896  20.421  -4.354  0.00  0.00    -0.191 NA
HETATM    2  C   UNK N   1      35.819  20.839  -4.397  0.00  0.00     0.099 C 
HETATM    3  C   UNK N   1      34.483  21.349  -4.445  0.00  0.00     0.044 A 
HETATM    4  C   UNK N   1      33.460  20.669  -3.783  0.00  0.00     0.025 A 
HETATM    5  C   UNK N   1      32.155  21.160  -3.825  0.00  0.00     0.031 A 
HETATM    6  C   UNK N   1      34.205  22.520  -5.149  0.00  0.00     0.025 A 
HETATM    7  C   UNK N   1      32.899  23.011  -5.191  0.00  0.00     0.031 A 
HETATM    8  C   UNK N   1      31.858  22.337  -4.529  0.00  0.00     0.046 A 
ENDROOT
BRANCH   8   9
HETATM    9  N   UNK N   1      30.516  22.843  -4.574  0.00  0.00    -0.244 N 
HETATM   10  C   UNK N   1      29.635  22.657  -5.590  0.00  0.00     0.267 A 
HETATM   11  O   UNK N   1      29.866  22.028  -6.611  0.00  0.00    -0.267 OA
HETATM   12  C   UNK N   1      28.376  23.322  -5.273  0.00  0.00     0.054 A 
HETATM   13  C   UNK N   1      28.543  23.905  -4.039  0.00  0.00     0.049 A 
HETATM   14  C   UNK N   1      27.178  23.426  -5.975  0.00  0.00    -0.045 A 
HETATM   15  C   UNK N   1      29.905  23.590  -3.615  0.00  0.00     0.266 A 
HETATM   16  C   UNK N   1      27.525  24.630  -3.426  0.00  0.00     0.018 A 
HETATM   17  O   UNK N   1      30.420  23.939  -2.564  0.00  0.00    -0.267 OA
HETATM   18  C   UNK N   1      26.303  24.751  -4.115  0.00  0.00     0.002 A 
HETATM   19  C   UNK N   1      26.130  24.151  -5.384  0.00  0.00     0.008 A 
HETATM   20  C   UNK N   1      27.006  22.791  -7.310  0.00  0.00     0.049 C 
ENDBRANCH   8   9
TORSDOF 1
ENDMDL
MODEL 9
REMARK VINA RESULT:      -5.8     11.160     13.487
REMARK  1 active torsions:
REMARK  status: ('A' for Active; 'I' for Inactive)
REMARK    1  A    between atoms: C_8  and  N_9 
ROOT
HETATM    1  N   UNK N   1      36.753  20.864  -3.971  0.00  0.00    -0.191 NA
HETATM    2  C   UNK N   1      35.651  21.142  -4.183  0.00  0.00     0.099 C 
HETATM    3  C   UNK N   1      34.290  21.494  -4.450  0.00  0.00     0.044 A 
HETATM    4  C   UNK N   1      34.006  22.574  -5.286  0.00  0.00     0.025 A 
HETATM    5  C   UNK N   1      32.682  22.923  -5.551  0.00  0.00     0.031 A 
HETATM    6  C   UNK N   1      33.251  20.759  -3.877  0.00  0.00     0.025 A 
HETATM    7  C   UNK N   1      31.926  21.108  -4.143  0.00  0.00     0.031 A 
HETATM    8  C   UNK N   1      31.626  22.195  -4.983  0.00  0.00     0.046 A 
ENDROOT
BRANCH   8   9
HETATM    9  N   UNK N   1      30.262  22.552  -5.254  0.00  0.00    -0.244 N 
HETATM   10  C   UNK N   1      29.496  23.377  -4.496  0.00  0.00     0.267 A 
HETATM   11  O   UNK N   1      29.865  23.932  -3.472  0.00  0.00    -0.267 OA
HETATM   12  C   UNK N   1      28.170  23.497  -5.091  0.00  0.00     0.054 A 
HETATM   13  C   UNK N   1      28.179  22.717  -6.223  0.00  0.00     0.049 A 
HETATM   14  C   UNK N   1      27.040  24.212  -4.705  0.00  0.00    -0.045 A 
HETATM   15  C   UNK N   1      29.513  22.128  -6.308  0.00  0.00     0.266 A 
HETATM   16  C   UNK N   1      27.060  22.601  -7.043  0.00  0.00     0.018 A 
HETATM   17  O   UNK N   1      29.901  21.372  -7.185  0.00  0.00    -0.267 OA
HETATM   18  C   UNK N   1      25.903  23.314  -6.675  0.00  0.00     0.002 A 
HETATM   19  C   UNK N   1      25.893  24.116  -5.511  0.00  0.00     0.008 A 
HETATM   20  C   UNK N   1      27.038  25.054  -3.477  0.00  0.00     0.049 C 
ENDBRANCH   8   9
TORSDOF 1
ENDMDL
