MODEL 1
REMARK VINA RESULT:      -6.9      0.000      0.000
REMARK  4 active torsions:
REMARK  status: ('A' for Active; 'I' for Inactive)
REMARK    1  A    between atoms: C_6  and  C_7 
REMARK    2  A    between atoms: C_11  and  O_14 
REMARK    3  A    between atoms: O_14  and  C_15 
REMARK    4  A    between atoms: C_15  and  C_16 
ROOT
HETATM    1  O   UNK N   1      30.738  21.402  -6.996  0.00  0.00    -0.260 OA
HETATM    2  C   UNK N   1      30.105  21.988  -6.136  0.00  0.00     0.289 A 
HETATM    3  O   UNK N   1      28.968  22.602  -6.458  0.00  0.00    -0.275 OA
HETATM    4  C   UNK N   1      28.235  23.254  -5.556  0.00  0.00     0.093 A 
HETATM    5  C   UNK N   1      28.647  23.307  -4.206  0.00  0.00     0.011 A 
HETATM    6  C   UNK N   1      29.851  22.687  -3.842  0.00  0.00     0.020 A 
HETATM    7  C   UNK N   1      30.586  22.020  -4.825  0.00  0.00     0.098 A 
HETATM    8  C   UNK N   1      27.068  23.915  -5.953  0.00  0.00     0.075 A 
HETATM    9  C   UNK N   1      26.298  24.615  -5.006  0.00  0.00     0.071 A 
HETATM   10  C   UNK N   1      26.692  24.629  -3.667  0.00  0.00     0.038 A 
HETATM   11  C   UNK N   1      27.862  23.987  -3.267  0.00  0.00     0.018 A 
ENDROOT
BRANCH   9  12
HETATM   12  O   UNK N   1      25.191  25.306  -5.355  0.00  0.00    -0.347 OA
BRANCH  12  13
HETATM   13  C   UNK N   1      25.180  26.343  -6.259  0.00  0.00     0.214 C 
BRANCH  13  14
HETATM   14  C   UNK N   1      25.907  27.508  -5.684  0.00  0.00    -0.033 A 
HETATM   15  C   UNK N   1      25.511  28.052  -4.455  0.00  0.00     0.009 A 
HETATM   16  C   UNK N   1      26.184  29.158  -3.930  0.00  0.00     0.002 A 
HETATM   17  C   UNK N   1      27.265  29.710  -4.623  0.00  0.00     0.024 A 
HETATM   18  C   UNK N   1      27.669  29.158  -5.843  0.00  0.00     0.034 A 
HETATM   19 Cl   UNK N   1      29.035  29.837  -6.700  0.00  0.00    -0.084 Cl
HETATM   20  C   UNK N   1      26.987  28.061  -6.376  0.00  0.00     0.033 A 
ENDBRANCH  13  14
ENDBRANCH  12  13
ENDBRANCH   9  12
BRANCH   6  21
HETATM   21  C   UNK N   1      30.354  22.761  -2.456  0.00  0.00     0.271 C 
HETATM   22  O   UNK N   1      31.495  22.425  -2.178  0.00  0.00    -0.301 OA
ENDBRANCH   6  21
TORSDOF 4
ENDMDL
MODEL 2
REMARK VINA RESULT:      -6.9     15.115     17.394
REMARK  4 active torsions:
REMARK  status: ('A' for Active; 'I' for Inactive)
REMARK    1  A    between atoms: C_6  and  C_7 
REMARK    2  A    between atoms: C_11  and  O_14 
REMARK    3  A    between atoms: O_14  and  C_15 
REMARK    4  A    between atoms: C_15  and  C_16 
ROOT
HETATM    1  O   UNK N   1      21.355  20.915   3.155  0.00  0.00    -0.260 OA
HETATM    2  C   UNK N   1      21.137  19.745   3.411  0.00  0.00     0.289 A 
HETATM    3  O   UNK N   1      21.256  19.310   4.665  0.00  0.00    -0.275 OA
HETATM    4  C   UNK N   1      21.026  18.041   5.000  0.00  0.00     0.093 A 
HETATM    5  C   UNK N   1      20.632  17.105   4.018  0.00  0.00     0.011 A 
HETATM    6  C   UNK N   1      20.519  17.529   2.686  0.00  0.00     0.020 A 
HETATM    7  C   UNK N   1      20.776  18.869   2.385  0.00  0.00     0.098 A 
HETATM    8  C   UNK N   1      21.203  17.627   6.324  0.00  0.00     0.075 A 
HETATM    9  C   UNK N   1      20.972  16.286   6.680  0.00  0.00     0.071 A 
HETATM   10  C   UNK N   1      20.545  15.376   5.711  0.00  0.00     0.038 A 
HETATM   11  C   UNK N   1      20.383  15.777   4.386  0.00  0.00     0.018 A 
ENDROOT
BRANCH   9  12
HETATM   12  O   UNK N   1      21.176  15.834   7.935  0.00  0.00    -0.347 OA
BRANCH  12  13
HETATM   13  C   UNK N   1      20.283  15.051   8.630  0.00  0.00     0.214 C 
BRANCH  13  14
HETATM   14  C   UNK N   1      21.030  14.059   9.451  0.00  0.00    -0.033 A 
HETATM   15  C   UNK N   1      20.352  13.248  10.370  0.00  0.00     0.009 A 
HETATM   16  C   UNK N   1      21.061  12.332  11.152  0.00  0.00     0.002 A 
HETATM   17  C   UNK N   1      22.445  12.215  11.005  0.00  0.00     0.024 A 
HETATM   18  C   UNK N   1      23.120  13.015  10.077  0.00  0.00     0.034 A 
HETATM   19 Cl   UNK N   1      24.851  12.852   9.878  0.00  0.00    -0.084 Cl
HETATM   20  C   UNK N   1      22.414  13.940   9.305  0.00  0.00     0.033 A 
ENDBRANCH  13  14
ENDBRANCH  12  13
ENDBRANCH   9  12
BRANCH   6  21
HETATM   21  C   UNK N   1      20.165  16.578   1.615  0.00  0.00     0.271 C 
HETATM   22  O   UNK N   1      20.442  16.809   0.448  0.00  0.00    -0.301 OA
ENDBRANCH   6  21
TORSDOF 4
ENDMDL
MODEL 3
REMARK VINA RESULT:      -6.8     18.089     22.225
REMARK  4 active torsions:
REMARK  status: ('A' for Active; 'I' for Inactive)
REMARK    1  A    between atoms: C_6  and  C_7 
REMARK    2  A    between atoms: C_11  and  O_14 
REMARK    3  A    between atoms: O_14  and  C_15 
REMARK    4  A    between atoms: C_15  and  C_16 
ROOT
HETATM    1  O   UNK N   1      34.927  19.065   8.238  0.00  0.00    -0.260 OA
HETATM    2  C   UNK N   1      34.769  17.933   8.661  0.00  0.00     0.289 A 
HETATM    3  O   UNK N   1      35.315  17.581   9.823  0.00  0.00    -0.275 OA
HETATM    4  C   UNK N   1      35.170  16.358  10.332  0.00  0.00     0.093 A 
HETATM    5  C   UNK N   1      34.410  15.385   9.645  0.00  0.00     0.011 A 
HETATM    6  C   UNK N   1      33.840  15.721   8.410  0.00  0.00     0.020 A 
HETATM    7  C   UNK N   1      34.025  17.015   7.915  0.00  0.00     0.098 A 
HETATM    8  C   UNK N   1      35.797  16.026  11.538  0.00  0.00     0.075 A 
HETATM    9  C   UNK N   1      35.656  14.733  12.073  0.00  0.00     0.071 A 
HETATM   10  C   UNK N   1      34.871  13.790  11.407  0.00  0.00     0.038 A 
HETATM   11  C   UNK N   1      34.257  14.108  10.197  0.00  0.00     0.018 A 
ENDROOT
BRANCH   9  12
HETATM   12  O   UNK N   1      36.282  14.357  13.209  0.00  0.00    -0.347 OA
BRANCH  12  13
HETATM   13  C   UNK N   1      36.750  13.086  13.449  0.00  0.00     0.214 C 
BRANCH  13  14
HETATM   14  C   UNK N   1      36.107  12.546  14.678  0.00  0.00    -0.033 A 
HETATM   15  C   UNK N   1      35.625  11.231  14.705  0.00  0.00     0.009 A 
HETATM   16  C   UNK N   1      35.004  10.737  15.855  0.00  0.00     0.002 A 
HETATM   17  C   UNK N   1      34.880  11.550  16.985  0.00  0.00     0.024 A 
HETATM   18  C   UNK N   1      35.374  12.858  16.963  0.00  0.00     0.034 A 
HETATM   19 Cl   UNK N   1      35.238  13.869  18.384  0.00  0.00    -0.084 Cl
HETATM   20  C   UNK N   1      35.983  13.358  15.808  0.00  0.00     0.033 A 
ENDBRANCH  13  14
ENDBRANCH  12  13
ENDBRANCH   9  12
BRANCH   6  21
HETATM   21  C   UNK N   1      33.085  14.725   7.626  0.00  0.00     0.271 C 
HETATM   22  O   UNK N   1      31.912  14.905   7.336  0.00  0.00    -0.301 OA
ENDBRANCH   6  21
TORSDOF 4
ENDMDL
MODEL 4
REMARK VINA RESULT:      -6.6      1.063      1.362
REMARK  4 active torsions:
REMARK  status: ('A' for Active; 'I' for Inactive)
REMARK    1  A    between atoms: C_6  and  C_7 
REMARK    2  A    between atoms: C_11  and  O_14 
REMARK    3  A    between atoms: O_14  and  C_15 
REMARK    4  A    between atoms: C_15  and  C_16 
ROOT
HETATM    1  O   UNK N   1      30.497  20.916  -6.604  0.00  0.00    -0.260 OA
HETATM    2  C   UNK N   1      29.890  21.674  -5.868  0.00  0.00     0.289 A 
HETATM    3  O   UNK N   1      28.788  22.278  -6.307  0.00  0.00    -0.275 OA
HETATM    4  C   UNK N   1      28.085  23.113  -5.542  0.00  0.00     0.093 A 
HETATM    5  C   UNK N   1      28.493  23.380  -4.216  0.00  0.00     0.011 A 
HETATM    6  C   UNK N   1      29.662  22.775  -3.734  0.00  0.00     0.020 A 
HETATM    7  C   UNK N   1      30.367  21.911  -4.576  0.00  0.00     0.098 A 
HETATM    8  C   UNK N   1      26.955  23.752  -6.064  0.00  0.00     0.075 A 
HETATM    9  C   UNK N   1      26.217  24.644  -5.264  0.00  0.00     0.071 A 
HETATM   10  C   UNK N   1      26.606  24.871  -3.943  0.00  0.00     0.038 A 
HETATM   11  C   UNK N   1      27.740  24.252  -3.421  0.00  0.00     0.018 A 
ENDROOT
BRANCH   9  12
HETATM   12  O   UNK N   1      25.149  25.317  -5.742  0.00  0.00    -0.347 OA
BRANCH  12  13
HETATM   13  C   UNK N   1      24.946  26.667  -5.571  0.00  0.00     0.214 C 
BRANCH  13  14
HETATM   14  C   UNK N   1      26.125  27.413  -6.090  0.00  0.00    -0.033 A 
HETATM   15  C   UNK N   1      26.688  28.455  -5.341  0.00  0.00     0.009 A 
HETATM   16  C   UNK N   1      27.782  29.165  -5.842  0.00  0.00     0.002 A 
HETATM   17  C   UNK N   1      28.325  28.825  -7.084  0.00  0.00     0.024 A 
HETATM   18  C   UNK N   1      27.771  27.776  -7.825  0.00  0.00     0.034 A 
HETATM   19 Cl   UNK N   1      28.464  27.337  -9.370  0.00  0.00    -0.084 Cl
HETATM   20  C   UNK N   1      26.669  27.074  -7.331  0.00  0.00     0.033 A 
ENDBRANCH  13  14
ENDBRANCH  12  13
ENDBRANCH   9  12
BRANCH   6  21
HETATM   21  C   UNK N   1      30.162  23.064  -2.376  0.00  0.00     0.271 C 
HETATM   22  O   UNK N   1      31.135  22.482  -1.922  0.00  0.00    -0.301 OA
ENDBRANCH   6  21
TORSDOF 4
ENDMDL
MODEL 5
REMARK VINA RESULT:      -6.4     13.482     15.448
REMARK  4 active torsions:
REMARK  status: ('A' for Active; 'I' for Inactive)
REMARK    1  A    between atoms: C_6  and  C_7 
REMARK    2  A    between atoms: C_11  and  O_14 
REMARK    3  A    between atoms: O_14  and  C_15 
REMARK    4  A    between atoms: C_15  and  C_16 
ROOT
HETATM    1  O   UNK N   1      20.928  12.980   8.906  0.00  0.00    -0.260 OA
HETATM    2  C   UNK N   1      20.931  14.105   8.436  0.00  0.00     0.289 A 
HETATM    3  O   UNK N   1      21.769  14.404   7.446  0.00  0.00    -0.275 OA
HETATM    4  C   UNK N   1      21.811  15.617   6.895  0.00  0.00     0.093 A 
HETATM    5  C   UNK N   1      20.945  16.636   7.349  0.00  0.00     0.011 A 
HETATM    6  C   UNK N   1      20.067  16.357   8.405  0.00  0.00     0.020 A 
HETATM    7  C   UNK N   1      20.064  15.071   8.952  0.00  0.00     0.098 A 
HETATM    8  C   UNK N   1      22.737  15.890   5.882  0.00  0.00     0.075 A 
HETATM    9  C   UNK N   1      22.793  17.172   5.307  0.00  0.00     0.071 A 
HETATM   10  C   UNK N   1      21.907  18.162   5.734  0.00  0.00     0.038 A 
HETATM   11  C   UNK N   1      20.993  17.903   6.754  0.00  0.00     0.018 A 
ENDROOT
BRANCH   9  12
HETATM   12  O   UNK N   1      23.702  17.492   4.361  0.00  0.00    -0.347 OA
BRANCH  12  13
HETATM   13  C   UNK N   1      24.029  18.782   4.008  0.00  0.00     0.214 C 
BRANCH  13  14
HETATM   14  C   UNK N   1      25.468  19.024   4.299  0.00  0.00    -0.033 A 
HETATM   15  C   UNK N   1      26.445  18.141   3.820  0.00  0.00     0.009 A 
HETATM   16  C   UNK N   1      27.793  18.363   4.113  0.00  0.00     0.002 A 
HETATM   17  C   UNK N   1      28.168  19.475   4.872  0.00  0.00     0.024 A 
HETATM   18  C   UNK N   1      27.194  20.363   5.339  0.00  0.00     0.034 A 
HETATM   19 Cl   UNK N   1      27.666  21.767   6.271  0.00  0.00    -0.084 Cl
HETATM   20  C   UNK N   1      25.844  20.135   5.058  0.00  0.00     0.033 A 
ENDBRANCH  13  14
ENDBRANCH  12  13
ENDBRANCH   9  12
BRANCH   6  21
HETATM   21  C   UNK N   1      19.182  17.402   8.953  0.00  0.00     0.271 C 
HETATM   22  O   UNK N   1      18.041  17.145   9.306  0.00  0.00    -0.301 OA
ENDBRANCH   6  21
TORSDOF 4
ENDMDL
MODEL 6
REMARK VINA RESULT:      -6.4     11.831     14.668
REMARK  4 active torsions:
REMARK  status: ('A' for Active; 'I' for Inactive)
REMARK    1  A    between atoms: C_6  and  C_7 
REMARK    2  A    between atoms: C_11  and  O_14 
REMARK    3  A    between atoms: O_14  and  C_15 
REMARK    4  A    between atoms: C_15  and  C_16 
ROOT
HETATM    1  O   UNK N   1      35.304  19.134   8.474  0.00  0.00    -0.260 OA
HETATM    2  C   UNK N   1      34.532  18.233   8.195  0.00  0.00     0.289 A 
HETATM    3  O   UNK N   1      33.877  18.261   7.036  0.00  0.00    -0.275 OA
HETATM    4  C   UNK N   1      33.025  17.300   6.681  0.00  0.00     0.093 A 
HETATM    5  C   UNK N   1      32.794  16.200   7.536  0.00  0.00     0.011 A 
HETATM    6  C   UNK N   1      33.454  16.154   8.772  0.00  0.00     0.020 A 
HETATM    7  C   UNK N   1      34.334  17.189   9.101  0.00  0.00     0.098 A 
HETATM    8  C   UNK N   1      32.333  17.395   5.468  0.00  0.00     0.075 A 
HETATM    9  C   UNK N   1      31.423  16.389   5.095  0.00  0.00     0.071 A 
HETATM   10  C   UNK N   1      31.231  15.286   5.929  0.00  0.00     0.038 A 
HETATM   11  C   UNK N   1      31.904  15.192   7.146  0.00  0.00     0.018 A 
ENDROOT
BRANCH   9  12
HETATM   12  O   UNK N   1      30.701  16.465   3.958  0.00  0.00    -0.347 OA
BRANCH  12  13
HETATM   13  C   UNK N   1      29.617  15.665   3.675  0.00  0.00     0.214 C 
BRANCH  13  14
HETATM   14  C   UNK N   1      28.383  16.496   3.650  0.00  0.00    -0.033 A 
HETATM   15  C   UNK N   1      27.173  15.951   3.198  0.00  0.00     0.009 A 
HETATM   16  C   UNK N   1      26.021  16.741   3.158  0.00  0.00     0.002 A 
HETATM   17  C   UNK N   1      26.073  18.071   3.585  0.00  0.00     0.024 A 
HETATM   18  C   UNK N   1      27.277  18.610   4.049  0.00  0.00     0.034 A 
HETATM   19 Cl   UNK N   1      27.336  20.269   4.603  0.00  0.00    -0.084 Cl
HETATM   20  C   UNK N   1      28.433  17.825   4.077  0.00  0.00     0.033 A 
ENDBRANCH  13  14
ENDBRANCH  12  13
ENDBRANCH   9  12
BRANCH   6  21
HETATM   21  C   UNK N   1      33.204  15.056   9.726  0.00  0.00     0.271 C 
HETATM   22  O   UNK N   1      34.106  14.316  10.089  0.00  0.00    -0.301 OA
ENDBRANCH   6  21
TORSDOF 4
ENDMDL
MODEL 7
REMARK VINA RESULT:      -6.4     17.762     21.820
REMARK  4 active torsions:
REMARK  status: ('A' for Active; 'I' for Inactive)
REMARK    1  A    between atoms: C_6  and  C_7 
REMARK    2  A    between atoms: C_11  and  O_14 
REMARK    3  A    between atoms: O_14  and  C_15 
REMARK    4  A    between atoms: C_15  and  C_16 
ROOT
HETATM    1  O   UNK N   1      32.361  13.207   6.848  0.00  0.00    -0.260 OA
HETATM    2  C   UNK N   1      32.943  14.000   7.566  0.00  0.00     0.289 A 
HETATM    3  O   UNK N   1      33.412  13.601   8.747  0.00  0.00    -0.275 OA
HETATM    4  C   UNK N   1      34.059  14.428   9.568  0.00  0.00     0.093 A 
HETATM    5  C   UNK N   1      34.277  15.774   9.199  0.00  0.00     0.011 A 
HETATM    6  C   UNK N   1      33.776  16.228   7.971  0.00  0.00     0.020 A 
HETATM    7  C   UNK N   1      33.100  15.324   7.147  0.00  0.00     0.098 A 
HETATM    8  C   UNK N   1      34.498  13.968  10.815  0.00  0.00     0.075 A 
HETATM    9  C   UNK N   1      35.170  14.840  11.690  0.00  0.00     0.071 A 
HETATM   10  C   UNK N   1      35.416  16.158  11.300  0.00  0.00     0.038 A 
HETATM   11  C   UNK N   1      34.967  16.628  10.068  0.00  0.00     0.018 A 
ENDROOT
BRANCH   9  12
HETATM   12  O   UNK N   1      35.569  14.452  12.920  0.00  0.00    -0.347 OA
BRANCH  12  13
HETATM   13  C   UNK N   1      36.379  13.366  13.163  0.00  0.00     0.214 C 
BRANCH  13  14
HETATM   14  C   UNK N   1      35.647  12.384  14.009  0.00  0.00    -0.033 A 
HETATM   15  C   UNK N   1      34.612  11.614  13.463  0.00  0.00     0.009 A 
HETATM   16  C   UNK N   1      33.915  10.708  14.266  0.00  0.00     0.002 A 
HETATM   17  C   UNK N   1      34.263  10.559  15.612  0.00  0.00     0.024 A 
HETATM   18  C   UNK N   1      35.305  11.317  16.153  0.00  0.00     0.034 A 
HETATM   19 Cl   UNK N   1      35.754  11.114  17.832  0.00  0.00    -0.084 Cl
HETATM   20  C   UNK N   1      35.994  12.233  15.354  0.00  0.00     0.033 A 
ENDBRANCH  13  14
ENDBRANCH  12  13
ENDBRANCH   9  12
BRANCH   6  21
HETATM   21  C   UNK N   1      33.928  17.638   7.564  0.00  0.00     0.271 C 
HETATM   22  O   UNK N   1      34.552  17.943   6.560  0.00  0.00    -0.301 OA
ENDBRANCH   6  21
TORSDOF 4
ENDMDL
MODEL 8
REMARK VINA RESULT:      -6.4     11.008     13.739
REMARK  4 active torsions:
REMARK  status: ('A' for Active; 'I' for Inactive)
REMARK    1  A    between atoms: C_6  and  C_7 
REMARK    2  A    between atoms: C_11  and  O_14 
REMARK    3  A    between atoms: O_14  and  C_15 
REMARK    4  A    between atoms: C_15  and  C_16 
ROOT
HETATM    1  O   UNK N   1      21.435  16.097   5.906  0.00  0.00    -0.260 OA
HETATM    2  C   UNK N   1      21.893  17.026   5.265  0.00  0.00     0.289 A 
HETATM    3  O   UNK N   1      23.213  17.179   5.177  0.00  0.00    -0.275 OA
HETATM    4  C   UNK N   1      23.766  18.176   4.486  0.00  0.00     0.093 A 
HETATM    5  C   UNK N   1      22.952  19.112   3.809  0.00  0.00     0.011 A 
HETATM    6  C   UNK N   1      21.559  18.988   3.902  0.00  0.00     0.020 A 
HETATM    7  C   UNK N   1      21.028  17.928   4.642  0.00  0.00     0.098 A 
HETATM    8  C   UNK N   1      25.158  18.315   4.456  0.00  0.00     0.075 A 
HETATM    9  C   UNK N   1      25.745  19.373   3.739  0.00  0.00     0.071 A 
HETATM   10  C   UNK N   1      24.935  20.269   3.040  0.00  0.00     0.038 A 
HETATM   11  C   UNK N   1      23.547  20.148   3.079  0.00  0.00     0.018 A 
ENDROOT
BRANCH   9  12
HETATM   12  O   UNK N   1      27.080  19.571   3.722  0.00  0.00    -0.347 OA
BRANCH  12  13
HETATM   13  C   UNK N   1      27.774  20.246   4.700  0.00  0.00     0.214 C 
BRANCH  13  14
HETATM   14  C   UNK N   1      28.168  19.293   5.774  0.00  0.00    -0.033 A 
HETATM   15  C   UNK N   1      27.848  19.564   7.111  0.00  0.00     0.009 A 
HETATM   16  C   UNK N   1      28.237  18.676   8.117  0.00  0.00     0.002 A 
HETATM   17  C   UNK N   1      28.932  17.509   7.786  0.00  0.00     0.024 A 
HETATM   18  C   UNK N   1      29.238  17.232   6.450  0.00  0.00     0.034 A 
HETATM   19 Cl   UNK N   1      30.089  15.761   6.035  0.00  0.00    -0.084 Cl
HETATM   20  C   UNK N   1      28.862  18.126   5.445  0.00  0.00     0.033 A 
ENDBRANCH  13  14
ENDBRANCH  12  13
ENDBRANCH   9  12
BRANCH   6  21
HETATM   21  C   UNK N   1      20.666  19.971   3.260  0.00  0.00     0.271 C 
HETATM   22  O   UNK N   1      20.224  20.925   3.881  0.00  0.00    -0.301 OA
ENDBRANCH   6  21
TORSDOF 4
ENDMDL
MODEL 9
REMARK VINA RESULT:      -6.3     15.047     17.347
REMARK  4 active torsions:
REMARK  status: ('A' for Active; 'I' for Inactive)
REMARK    1  A    between atoms: C_6  and  C_7 
REMARK    2  A    between atoms: C_11  and  O_14 
REMARK    3  A    between atoms: O_14  and  C_15 
REMARK    4  A    between atoms: C_15  and  C_16 
ROOT
HETATM    1  O   UNK N   1      19.362  14.123   9.789  0.00  0.00    -0.260 OA
HETATM    2  C   UNK N   1      20.545  13.878   9.631  0.00  0.00     0.289 A 
HETATM    3  O   UNK N   1      21.189  14.386   8.582  0.00  0.00    -0.275 OA
HETATM    4  C   UNK N   1      22.483  14.153   8.363  0.00  0.00     0.093 A 
HETATM    5  C   UNK N   1      23.223  13.351   9.260  0.00  0.00     0.011 A 
HETATM    6  C   UNK N   1      22.567  12.786  10.362  0.00  0.00     0.020 A 
HETATM    7  C   UNK N   1      21.208  13.056  10.545  0.00  0.00     0.098 A 
HETATM    8  C   UNK N   1      23.103  14.679   7.225  0.00  0.00     0.075 A 
HETATM    9  C   UNK N   1      24.466  14.425   6.985  0.00  0.00     0.071 A 
HETATM   10  C   UNK N   1      25.199  13.664   7.897  0.00  0.00     0.038 A 
HETATM   11  C   UNK N   1      24.584  13.123   9.024  0.00  0.00     0.018 A 
ENDROOT
BRANCH   9  12
HETATM   12  O   UNK N   1      25.092  14.873   5.876  0.00  0.00    -0.347 OA
BRANCH  12  13
HETATM   13  C   UNK N   1      26.459  14.958   5.741  0.00  0.00     0.214 C 
BRANCH  13  14
HETATM   14  C   UNK N   1      26.883  16.377   5.895  0.00  0.00    -0.033 A 
HETATM   15  C   UNK N   1      27.675  16.762   6.984  0.00  0.00     0.009 A 
HETATM   16  C   UNK N   1      28.054  18.099   7.136  0.00  0.00     0.002 A 
HETATM   17  C   UNK N   1      27.655  19.048   6.190  0.00  0.00     0.024 A 
HETATM   18  C   UNK N   1      26.875  18.660   5.096  0.00  0.00     0.034 A 
HETATM   19 Cl   UNK N   1      26.394  19.844   3.902  0.00  0.00    -0.084 Cl
HETATM   20  C   UNK N   1      26.485  17.326   4.951  0.00  0.00     0.033 A 
ENDBRANCH  13  14
ENDBRANCH  12  13
ENDBRANCH   9  12
BRANCH   6  21
HETATM   21  C   UNK N   1      23.282  11.896  11.297  0.00  0.00     0.271 C 
HETATM   22  O   UNK N   1      23.088  11.956  12.501  0.00  0.00    -0.301 OA
ENDBRANCH   6  21
TORSDOF 4
ENDMDL
