MODEL 1
REMARK VINA RESULT:      -7.1      0.000      0.000
REMARK  5 active torsions:
REMARK  status: ('A' for Active; 'I' for Inactive)
REMARK    1  A    between atoms: C_6  and  C_8 
REMARK    2  A    between atoms: N_7  and  C_8 
REMARK    3  A    between atoms: C_12  and  O_15 
REMARK    4  A    between atoms: O_15  and  C_16 
REMARK    5  A    between atoms: C_16  and  C_17 
ROOT
HETATM    1  O   UNK N   1      30.638  22.853  -1.447  0.00  0.00    -0.260 OA
HETATM    2  C   UNK N   1      30.093  22.905  -2.531  0.00  0.00     0.288 A 
HETATM    3  O   UNK N   1      28.923  23.531  -2.657  0.00  0.00    -0.275 OA
HETATM    4  C   UNK N   1      28.279  23.607  -3.817  0.00  0.00     0.093 A 
HETATM    5  C   UNK N   1      28.820  23.004  -4.975  0.00  0.00     0.006 A 
HETATM    6  C   UNK N   1      30.061  22.362  -4.886  0.00  0.00    -0.022 A 
HETATM    7  C   UNK N   1      30.703  22.314  -3.644  0.00  0.00     0.092 A 
HETATM    8  C   UNK N   1      27.075  24.313  -3.905  0.00  0.00     0.075 A 
HETATM    9  C   UNK N   1      26.391  24.401  -5.133  0.00  0.00     0.071 A 
HETATM   10  C   UNK N   1      26.908  23.757  -6.259  0.00  0.00     0.038 A 
HETATM   11  C   UNK N   1      28.120  23.075  -6.186  0.00  0.00     0.017 A 
ENDROOT
BRANCH   9  12
HETATM   12  O   UNK N   1      25.262  25.131  -5.265  0.00  0.00    -0.347 OA
BRANCH  12  13
HETATM   13  C   UNK N   1      25.178  26.201  -6.127  0.00  0.00     0.214 C 
BRANCH  13  14
HETATM   14  C   UNK N   1      25.895  27.384  -5.588  0.00  0.00    -0.033 A 
HETATM   15  C   UNK N   1      26.926  27.952  -6.339  0.00  0.00     0.033 A 
HETATM   16  C   UNK N   1      27.587  29.090  -5.873  0.00  0.00     0.034 A 
HETATM   17  C   UNK N   1      27.222  29.660  -4.649  0.00  0.00     0.024 A 
HETATM   18 Cl   UNK N   1      28.859  29.808  -6.835  0.00  0.00    -0.084 Cl
HETATM   19  C   UNK N   1      26.190  29.094  -3.894  0.00  0.00     0.002 A 
HETATM   20  C   UNK N   1      25.519  27.961  -4.367  0.00  0.00     0.009 A 
ENDBRANCH  13  14
ENDBRANCH  12  13
ENDBRANCH   9  12
BRANCH   6  21
HETATM   21  C   UNK N   1      30.691  21.767  -6.120  0.00  0.00     0.153 C 
BRANCH  21  22
HETATM   22  N   UNK N   1      31.116  20.391  -5.927  0.00  0.00    -0.422 N 
HETATM   23  C   UNK N   1      32.556  20.385  -6.109  0.00  0.00     0.140 C 
HETATM   24  H   UNK N   1      30.522  19.592  -5.709  0.00  0.00     0.153 HD
ENDBRANCH  21  22
ENDBRANCH   6  21
TORSDOF 5
ENDMDL
MODEL 2
REMARK VINA RESULT:      -7.0     11.250     13.644
REMARK  5 active torsions:
REMARK  status: ('A' for Active; 'I' for Inactive)
REMARK    1  A    between atoms: C_6  and  C_8 
REMARK    2  A    between atoms: N_7  and  C_8 
REMARK    3  A    between atoms: C_12  and  O_15 
REMARK    4  A    between atoms: O_15  and  C_16 
REMARK    5  A    between atoms: C_16  and  C_17 
ROOT
HETATM    1  O   UNK N   1      20.585  21.524   1.121  0.00  0.00    -0.260 OA
HETATM    2  C   UNK N   1      21.138  20.768   1.895  0.00  0.00     0.288 A 
HETATM    3  O   UNK N   1      22.428  20.941   2.184  0.00  0.00    -0.275 OA
HETATM    4  C   UNK N   1      23.084  20.137   3.015  0.00  0.00     0.093 A 
HETATM    5  C   UNK N   1      22.424  19.045   3.621  0.00  0.00     0.006 A 
HETATM    6  C   UNK N   1      21.061  18.849   3.362  0.00  0.00    -0.022 A 
HETATM    7  C   UNK N   1      20.413  19.726   2.486  0.00  0.00     0.092 A 
HETATM    8  C   UNK N   1      24.426  20.387   3.318  0.00  0.00     0.075 A 
HETATM    9  C   UNK N   1      25.124  19.541   4.201  0.00  0.00     0.071 A 
HETATM   10  C   UNK N   1      24.477  18.435   4.754  0.00  0.00     0.038 A 
HETATM   11  C   UNK N   1      23.133  18.193   4.478  0.00  0.00     0.017 A 
ENDROOT
BRANCH   9  12
HETATM   12  O   UNK N   1      26.400  19.795   4.566  0.00  0.00    -0.347 OA
BRANCH  12  13
HETATM   13  C   UNK N   1      26.743  20.104   5.862  0.00  0.00     0.214 C 
BRANCH  13  14
HETATM   14  C   UNK N   1      27.819  19.212   6.363  0.00  0.00    -0.033 A 
HETATM   15  C   UNK N   1      28.152  19.245   7.718  0.00  0.00     0.033 A 
HETATM   16  C   UNK N   1      29.130  18.386   8.221  0.00  0.00     0.034 A 
HETATM   17  C   UNK N   1      29.785  17.493   7.365  0.00  0.00     0.024 A 
HETATM   18 Cl   UNK N   1      29.519  18.417   9.926  0.00  0.00    -0.084 Cl
HETATM   19  C   UNK N   1      29.455  17.458   6.006  0.00  0.00     0.002 A 
HETATM   20  C   UNK N   1      28.465  18.310   5.505  0.00  0.00     0.009 A 
ENDBRANCH  13  14
ENDBRANCH  12  13
ENDBRANCH   9  12
BRANCH   6  21
HETATM   21  C   UNK N   1      20.319  17.731   4.047  0.00  0.00     0.153 C 
BRANCH  21  22
HETATM   22  N   UNK N   1      19.502  16.954   3.130  0.00  0.00    -0.422 N 
HETATM   23  C   UNK N   1      20.407  16.036   2.462  0.00  0.00     0.140 C 
HETATM   24  H   UNK N   1      18.496  17.037   2.984  0.00  0.00     0.153 HD
ENDBRANCH  21  22
ENDBRANCH   6  21
TORSDOF 5
ENDMDL
MODEL 3
REMARK VINA RESULT:      -6.5     25.991     29.291
REMARK  5 active torsions:
REMARK  status: ('A' for Active; 'I' for Inactive)
REMARK    1  A    between atoms: C_6  and  C_8 
REMARK    2  A    between atoms: N_7  and  C_8 
REMARK    3  A    between atoms: C_12  and  O_15 
REMARK    4  A    between atoms: O_15  and  C_16 
REMARK    5  A    between atoms: C_16  and  C_17 
ROOT
HETATM    1  O   UNK N   1      35.834  15.672  18.226  0.00  0.00    -0.260 OA
HETATM    2  C   UNK N   1      35.649  14.476  18.123  0.00  0.00     0.288 A 
HETATM    3  O   UNK N   1      35.445  13.739  19.214  0.00  0.00    -0.275 OA
HETATM    4  C   UNK N   1      35.249  12.425  19.158  0.00  0.00     0.093 A 
HETATM    5  C   UNK N   1      35.262  11.754  17.916  0.00  0.00     0.006 A 
HETATM    6  C   UNK N   1      35.445  12.501  16.745  0.00  0.00    -0.022 A 
HETATM    7  C   UNK N   1      35.642  13.881  16.855  0.00  0.00     0.092 A 
HETATM    8  C   UNK N   1      34.996  11.704  20.331  0.00  0.00     0.075 A 
HETATM    9  C   UNK N   1      34.783  10.314  20.276  0.00  0.00     0.071 A 
HETATM   10  C   UNK N   1      34.849   9.652  19.049  0.00  0.00     0.038 A 
HETATM   11  C   UNK N   1      35.074  10.366  17.874  0.00  0.00     0.017 A 
ENDROOT
BRANCH   9  12
HETATM   12  O   UNK N   1      34.470   9.600  21.380  0.00  0.00    -0.347 OA
BRANCH  12  13
HETATM   13  C   UNK N   1      33.225   9.662  21.964  0.00  0.00     0.214 C 
BRANCH  13  14
HETATM   14  C   UNK N   1      32.346   8.570  21.475  0.00  0.00    -0.033 A 
HETATM   15  C   UNK N   1      32.353   7.343  22.143  0.00  0.00     0.033 A 
HETATM   16  C   UNK N   1      31.505   6.315  21.728  0.00  0.00     0.034 A 
HETATM   17  C   UNK N   1      30.649   6.510  20.639  0.00  0.00     0.024 A 
HETATM   18 Cl   UNK N   1      31.504   4.793  22.588  0.00  0.00    -0.084 Cl
HETATM   19  C   UNK N   1      30.639   7.737  19.968  0.00  0.00     0.002 A 
HETATM   20  C   UNK N   1      31.480   8.771  20.391  0.00  0.00     0.009 A 
ENDBRANCH  13  14
ENDBRANCH  12  13
ENDBRANCH   9  12
BRANCH   6  21
HETATM   21  C   UNK N   1      35.399  11.818  15.402  0.00  0.00     0.153 C 
BRANCH  21  22
HETATM   22  N   UNK N   1      34.080  11.861  14.794  0.00  0.00    -0.422 N 
HETATM   23  C   UNK N   1      33.891  10.574  14.150  0.00  0.00     0.140 C 
HETATM   24  H   UNK N   1      33.422  12.640  14.815  0.00  0.00     0.153 HD
ENDBRANCH  21  22
ENDBRANCH   6  21
TORSDOF 5
ENDMDL
MODEL 4
REMARK VINA RESULT:      -6.3      2.073      2.895
REMARK  5 active torsions:
REMARK  status: ('A' for Active; 'I' for Inactive)
REMARK    1  A    between atoms: C_6  and  C_8 
REMARK    2  A    between atoms: N_7  and  C_8 
REMARK    3  A    between atoms: C_12  and  O_15 
REMARK    4  A    between atoms: O_15  and  C_16 
REMARK    5  A    between atoms: C_16  and  C_17 
ROOT
HETATM    1  O   UNK N   1      29.521  20.672  -8.032  0.00  0.00    -0.260 OA
HETATM    2  C   UNK N   1      29.347  21.347  -7.037  0.00  0.00     0.288 A 
HETATM    3  O   UNK N   1      28.357  22.240  -7.004  0.00  0.00    -0.275 OA
HETATM    4  C   UNK N   1      28.130  23.011  -5.946  0.00  0.00     0.093 A 
HETATM    5  C   UNK N   1      28.955  22.915  -4.803  0.00  0.00     0.006 A 
HETATM    6  C   UNK N   1      29.987  21.968  -4.790  0.00  0.00    -0.022 A 
HETATM    7  C   UNK N   1      30.182  21.176  -5.926  0.00  0.00     0.092 A 
HETATM    8  C   UNK N   1      27.051  23.902  -5.947  0.00  0.00     0.075 A 
HETATM    9  C   UNK N   1      26.804  24.718  -4.827  0.00  0.00     0.071 A 
HETATM   10  C   UNK N   1      27.655  24.652  -3.722  0.00  0.00     0.038 A 
HETATM   11  C   UNK N   1      28.716  23.749  -3.703  0.00  0.00     0.017 A 
ENDROOT
BRANCH   9  12
HETATM   12  O   UNK N   1      25.732  25.538  -4.770  0.00  0.00    -0.347 OA
BRANCH  12  13
HETATM   13  C   UNK N   1      25.417  26.406  -5.790  0.00  0.00     0.214 C 
BRANCH  13  14
HETATM   14  C   UNK N   1      26.249  27.634  -5.729  0.00  0.00    -0.033 A 
HETATM   15  C   UNK N   1      26.077  28.517  -4.662  0.00  0.00     0.033 A 
HETATM   16  C   UNK N   1      26.876  29.657  -4.560  0.00  0.00     0.034 A 
HETATM   17  C   UNK N   1      27.848  29.920  -5.531  0.00  0.00     0.024 A 
HETATM   18 Cl   UNK N   1      26.669  30.742  -3.204  0.00  0.00    -0.084 Cl
HETATM   19  C   UNK N   1      28.023  29.037  -6.602  0.00  0.00     0.002 A 
HETATM   20  C   UNK N   1      27.231  27.889  -6.697  0.00  0.00     0.009 A 
ENDBRANCH  13  14
ENDBRANCH  12  13
ENDBRANCH   9  12
BRANCH   6  21
HETATM   21  C   UNK N   1      30.839  21.801  -3.559  0.00  0.00     0.153 C 
BRANCH  21  22
HETATM   22  N   UNK N   1      31.715  20.644  -3.634  0.00  0.00    -0.422 N 
HETATM   23  C   UNK N   1      33.036  21.114  -3.257  0.00  0.00     0.140 C 
HETATM   24  H   UNK N   1      31.454  19.695  -3.898  0.00  0.00     0.153 HD
ENDBRANCH  21  22
ENDBRANCH   6  21
TORSDOF 5
ENDMDL
MODEL 5
REMARK VINA RESULT:      -6.3     24.482     27.857
REMARK  5 active torsions:
REMARK  status: ('A' for Active; 'I' for Inactive)
REMARK    1  A    between atoms: C_6  and  C_8 
REMARK    2  A    between atoms: N_7  and  C_8 
REMARK    3  A    between atoms: C_12  and  O_15 
REMARK    4  A    between atoms: O_15  and  C_16 
REMARK    5  A    between atoms: C_16  and  C_17 
ROOT
HETATM    1  O   UNK N   1      37.818   9.601  13.579  0.00  0.00    -0.260 OA
HETATM    2  C   UNK N   1      37.309  10.485  14.239  0.00  0.00     0.288 A 
HETATM    3  O   UNK N   1      36.881  10.227  15.475  0.00  0.00    -0.275 OA
HETATM    4  C   UNK N   1      36.305  11.154  16.235  0.00  0.00     0.093 A 
HETATM    5  C   UNK N   1      36.115  12.464  15.742  0.00  0.00     0.006 A 
HETATM    6  C   UNK N   1      36.578  12.778  14.458  0.00  0.00    -0.022 A 
HETATM    7  C   UNK N   1      37.182  11.770  13.699  0.00  0.00     0.092 A 
HETATM    8  C   UNK N   1      35.913  10.843  17.541  0.00  0.00     0.075 A 
HETATM    9  C   UNK N   1      35.308  11.822  18.353  0.00  0.00     0.071 A 
HETATM   10  C   UNK N   1      35.077  13.099  17.838  0.00  0.00     0.038 A 
HETATM   11  C   UNK N   1      35.489  13.424  16.547  0.00  0.00     0.017 A 
ENDROOT
BRANCH   9  12
HETATM   12  O   UNK N   1      34.980  11.573  19.639  0.00  0.00    -0.347 OA
BRANCH  12  13
HETATM   13  C   UNK N   1      35.249  10.367  20.245  0.00  0.00     0.214 C 
BRANCH  13  14
HETATM   14  C   UNK N   1      33.998   9.660  20.618  0.00  0.00    -0.033 A 
HETATM   15  C   UNK N   1      33.525   9.765  21.927  0.00  0.00     0.033 A 
HETATM   16  C   UNK N   1      32.329   9.144  22.291  0.00  0.00     0.034 A 
HETATM   17  C   UNK N   1      31.605   8.409  21.346  0.00  0.00     0.024 A 
HETATM   18 Cl   UNK N   1      31.732   9.305  23.927  0.00  0.00    -0.084 Cl
HETATM   19  C   UNK N   1      32.077   8.301  20.034  0.00  0.00     0.002 A 
HETATM   20  C   UNK N   1      33.269   8.934  19.666  0.00  0.00     0.009 A 
ENDBRANCH  13  14
ENDBRANCH  12  13
ENDBRANCH   9  12
BRANCH   6  21
HETATM   21  C   UNK N   1      36.445  14.185  13.934  0.00  0.00     0.153 C 
BRANCH  21  22
HETATM   22  N   UNK N   1      36.797  14.297  12.529  0.00  0.00    -0.422 N 
HETATM   23  C   UNK N   1      35.853  15.236  11.951  0.00  0.00     0.140 C 
HETATM   24  H   UNK N   1      37.555  13.814  12.047  0.00  0.00     0.153 HD
ENDBRANCH  21  22
ENDBRANCH   6  21
TORSDOF 5
ENDMDL
MODEL 6
REMARK VINA RESULT:      -6.3      1.927      2.377
REMARK  5 active torsions:
REMARK  status: ('A' for Active; 'I' for Inactive)
REMARK    1  A    between atoms: C_6  and  C_8 
REMARK    2  A    between atoms: N_7  and  C_8 
REMARK    3  A    between atoms: C_12  and  O_15 
REMARK    4  A    between atoms: O_15  and  C_16 
REMARK    5  A    between atoms: C_16  and  C_17 
ROOT
HETATM    1  O   UNK N   1      30.556  22.983  -1.447  0.00  0.00    -0.260 OA
HETATM    2  C   UNK N   1      30.368  23.033  -2.646  0.00  0.00     0.288 A 
HETATM    3  O   UNK N   1      30.124  24.205  -3.232  0.00  0.00    -0.275 OA
HETATM    4  C   UNK N   1      29.900  24.314  -4.538  0.00  0.00     0.093 A 
HETATM    5  C   UNK N   1      29.901  23.165  -5.360  0.00  0.00     0.006 A 
HETATM    6  C   UNK N   1      30.181  21.920  -4.784  0.00  0.00    -0.022 A 
HETATM    7  C   UNK N   1      30.416  21.858  -3.406  0.00  0.00     0.092 A 
HETATM    8  C   UNK N   1      29.693  25.573  -5.110  0.00  0.00     0.075 A 
HETATM    9  C   UNK N   1      29.460  25.695  -6.494  0.00  0.00     0.071 A 
HETATM   10  C   UNK N   1      29.412  24.548  -7.289  0.00  0.00     0.038 A 
HETATM   11  C   UNK N   1      29.643  23.293  -6.732  0.00  0.00     0.017 A 
ENDROOT
BRANCH   9  12
HETATM   12  O   UNK N   1      29.324  26.901  -7.087  0.00  0.00    -0.347 OA
BRANCH  12  13
HETATM   13  C   UNK N   1      28.140  27.306  -7.661  0.00  0.00     0.214 C 
BRANCH  13  14
HETATM   14  C   UNK N   1      27.073  27.466  -6.641  0.00  0.00    -0.033 A 
HETATM   15  C   UNK N   1      27.221  28.440  -5.652  0.00  0.00     0.033 A 
HETATM   16  C   UNK N   1      26.212  28.637  -4.707  0.00  0.00     0.034 A 
HETATM   17  C   UNK N   1      25.053  27.855  -4.746  0.00  0.00     0.024 A 
HETATM   18 Cl   UNK N   1      26.397  29.879  -3.489  0.00  0.00    -0.084 Cl
HETATM   19  C   UNK N   1      24.903  26.877  -5.735  0.00  0.00     0.002 A 
HETATM   20  C   UNK N   1      25.908  26.688  -6.689  0.00  0.00     0.009 A 
ENDBRANCH  13  14
ENDBRANCH  12  13
ENDBRANCH   9  12
BRANCH   6  21
HETATM   21  C   UNK N   1      30.252  20.689  -5.650  0.00  0.00     0.153 C 
BRANCH  21  22
HETATM   22  N   UNK N   1      31.616  20.260  -5.908  0.00  0.00    -0.422 N 
HETATM   23  C   UNK N   1      31.717  20.081  -7.345  0.00  0.00     0.140 C 
HETATM   24  H   UNK N   1      32.353  20.115  -5.218  0.00  0.00     0.153 HD
ENDBRANCH  21  22
ENDBRANCH   6  21
TORSDOF 5
ENDMDL
MODEL 7
REMARK VINA RESULT:      -6.2     26.105     29.340
REMARK  5 active torsions:
REMARK  status: ('A' for Active; 'I' for Inactive)
REMARK    1  A    between atoms: C_6  and  C_8 
REMARK    2  A    between atoms: N_7  and  C_8 
REMARK    3  A    between atoms: C_12  and  O_15 
REMARK    4  A    between atoms: O_15  and  C_16 
REMARK    5  A    between atoms: C_16  and  C_17 
ROOT
HETATM    1  O   UNK N   1      35.855  15.692  18.440  0.00  0.00    -0.260 OA
HETATM    2  C   UNK N   1      35.678  14.527  18.144  0.00  0.00     0.288 A 
HETATM    3  O   UNK N   1      35.415  13.632  19.096  0.00  0.00    -0.275 OA
HETATM    4  C   UNK N   1      35.225  12.344  18.828  0.00  0.00     0.093 A 
HETATM    5  C   UNK N   1      35.311  11.871  17.500  0.00  0.00     0.006 A 
HETATM    6  C   UNK N   1      35.559  12.787  16.470  0.00  0.00    -0.022 A 
HETATM    7  C   UNK N   1      35.745  14.133  16.802  0.00  0.00     0.092 A 
HETATM    8  C   UNK N   1      34.908  11.454  19.859  0.00  0.00     0.075 A 
HETATM    9  C   UNK N   1      34.702  10.089  19.580  0.00  0.00     0.071 A 
HETATM   10  C   UNK N   1      34.840   9.623  18.271  0.00  0.00     0.038 A 
HETATM   11  C   UNK N   1      35.129  10.507  17.235  0.00  0.00     0.017 A 
ENDROOT
BRANCH   9  12
HETATM   12  O   UNK N   1      34.328   9.217  20.542  0.00  0.00    -0.347 OA
BRANCH  12  13
HETATM   13  C   UNK N   1      33.007   8.928  20.797  0.00  0.00     0.214 C 
BRANCH  13  14
HETATM   14  C   UNK N   1      32.654   9.219  22.209  0.00  0.00    -0.033 A 
HETATM   15  C   UNK N   1      32.084   8.209  22.987  0.00  0.00     0.033 A 
HETATM   16  C   UNK N   1      31.782   8.445  24.329  0.00  0.00     0.034 A 
HETATM   17  C   UNK N   1      32.045   9.697  24.897  0.00  0.00     0.024 A 
HETATM   18 Cl   UNK N   1      31.094   7.165  25.301  0.00  0.00    -0.084 Cl
HETATM   19  C   UNK N   1      32.615  10.711  24.120  0.00  0.00     0.002 A 
HETATM   20  C   UNK N   1      32.929  10.470  22.778  0.00  0.00     0.009 A 
ENDBRANCH  13  14
ENDBRANCH  12  13
ENDBRANCH   9  12
BRANCH   6  21
HETATM   21  C   UNK N   1      35.591  12.319  15.038  0.00  0.00     0.153 C 
BRANCH  21  22
HETATM   22  N   UNK N   1      35.369  13.396  14.088  0.00  0.00    -0.422 N 
HETATM   23  C   UNK N   1      36.505  13.377  13.185  0.00  0.00     0.140 C 
HETATM   24  H   UNK N   1      34.576  14.036  14.063  0.00  0.00     0.153 HD
ENDBRANCH  21  22
ENDBRANCH   6  21
TORSDOF 5
ENDMDL
MODEL 8
REMARK VINA RESULT:      -6.2     15.683     18.776
REMARK  5 active torsions:
REMARK  status: ('A' for Active; 'I' for Inactive)
REMARK    1  A    between atoms: C_6  and  C_8 
REMARK    2  A    between atoms: N_7  and  C_8 
REMARK    3  A    between atoms: C_12  and  O_15 
REMARK    4  A    between atoms: O_15  and  C_16 
REMARK    5  A    between atoms: C_16  and  C_17 
ROOT
HETATM    1  O   UNK N   1      34.128  10.596   9.998  0.00  0.00    -0.260 OA
HETATM    2  C   UNK N   1      34.541  11.671  10.385  0.00  0.00     0.288 A 
HETATM    3  O   UNK N   1      34.176  12.788   9.756  0.00  0.00    -0.275 OA
HETATM    4  C   UNK N   1      34.607  13.988  10.131  0.00  0.00     0.093 A 
HETATM    5  C   UNK N   1      35.493  14.119  11.223  0.00  0.00     0.006 A 
HETATM    6  C   UNK N   1      35.876  12.969  11.926  0.00  0.00    -0.022 A 
HETATM    7  C   UNK N   1      35.390  11.730  11.496  0.00  0.00     0.092 A 
HETATM    8  C   UNK N   1      34.160  15.133   9.464  0.00  0.00     0.075 A 
HETATM    9  C   UNK N   1      34.610  16.408   9.860  0.00  0.00     0.071 A 
HETATM   10  C   UNK N   1      35.526  16.522  10.908  0.00  0.00     0.038 A 
HETATM   11  C   UNK N   1      35.956  15.388  11.595  0.00  0.00     0.017 A 
ENDROOT
BRANCH   9  12
HETATM   12  O   UNK N   1      34.145  17.536   9.281  0.00  0.00    -0.347 OA
BRANCH  12  13
HETATM   13  C   UNK N   1      34.431  17.861   7.975  0.00  0.00     0.214 C 
BRANCH  13  14
HETATM   14  C   UNK N   1      33.259  17.630   7.093  0.00  0.00    -0.033 A 
HETATM   15  C   UNK N   1      33.462  17.494   5.718  0.00  0.00     0.033 A 
HETATM   16  C   UNK N   1      32.381  17.235   4.873  0.00  0.00     0.034 A 
HETATM   17  C   UNK N   1      31.091  17.116   5.402  0.00  0.00     0.024 A 
HETATM   18 Cl   UNK N   1      32.651  17.040   3.156  0.00  0.00    -0.084 Cl
HETATM   19  C   UNK N   1      30.885  17.252   6.778  0.00  0.00     0.002 A 
HETATM   20  C   UNK N   1      31.970  17.500   7.626  0.00  0.00     0.009 A 
ENDBRANCH  13  14
ENDBRANCH  12  13
ENDBRANCH   9  12
BRANCH   6  21
HETATM   21  C   UNK N   1      36.769  13.088  13.134  0.00  0.00     0.153 C 
BRANCH  21  22
HETATM   22  N   UNK N   1      36.025  13.114  14.382  0.00  0.00    -0.422 N 
HETATM   23  C   UNK N   1      36.727  14.042  15.250  0.00  0.00     0.140 C 
HETATM   24  H   UNK N   1      35.182  12.585  14.604  0.00  0.00     0.153 HD
ENDBRANCH  21  22
ENDBRANCH   6  21
TORSDOF 5
ENDMDL
MODEL 9
REMARK VINA RESULT:      -6.2     12.431     14.967
REMARK  5 active torsions:
REMARK  status: ('A' for Active; 'I' for Inactive)
REMARK    1  A    between atoms: C_6  and  C_8 
REMARK    2  A    between atoms: N_7  and  C_8 
REMARK    3  A    between atoms: C_12  and  O_15 
REMARK    4  A    between atoms: O_15  and  C_16 
REMARK    5  A    between atoms: C_16  and  C_17 
ROOT
HETATM    1  O   UNK N   1      35.614  17.488  10.331  0.00  0.00    -0.260 OA
HETATM    2  C   UNK N   1      34.824  16.919   9.604  0.00  0.00     0.288 A 
HETATM    3  O   UNK N   1      33.715  17.544   9.209  0.00  0.00    -0.275 OA
HETATM    4  C   UNK N   1      32.814  16.964   8.423  0.00  0.00     0.093 A 
HETATM    5  C   UNK N   1      33.000  15.634   7.983  0.00  0.00     0.006 A 
HETATM    6  C   UNK N   1      34.167  14.956   8.356  0.00  0.00    -0.022 A 
HETATM    7  C   UNK N   1      35.089  15.611   9.179  0.00  0.00     0.092 A 
HETATM    8  C   UNK N   1      31.688  17.679   8.002  0.00  0.00     0.075 A 
HETATM    9  C   UNK N   1      30.732  17.070   7.166  0.00  0.00     0.071 A 
HETATM   10  C   UNK N   1      30.900  15.739   6.779  0.00  0.00     0.038 A 
HETATM   11  C   UNK N   1      32.032  15.028   7.173  0.00  0.00     0.017 A 
ENDROOT
BRANCH   9  12
HETATM   12  O   UNK N   1      29.670  17.754   6.687  0.00  0.00    -0.347 OA
BRANCH  12  13
HETATM   13  C   UNK N   1      29.403  17.845   5.340  0.00  0.00     0.214 C 
BRANCH  13  14
HETATM   14  C   UNK N   1      28.205  18.683   5.083  0.00  0.00    -0.033 A 
HETATM   15  C   UNK N   1      27.858  19.671   6.007  0.00  0.00     0.033 A 
HETATM   16  C   UNK N   1      26.760  20.500   5.767  0.00  0.00     0.034 A 
HETATM   17  C   UNK N   1      26.002  20.338   4.602  0.00  0.00     0.024 A 
HETATM   18 Cl   UNK N   1      26.351  21.751   6.918  0.00  0.00    -0.084 Cl
HETATM   19  C   UNK N   1      26.347  19.349   3.675  0.00  0.00     0.002 A 
HETATM   20  C   UNK N   1      27.454  18.527   3.909  0.00  0.00     0.009 A 
ENDBRANCH  13  14
ENDBRANCH  12  13
ENDBRANCH   9  12
BRANCH   6  21
HETATM   21  C   UNK N   1      34.421  13.560   7.847  0.00  0.00     0.153 C 
BRANCH  21  22
HETATM   22  N   UNK N   1      34.148  12.539   8.844  0.00  0.00    -0.422 N 
HETATM   23  C   UNK N   1      35.368  11.763   8.971  0.00  0.00     0.140 C 
HETATM   24  H   UNK N   1      33.274  12.397   9.351  0.00  0.00     0.153 HD
ENDBRANCH  21  22
ENDBRANCH   6  21
TORSDOF 5
ENDMDL
