MODEL 1
REMARK VINA RESULT:      -9.1      0.000      0.000
REMARK  2 active torsions:
REMARK  status: ('A' for Active; 'I' for Inactive)
REMARK       I    between atoms: N_13  and  C_8 
REMARK    1  A    between atoms: C_10  and  C_14 
REMARK    2  A    between atoms: N_16  and  C_22 
ROOT
HETATM    1  C   UNK N   1      36.232  12.253  12.879  0.00  0.00     0.049 A 
HETATM    2  C   UNK N   1      35.491  13.111  12.025  0.00  0.00     0.263 A 
HETATM    3  N   UNK N   1      35.793  13.257  10.679  0.00  0.00    -0.289 N 
HETATM    4  C   UNK N   1      36.768  12.481  10.123  0.00  0.00     0.101 A 
HETATM    5  C   UNK N   1      37.489  11.570  10.907  0.00  0.00     0.025 A 
HETATM    6  C   UNK N   1      37.245  11.460  12.283  0.00  0.00    -0.044 A 
HETATM    7  C   UNK N   1      38.102  10.530  13.073  0.00  0.00     0.049 C 
HETATM    8  O   UNK N   1      34.547  13.727  12.490  0.00  0.00    -0.267 OA
ENDROOT
BRANCH   1   9
HETATM    9  C   UNK N   1      35.926  12.279  14.371  0.00  0.00    -0.019 A 
HETATM   10  C   UNK N   1      36.051  13.415  15.200  0.00  0.00     0.027 A 
HETATM   11  C   UNK N   1      35.725  13.314  16.572  0.00  0.00     0.008 A 
HETATM   12  C   UNK N   1      35.854  14.396  17.440  0.00  0.00     0.120 A 
HETATM   13  C   UNK N   1      35.258  12.095  17.107  0.00  0.00     0.060 A 
HETATM   14  N   UNK N   1      35.533  14.248  18.756  0.00  0.00    -0.201 N 
HETATM   15  C   UNK N   1      35.084  13.059  19.244  0.00  0.00     0.676 A 
ATOM     16  HN  UNK N   1      35.632  15.044  19.387  1.00  0.00     0.183 HD
HETATM   17  N   UNK N   1      34.948  11.994  18.420  0.00  0.00    -0.191 N 
HETATM   18  N   UNK N   1      34.759  12.929  20.608  0.00  0.00    -0.234 N 
ATOM     19  HN  UNK N   1      34.610  11.107  18.792  1.00  0.00     0.184 HD
HETATM   20  H   UNK N   1      34.717  13.727  21.183  0.00  0.00     0.174 HD
HETATM   21  H   UNK N   1      34.574  12.039  20.987  0.00  0.00     0.174 HD
HETATM   22  C   UNK N   1      35.113  10.994  16.296  0.00  0.00     0.032 A 
HETATM   23  C   UNK N   1      35.439  11.095  14.962  0.00  0.00     0.015 A 
ENDBRANCH   1   9
BRANCH   3  24
HETATM   24  C   UNK N   1      35.114  14.289   9.893  0.00  0.00     0.044 A 
HETATM   25  C   UNK N   1      35.467  15.661   9.953  0.00  0.00     0.059 A 
HETATM   26  C   UNK N   1      34.725  16.563   9.168  0.00  0.00     0.037 A 
HETATM   27  C   UNK N   1      33.686  16.163   8.387  0.00  0.00    -0.022 A 
HETATM   28  N   UNK N   1      34.925  17.933   9.062  0.00  0.00    -0.388 N 
HETATM   29  C   UNK N   1      33.297  14.842   8.323  0.00  0.00     0.012 A 
HETATM   30  C   UNK N   1      33.078  17.307   7.660  0.00  0.00    -0.002 A 
HETATM   31  C   UNK N   1      34.010  13.925   9.074  0.00  0.00     0.031 A 
HETATM   32  C   UNK N   1      31.625  17.490   8.062  0.00  0.00     0.021 C 
HETATM   33  C   UNK N   1      33.956  18.502   8.140  0.00  0.00     0.133 A 
HETATM   34  C   UNK N   1      33.188  17.105   6.159  0.00  0.00     0.021 C 
HETATM   35  H   UNK N   1      35.619  18.442   9.540  0.00  0.00     0.159 HD
ENDBRANCH   3  24
TORSDOF 2
ENDMDL
MODEL 2
REMARK VINA RESULT:      -8.5      2.816      4.700
REMARK  2 active torsions:
REMARK  status: ('A' for Active; 'I' for Inactive)
REMARK       I    between atoms: N_13  and  C_8 
REMARK    1  A    between atoms: C_10  and  C_14 
REMARK    2  A    between atoms: N_16  and  C_22 
ROOT
HETATM    1  C   UNK N   1      36.216   9.830  16.647  0.00  0.00     0.049 A 
HETATM    2  C   UNK N   1      35.837  10.673  15.568  0.00  0.00     0.263 A 
HETATM    3  N   UNK N   1      36.516  10.676  14.359  0.00  0.00    -0.289 N 
HETATM    4  C   UNK N   1      37.519   9.775  14.151  0.00  0.00     0.101 A 
HETATM    5  C   UNK N   1      37.892   8.877  15.160  0.00  0.00     0.025 A 
HETATM    6  C   UNK N   1      37.264   8.906  16.412  0.00  0.00    -0.044 A 
HETATM    7  C   UNK N   1      37.763   7.977  17.466  0.00  0.00     0.049 C 
HETATM    8  O   UNK N   1      34.872  11.404  15.708  0.00  0.00    -0.267 OA
ENDROOT
BRANCH   1   9
HETATM    9  C   UNK N   1      35.510  10.010  17.985  0.00  0.00    -0.019 A 
HETATM   10  C   UNK N   1      34.414   9.240  18.429  0.00  0.00     0.027 A 
HETATM   11  C   UNK N   1      33.851   9.498  19.700  0.00  0.00     0.008 A 
HETATM   12  C   UNK N   1      32.753   8.785  20.176  0.00  0.00     0.120 A 
HETATM   13  C   UNK N   1      34.391  10.503  20.529  0.00  0.00     0.060 A 
HETATM   14  N   UNK N   1      32.242   9.074  21.406  0.00  0.00    -0.201 N 
HETATM   15  C   UNK N   1      32.786  10.050  22.185  0.00  0.00     0.676 A 
ATOM     16  HN  UNK N   1      31.436   8.550  21.749  1.00  0.00     0.183 HD
HETATM   17  N   UNK N   1      33.853  10.755  21.745  0.00  0.00    -0.191 N 
HETATM   18  N   UNK N   1      32.240  10.333  23.452  0.00  0.00    -0.234 N 
ATOM     19  HN  UNK N   1      34.256  11.483  22.334  1.00  0.00     0.184 HD
HETATM   20  H   UNK N   1      31.559   9.736  23.840  0.00  0.00     0.174 HD
HETATM   21  H   UNK N   1      32.539  11.128  23.951  0.00  0.00     0.174 HD
HETATM   22  C   UNK N   1      35.475  11.239  20.109  0.00  0.00     0.032 A 
HETATM   23  C   UNK N   1      36.014  10.989  18.867  0.00  0.00     0.015 A 
ENDBRANCH   1   9
BRANCH   3  24
HETATM   24  C   UNK N   1      36.196  11.692  13.354  0.00  0.00     0.044 A 
HETATM   25  C   UNK N   1      36.572  13.052  13.486  0.00  0.00     0.059 A 
HETATM   26  C   UNK N   1      36.187  13.940  12.463  0.00  0.00     0.037 A 
HETATM   27  C   UNK N   1      35.460  13.537  11.386  0.00  0.00    -0.022 A 
HETATM   28  N   UNK N   1      36.475  15.296  12.387  0.00  0.00    -0.388 N 
HETATM   29  C   UNK N   1      35.055  12.228  11.237  0.00  0.00     0.012 A 
HETATM   30  C   UNK N   1      35.192  14.664  10.457  0.00  0.00    -0.002 A 
HETATM   31  C   UNK N   1      35.423  11.325  12.218  0.00  0.00     0.031 A 
HETATM   32  C   UNK N   1      33.700  14.914  10.328  0.00  0.00     0.021 C 
HETATM   33  C   UNK N   1      35.908  15.852  11.169  0.00  0.00     0.133 A 
HETATM   34  C   UNK N   1      35.799  14.388   9.092  0.00  0.00     0.021 C 
HETATM   35  H   UNK N   1      36.987  15.804  13.056  0.00  0.00     0.159 HD
ENDBRANCH   3  24
TORSDOF 2
ENDMDL
MODEL 3
REMARK VINA RESULT:      -8.5      4.130     10.095
REMARK  2 active torsions:
REMARK  status: ('A' for Active; 'I' for Inactive)
REMARK       I    between atoms: N_13  and  C_8 
REMARK    1  A    between atoms: C_10  and  C_14 
REMARK    2  A    between atoms: N_16  and  C_22 
ROOT
HETATM    1  C   UNK N   1      32.045  16.521   6.866  0.00  0.00     0.049 A 
HETATM    2  C   UNK N   1      32.580  15.976   8.063  0.00  0.00     0.263 A 
HETATM    3  N   UNK N   1      33.940  15.773   8.240  0.00  0.00    -0.289 N 
HETATM    4  C   UNK N   1      34.812  16.198   7.279  0.00  0.00     0.101 A 
HETATM    5  C   UNK N   1      34.341  16.802   6.105  0.00  0.00     0.025 A 
HETATM    6  C   UNK N   1      32.966  16.951   5.879  0.00  0.00    -0.044 A 
HETATM    7  C   UNK N   1      32.531  17.528   4.574  0.00  0.00     0.049 C 
HETATM    8  O   UNK N   1      31.816  15.694   8.970  0.00  0.00    -0.267 OA
ENDROOT
BRANCH   1   9
HETATM    9  C   UNK N   1      30.530  16.560   6.705  0.00  0.00    -0.019 A 
HETATM   10  C   UNK N   1      29.770  15.607   5.994  0.00  0.00     0.027 A 
HETATM   11  C   UNK N   1      28.365  15.748   5.926  0.00  0.00     0.008 A 
HETATM   12  C   UNK N   1      27.569  14.851   5.217  0.00  0.00     0.120 A 
HETATM   13  C   UNK N   1      27.723  16.821   6.578  0.00  0.00     0.060 A 
HETATM   14  N   UNK N   1      26.219  15.032   5.175  0.00  0.00    -0.201 N 
HETATM   15  C   UNK N   1      25.627  16.077   5.816  0.00  0.00     0.676 A 
ATOM     16  HN  UNK N   1      25.642  14.372   4.652  1.00  0.00     0.183 HD
HETATM   17  N   UNK N   1      26.378  16.961   6.512  0.00  0.00    -0.191 N 
HETATM   18  N   UNK N   1      24.230  16.246   5.758  0.00  0.00    -0.234 N 
ATOM     19  HN  UNK N   1      25.928  17.741   6.991  1.00  0.00     0.184 HD
HETATM   20  H   UNK N   1      23.664  15.536   5.377  0.00  0.00     0.174 HD
HETATM   21  H   UNK N   1      23.820  17.074   6.097  0.00  0.00     0.174 HD
HETATM   22  C   UNK N   1      28.459  17.738   7.291  0.00  0.00     0.032 A 
HETATM   23  C   UNK N   1      29.828  17.601   7.348  0.00  0.00     0.015 A 
ENDBRANCH   1   9
BRANCH   3  24
HETATM   24  C   UNK N   1      34.415  15.041   9.415  0.00  0.00     0.044 A 
HETATM   25  C   UNK N   1      35.053  15.674  10.512  0.00  0.00     0.059 A 
HETATM   26  C   UNK N   1      35.487  14.861  11.576  0.00  0.00     0.037 A 
HETATM   27  C   UNK N   1      35.334  13.510  11.567  0.00  0.00    -0.022 A 
HETATM   28  N   UNK N   1      36.103  15.282  12.746  0.00  0.00    -0.388 N 
HETATM   29  C   UNK N   1      34.743  12.857  10.507  0.00  0.00     0.012 A 
HETATM   30  C   UNK N   1      35.872  12.892  12.806  0.00  0.00    -0.002 A 
HETATM   31  C   UNK N   1      34.294  13.625   9.447  0.00  0.00     0.031 A 
HETATM   32  C   UNK N   1      37.005  11.935  12.484  0.00  0.00     0.021 C 
HETATM   33  C   UNK N   1      36.384  14.135  13.595  0.00  0.00     0.133 A 
HETATM   34  C   UNK N   1      34.772  12.169  13.564  0.00  0.00     0.021 C 
HETATM   35  H   UNK N   1      36.318  16.217  12.969  0.00  0.00     0.159 HD
ENDBRANCH   3  24
TORSDOF 2
ENDMDL
MODEL 4
REMARK VINA RESULT:      -8.4      3.206      9.419
REMARK  2 active torsions:
REMARK  status: ('A' for Active; 'I' for Inactive)
REMARK       I    between atoms: N_13  and  C_8 
REMARK    1  A    between atoms: C_10  and  C_14 
REMARK    2  A    between atoms: N_16  and  C_22 
ROOT
HETATM    1  C   UNK N   1      33.779  15.464   7.836  0.00  0.00     0.049 A 
HETATM    2  C   UNK N   1      34.086  15.177   9.192  0.00  0.00     0.263 A 
HETATM    3  N   UNK N   1      35.241  14.505   9.563  0.00  0.00    -0.289 N 
HETATM    4  C   UNK N   1      36.169  14.192   8.613  0.00  0.00     0.101 A 
HETATM    5  C   UNK N   1      35.947  14.510   7.266  0.00  0.00     0.025 A 
HETATM    6  C   UNK N   1      34.754  15.126   6.864  0.00  0.00    -0.044 A 
HETATM    7  C   UNK N   1      34.547  15.363   5.406  0.00  0.00     0.049 C 
HETATM    8  O   UNK N   1      33.313  15.549  10.058  0.00  0.00    -0.267 OA
ENDROOT
BRANCH   1   9
HETATM    9  C   UNK N   1      32.416  16.064   7.515  0.00  0.00    -0.019 A 
HETATM   10  C   UNK N   1      31.436  15.453   6.703  0.00  0.00     0.027 A 
HETATM   11  C   UNK N   1      30.202  16.109   6.489  0.00  0.00     0.008 A 
HETATM   12  C   UNK N   1      29.211  15.563   5.676  0.00  0.00     0.120 A 
HETATM   13  C   UNK N   1      29.940  17.354   7.098  0.00  0.00     0.060 A 
HETATM   14  N   UNK N   1      28.040  16.236   5.496  0.00  0.00    -0.201 N 
HETATM   15  C   UNK N   1      27.815  17.436   6.097  0.00  0.00     0.676 A 
ATOM     16  HN  UNK N   1      27.318  15.832   4.897  1.00  0.00     0.183 HD
HETATM   17  N   UNK N   1      28.761  17.985   6.893  0.00  0.00    -0.191 N 
HETATM   18  N   UNK N   1      26.597  18.115   5.895  0.00  0.00    -0.234 N 
ATOM     19  HN  UNK N   1      28.585  18.885   7.342  1.00  0.00     0.184 HD
HETATM   20  H   UNK N   1      25.851  17.662   5.438  0.00  0.00     0.174 HD
HETATM   21  H   UNK N   1      26.491  19.041   6.211  0.00  0.00     0.174 HD
HETATM   22  C   UNK N   1      30.884  17.939   7.909  0.00  0.00     0.032 A 
HETATM   23  C   UNK N   1      32.088  17.301   8.108  0.00  0.00     0.015 A 
ENDBRANCH   1   9
BRANCH   3  24
HETATM   24  C   UNK N   1      35.413  14.076  10.953  0.00  0.00     0.044 A 
HETATM   25  C   UNK N   1      36.093  14.857  11.921  0.00  0.00     0.059 A 
HETATM   26  C   UNK N   1      36.216  14.328  13.220  0.00  0.00     0.037 A 
HETATM   27  C   UNK N   1      35.728  13.103  13.554  0.00  0.00    -0.022 A 
HETATM   28  N   UNK N   1      36.815  14.937  14.313  0.00  0.00    -0.388 N 
HETATM   29  C   UNK N   1      35.085  12.305  12.633  0.00  0.00     0.012 A 
HETATM   30  C   UNK N   1      35.985  12.786  14.983  0.00  0.00    -0.002 A 
HETATM   31  C   UNK N   1      34.938  12.796  11.349  0.00  0.00     0.031 A 
HETATM   32  C   UNK N   1      36.864  11.555  15.113  0.00  0.00     0.021 C 
HETATM   33  C   UNK N   1      36.724  14.067  15.474  0.00  0.00     0.133 A 
HETATM   34  C   UNK N   1      34.677  12.579  15.728  0.00  0.00     0.021 C 
HETATM   35  H   UNK N   1      37.238  15.827  14.304  0.00  0.00     0.159 HD
ENDBRANCH   3  24
TORSDOF 2
ENDMDL
MODEL 5
REMARK VINA RESULT:      -8.3      8.469     14.091
REMARK  2 active torsions:
REMARK  status: ('A' for Active; 'I' for Inactive)
REMARK       I    between atoms: N_13  and  C_8 
REMARK    1  A    between atoms: C_10  and  C_14 
REMARK    2  A    between atoms: N_16  and  C_22 
ROOT
HETATM    1  C   UNK N   1      25.390  18.449   4.531  0.00  0.00     0.049 A 
HETATM    2  C   UNK N   1      26.547  17.965   5.197  0.00  0.00     0.263 A 
HETATM    3  N   UNK N   1      27.755  18.646   5.169  0.00  0.00    -0.289 N 
HETATM    4  C   UNK N   1      27.821  19.870   4.570  0.00  0.00     0.101 A 
HETATM    5  C   UNK N   1      26.691  20.424   3.953  0.00  0.00     0.025 A 
HETATM    6  C   UNK N   1      25.481  19.720   3.910  0.00  0.00    -0.044 A 
HETATM    7  C   UNK N   1      24.342  20.332   3.168  0.00  0.00     0.049 C 
HETATM    8  O   UNK N   1      26.467  16.925   5.826  0.00  0.00    -0.267 OA
ENDROOT
BRANCH   1   9
HETATM    9  C   UNK N   1      24.156  17.556   4.487  0.00  0.00    -0.019 A 
HETATM   10  C   UNK N   1      23.025  17.700   5.319  0.00  0.00     0.027 A 
HETATM   11  C   UNK N   1      21.936  16.811   5.174  0.00  0.00     0.008 A 
HETATM   12  C   UNK N   1      20.807  16.893   5.985  0.00  0.00     0.120 A 
HETATM   13  C   UNK N   1      21.967  15.799   4.192  0.00  0.00     0.060 A 
HETATM   14  N   UNK N   1      19.784  16.010   5.811  0.00  0.00    -0.201 N 
HETATM   15  C   UNK N   1      19.842  15.043   4.854  0.00  0.00     0.676 A 
ATOM     16  HN  UNK N   1      18.960  16.073   6.411  1.00  0.00     0.183 HD
HETATM   17  N   UNK N   1      20.927  14.945   4.052  0.00  0.00    -0.191 N 
HETATM   18  N   UNK N   1      18.773  14.139   4.692  0.00  0.00    -0.234 N 
ATOM     19  HN  UNK N   1      20.962  14.219   3.336  1.00  0.00     0.184 HD
HETATM   20  H   UNK N   1      17.925  14.289   5.169  0.00  0.00     0.174 HD
HETATM   21  H   UNK N   1      18.875  13.358   4.102  0.00  0.00     0.174 HD
HETATM   22  C   UNK N   1      23.057  15.672   3.363  0.00  0.00     0.032 A 
HETATM   23  C   UNK N   1      24.119  16.535   3.514  0.00  0.00     0.015 A 
ENDBRANCH   1   9
BRANCH   3  24
HETATM   24  C   UNK N   1      28.955  18.011   5.716  0.00  0.00     0.044 A 
HETATM   25  C   UNK N   1      29.230  17.950   7.106  0.00  0.00     0.059 A 
HETATM   26  C   UNK N   1      30.430  17.334   7.510  0.00  0.00     0.037 A 
HETATM   27  C   UNK N   1      31.322  16.826   6.617  0.00  0.00    -0.022 A 
HETATM   28  N   UNK N   1      30.872  17.148   8.812  0.00  0.00    -0.388 N 
HETATM   29  C   UNK N   1      31.101  16.889   5.259  0.00  0.00     0.012 A 
HETATM   30  C   UNK N   1      32.497  16.229   7.302  0.00  0.00    -0.002 A 
HETATM   31  C   UNK N   1      29.928  17.480   4.825  0.00  0.00     0.031 A 
HETATM   32  C   UNK N   1      33.774  16.950   6.910  0.00  0.00     0.021 C 
HETATM   33  C   UNK N   1      32.152  16.460   8.805  0.00  0.00     0.133 A 
HETATM   34  C   UNK N   1      32.609  14.749   6.980  0.00  0.00     0.021 C 
HETATM   35  H   UNK N   1      30.390  17.438   9.620  0.00  0.00     0.159 HD
ENDBRANCH   3  24
TORSDOF 2
ENDMDL
MODEL 6
REMARK VINA RESULT:      -8.2     18.720     21.753
REMARK  2 active torsions:
REMARK  status: ('A' for Active; 'I' for Inactive)
REMARK       I    between atoms: N_13  and  C_8 
REMARK    1  A    between atoms: C_10  and  C_14 
REMARK    2  A    between atoms: N_16  and  C_22 
ROOT
HETATM    1  C   UNK N   1      30.121  20.834  -6.693  0.00  0.00     0.049 A 
HETATM    2  C   UNK N   1      29.393  21.956  -6.216  0.00  0.00     0.263 A 
HETATM    3  N   UNK N   1      28.160  22.314  -6.739  0.00  0.00    -0.289 N 
HETATM    4  C   UNK N   1      27.570  21.514  -7.675  0.00  0.00     0.101 A 
HETATM    5  C   UNK N   1      28.217  20.359  -8.135  0.00  0.00     0.025 A 
HETATM    6  C   UNK N   1      29.494  20.019  -7.668  0.00  0.00    -0.044 A 
HETATM    7  C   UNK N   1      30.158  18.822  -8.259  0.00  0.00     0.049 C 
HETATM    8  O   UNK N   1      29.863  22.614  -5.304  0.00  0.00    -0.267 OA
ENDROOT
BRANCH   1   9
HETATM    9  C   UNK N   1      31.533  20.613  -6.165  0.00  0.00    -0.019 A 
HETATM   10  C   UNK N   1      32.707  21.111  -6.770  0.00  0.00     0.027 A 
HETATM   11  C   UNK N   1      33.962  20.845  -6.176  0.00  0.00     0.008 A 
HETATM   12  C   UNK N   1      35.153  21.291  -6.745  0.00  0.00     0.120 A 
HETATM   13  C   UNK N   1      34.043  20.107  -4.978  0.00  0.00     0.060 A 
HETATM   14  N   UNK N   1      36.340  21.006  -6.138  0.00  0.00    -0.201 N 
HETATM   15  C   UNK N   1      36.386  20.291  -4.980  0.00  0.00     0.676 A 
ATOM     16  HN  UNK N   1      37.209  21.333  -6.561  1.00  0.00     0.183 HD
HETATM   17  N   UNK N   1      35.243  19.849  -4.408  0.00  0.00    -0.191 N 
HETATM   18  N   UNK N   1      37.624  20.005  -4.371  0.00  0.00    -0.234 N 
ATOM     19  HN  UNK N   1      35.285  19.315  -3.540  1.00  0.00     0.184 HD
HETATM   20  H   UNK N   1      38.445  20.440  -4.698  0.00  0.00     0.174 HD
HETATM   21  H   UNK N   1      37.668  19.372  -3.619  0.00  0.00     0.174 HD
HETATM   22  C   UNK N   1      32.898  19.642  -4.373  0.00  0.00     0.032 A 
HETATM   23  C   UNK N   1      31.679  19.895  -4.960  0.00  0.00     0.015 A 
ENDBRANCH   1   9
BRANCH   3  24
HETATM   24  C   UNK N   1      27.543  23.580  -6.337  0.00  0.00     0.044 A 
HETATM   25  C   UNK N   1      28.065  24.844  -6.710  0.00  0.00     0.059 A 
HETATM   26  C   UNK N   1      27.398  25.992  -6.242  0.00  0.00     0.037 A 
HETATM   27  C   UNK N   1      26.302  25.919  -5.439  0.00  0.00    -0.022 A 
HETATM   28  N   UNK N   1      27.726  27.313  -6.512  0.00  0.00    -0.388 N 
HETATM   29  C   UNK N   1      25.782  24.708  -5.035  0.00  0.00     0.012 A 
HETATM   30  C   UNK N   1      25.789  27.269  -5.093  0.00  0.00    -0.002 A 
HETATM   31  C   UNK N   1      26.406  23.558  -5.484  0.00  0.00     0.031 A 
HETATM   32  C   UNK N   1      25.847  27.500  -3.593  0.00  0.00     0.021 C 
HETATM   33  C   UNK N   1      26.784  28.200  -5.850  0.00  0.00     0.133 A 
HETATM   34  C   UNK N   1      24.368  27.447  -5.598  0.00  0.00     0.021 C 
HETATM   35  H   UNK N   1      28.484  27.606  -7.068  0.00  0.00     0.159 HD
ENDBRANCH   3  24
TORSDOF 2
ENDMDL
MODEL 7
REMARK VINA RESULT:      -8.2      7.625     12.432
REMARK  2 active torsions:
REMARK  status: ('A' for Active; 'I' for Inactive)
REMARK       I    between atoms: N_13  and  C_8 
REMARK    1  A    between atoms: C_10  and  C_14 
REMARK    2  A    between atoms: N_16  and  C_22 
ROOT
HETATM    1  C   UNK N   1      27.393  17.594   5.646  0.00  0.00     0.049 A 
HETATM    2  C   UNK N   1      26.501  16.494   5.755  0.00  0.00     0.263 A 
HETATM    3  N   UNK N   1      25.256  16.488   5.145  0.00  0.00    -0.289 N 
HETATM    4  C   UNK N   1      24.904  17.525   4.330  0.00  0.00     0.101 A 
HETATM    5  C   UNK N   1      25.773  18.607   4.136  0.00  0.00     0.025 A 
HETATM    6  C   UNK N   1      27.007  18.662   4.800  0.00  0.00    -0.044 A 
HETATM    7  C   UNK N   1      27.847  19.879   4.611  0.00  0.00     0.049 C 
HETATM    8  O   UNK N   1      26.853  15.517   6.393  0.00  0.00    -0.267 OA
ENDROOT
BRANCH   1   9
HETATM    9  C   UNK N   1      28.669  17.573   6.478  0.00  0.00    -0.019 A 
HETATM   10  C   UNK N   1      29.921  17.104   6.024  0.00  0.00     0.027 A 
HETATM   11  C   UNK N   1      31.037  17.146   6.891  0.00  0.00     0.008 A 
HETATM   12  C   UNK N   1      32.288  16.674   6.502  0.00  0.00     0.120 A 
HETATM   13  C   UNK N   1      30.909  17.672   8.193  0.00  0.00     0.060 A 
HETATM   14  N   UNK N   1      33.333  16.730   7.375  0.00  0.00    -0.201 N 
HETATM   15  C   UNK N   1      33.179  17.244   8.627  0.00  0.00     0.676 A 
ATOM     16  HN  UNK N   1      34.247  16.380   7.086  1.00  0.00     0.183 HD
HETATM   17  N   UNK N   1      31.974  17.711   9.027  0.00  0.00    -0.191 N 
HETATM   18  N   UNK N   1      34.272  17.291   9.514  0.00  0.00    -0.234 N 
ATOM     19  HN  UNK N   1      31.866  18.096   9.966  1.00  0.00     0.184 HD
HETATM   20  H   UNK N   1      35.179  17.088   9.189  0.00  0.00     0.174 HD
HETATM   21  H   UNK N   1      34.129  17.527  10.459  0.00  0.00     0.174 HD
HETATM   22  C   UNK N   1      29.695  18.151   8.630  0.00  0.00     0.032 A 
HETATM   23  C   UNK N   1      28.610  18.100   7.785  0.00  0.00     0.015 A 
ENDBRANCH   1   9
BRANCH   3  24
HETATM   24  C   UNK N   1      24.310  15.411   5.442  0.00  0.00     0.044 A 
HETATM   25  C   UNK N   1      23.687  15.258   6.706  0.00  0.00     0.059 A 
HETATM   26  C   UNK N   1      22.813  14.168   6.879  0.00  0.00     0.037 A 
HETATM   27  C   UNK N   1      22.575  13.265   5.890  0.00  0.00    -0.022 A 
HETATM   28  N   UNK N   1      22.087  13.856   8.020  0.00  0.00    -0.388 N 
HETATM   29  C   UNK N   1      23.182  13.366   4.657  0.00  0.00     0.012 A 
HETATM   30  C   UNK N   1      21.615  12.219   6.327  0.00  0.00    -0.002 A 
HETATM   31  C   UNK N   1      24.040  14.430   4.448  0.00  0.00     0.031 A 
HETATM   32  C   UNK N   1      22.260  10.845   6.292  0.00  0.00     0.021 C 
HETATM   33  C   UNK N   1      21.296  12.659   7.788  0.00  0.00     0.133 A 
HETATM   34  C   UNK N   1      20.370  12.239   5.457  0.00  0.00     0.021 C 
HETATM   35  H   UNK N   1      22.105  14.369   8.860  0.00  0.00     0.159 HD
ENDBRANCH   3  24
TORSDOF 2
ENDMDL
MODEL 8
REMARK VINA RESULT:      -8.2      3.305     10.047
REMARK  2 active torsions:
REMARK  status: ('A' for Active; 'I' for Inactive)
REMARK       I    between atoms: N_13  and  C_8 
REMARK    1  A    between atoms: C_10  and  C_14 
REMARK    2  A    between atoms: N_16  and  C_22 
ROOT
HETATM    1  C   UNK N   1      36.878  10.809  15.448  0.00  0.00     0.049 A 
HETATM    2  C   UNK N   1      36.293  10.719  16.739  0.00  0.00     0.263 A 
HETATM    3  N   UNK N   1      36.395   9.577  17.519  0.00  0.00    -0.289 N 
HETATM    4  C   UNK N   1      37.164   8.536  17.086  0.00  0.00     0.101 A 
HETATM    5  C   UNK N   1      37.816   8.598  15.847  0.00  0.00     0.025 A 
HETATM    6  C   UNK N   1      37.667   9.715  15.014  0.00  0.00    -0.044 A 
HETATM    7  C   UNK N   1      38.324   9.682  13.676  0.00  0.00     0.049 C 
HETATM    8  O   UNK N   1      35.695  11.686  17.179  0.00  0.00    -0.267 OA
ENDROOT
BRANCH   1   9
HETATM    9  C   UNK N   1      36.579  12.042  14.605  0.00  0.00    -0.019 A 
HETATM   10  C   UNK N   1      35.850  12.036  13.397  0.00  0.00     0.027 A 
HETATM   11  C   UNK N   1      35.630  13.252  12.710  0.00  0.00     0.008 A 
HETATM   12  C   UNK N   1      34.939  13.300  11.501  0.00  0.00     0.120 A 
HETATM   13  C   UNK N   1      36.115  14.467  13.237  0.00  0.00     0.060 A 
HETATM   14  N   UNK N   1      34.756  14.495  10.874  0.00  0.00    -0.201 N 
HETATM   15  C   UNK N   1      35.237  15.653  11.407  0.00  0.00     0.676 A 
ATOM     16  HN  UNK N   1      34.252  14.523   9.987  1.00  0.00     0.183 HD
HETATM   17  N   UNK N   1      35.909  15.632  12.580  0.00  0.00    -0.191 N 
HETATM   18  N   UNK N   1      35.038  16.878  10.740  0.00  0.00    -0.234 N 
ATOM     19  HN  UNK N   1      36.265  16.504  12.975  1.00  0.00     0.184 HD
HETATM   20  H   UNK N   1      34.433  16.924   9.965  0.00  0.00     0.174 HD
HETATM   21  H   UNK N   1      35.505  17.687  11.049  0.00  0.00     0.174 HD
HETATM   22  C   UNK N   1      36.805  14.479  14.426  0.00  0.00     0.032 A 
HETATM   23  C   UNK N   1      37.025  13.291  15.087  0.00  0.00     0.015 A 
ENDBRANCH   1   9
BRANCH   3  24
HETATM   24  C   UNK N   1      35.620   9.475  18.757  0.00  0.00     0.044 A 
HETATM   25  C   UNK N   1      36.184   9.694  20.039  0.00  0.00     0.059 A 
HETATM   26  C   UNK N   1      35.343   9.544  21.159  0.00  0.00     0.037 A 
HETATM   27  C   UNK N   1      34.037   9.181  21.043  0.00  0.00    -0.022 A 
HETATM   28  N   UNK N   1      35.687   9.738  22.489  0.00  0.00    -0.388 N 
HETATM   29  C   UNK N   1      33.462   8.934  19.815  0.00  0.00     0.012 A 
HETATM   30  C   UNK N   1      33.375   9.098  22.370  0.00  0.00    -0.002 A 
HETATM   31  C   UNK N   1      34.255   9.081  18.692  0.00  0.00     0.031 A 
HETATM   32  C   UNK N   1      32.885   7.687  22.642  0.00  0.00     0.021 C 
HETATM   33  C   UNK N   1      34.532   9.494  23.337  0.00  0.00     0.133 A 
HETATM   34  C   UNK N   1      32.221  10.082  22.454  0.00  0.00     0.021 C 
HETATM   35  H   UNK N   1      36.580  10.002  22.810  0.00  0.00     0.159 HD
ENDBRANCH   3  24
TORSDOF 2
ENDMDL
MODEL 9
REMARK VINA RESULT:      -8.2      7.720     12.508
REMARK  2 active torsions:
REMARK  status: ('A' for Active; 'I' for Inactive)
REMARK       I    between atoms: N_13  and  C_8 
REMARK    1  A    between atoms: C_10  and  C_14 
REMARK    2  A    between atoms: N_16  and  C_22 
ROOT
HETATM    1  C   UNK N   1      27.778  18.172   5.159  0.00  0.00     0.049 A 
HETATM    2  C   UNK N   1      27.175  17.097   4.454  0.00  0.00     0.263 A 
HETATM    3  N   UNK N   1      26.055  17.273   3.656  0.00  0.00    -0.289 N 
HETATM    4  C   UNK N   1      25.566  18.531   3.454  0.00  0.00     0.101 A 
HETATM    5  C   UNK N   1      26.163  19.636   4.075  0.00  0.00     0.025 A 
HETATM    6  C   UNK N   1      27.252  19.470   4.940  0.00  0.00    -0.044 A 
HETATM    7  C   UNK N   1      27.788  20.678   5.630  0.00  0.00     0.049 C 
HETATM    8  O   UNK N   1      27.671  15.988   4.543  0.00  0.00    -0.267 OA
ENDROOT
BRANCH   1   9
HETATM    9  C   UNK N   1      28.907  17.854   6.132  0.00  0.00    -0.019 A 
HETATM   10  C   UNK N   1      30.236  17.561   5.758  0.00  0.00     0.027 A 
HETATM   11  C   UNK N   1      31.198  17.291   6.758  0.00  0.00     0.008 A 
HETATM   12  C   UNK N   1      32.516  16.972   6.444  0.00  0.00     0.120 A 
HETATM   13  C   UNK N   1      30.840  17.334   8.122  0.00  0.00     0.060 A 
HETATM   14  N   UNK N   1      33.406  16.714   7.443  0.00  0.00    -0.201 N 
HETATM   15  C   UNK N   1      33.032  16.764   8.751  0.00  0.00     0.676 A 
ATOM     16  HN  UNK N   1      34.370  16.478   7.206  1.00  0.00     0.183 HD
HETATM   17  N   UNK N   1      31.757  17.073   9.082  0.00  0.00    -0.191 N 
HETATM   18  N   UNK N   1      33.968  16.492   9.769  0.00  0.00    -0.234 N 
ATOM     19  HN  UNK N   1      31.484  17.110  10.064  1.00  0.00     0.184 HD
HETATM   20  H   UNK N   1      34.924  16.406   9.548  0.00  0.00     0.174 HD
HETATM   21  H   UNK N   1      33.666  16.387  10.700  0.00  0.00     0.174 HD
HETATM   22  C   UNK N   1      29.551  17.643   8.490  0.00  0.00     0.032 A 
HETATM   23  C   UNK N   1      28.616  17.896   7.512  0.00  0.00     0.015 A 
ENDBRANCH   1   9
BRANCH   3  24
HETATM   24  C   UNK N   1      25.370  16.102   3.103  0.00  0.00     0.044 A 
HETATM   25  C   UNK N   1      24.347  15.409   3.796  0.00  0.00     0.059 A 
HETATM   26  C   UNK N   1      23.780  14.282   3.171  0.00  0.00     0.037 A 
HETATM   27  C   UNK N   1      24.197  13.840   1.954  0.00  0.00    -0.022 A 
HETATM   28  N   UNK N   1      22.755  13.486   3.663  0.00  0.00    -0.388 N 
HETATM   29  C   UNK N   1      25.207  14.472   1.263  0.00  0.00     0.012 A 
HETATM   30  C   UNK N   1      23.435  12.641   1.520  0.00  0.00    -0.002 A 
HETATM   31  C   UNK N   1      25.781  15.589   1.842  0.00  0.00     0.031 A 
HETATM   32  C   UNK N   1      24.358  11.448   1.348  0.00  0.00     0.021 C 
HETATM   33  C   UNK N   1      22.451  12.430   2.711  0.00  0.00     0.133 A 
HETATM   34  C   UNK N   1      22.690  12.920   0.226  0.00  0.00     0.021 C 
HETATM   35  H   UNK N   1      22.301  13.616   4.527  0.00  0.00     0.159 HD
ENDBRANCH   3  24
TORSDOF 2
ENDMDL
