REMARK  2 active torsions:
REMARK  status: ('A' for Active; 'I' for Inactive)
REMARK       I    between atoms: N_13  and  C_8 
REMARK    1  A    between atoms: C_10  and  C_14 
REMARK    2  A    between atoms: N_16  and  C_22 
ROOT
HETATM    1  C   UNK N   1       1.054  -1.422   0.070  0.00  0.00     0.049 A 
HETATM    2  C   UNK N   1      -0.169  -0.712   0.199  0.00  0.00     0.263 A 
HETATM    3  N   UNK N   1      -1.402  -1.331   0.057  0.00  0.00    -0.289 N 
HETATM    4  C   UNK N   1      -1.457  -2.684  -0.113  0.00  0.00     0.101 A 
HETATM    5  C   UNK N   1      -0.281  -3.443  -0.183  0.00  0.00     0.025 A 
HETATM    6  C   UNK N   1       0.975  -2.825  -0.112  0.00  0.00    -0.044 A 
HETATM    7  C   UNK N   1       2.185  -3.681  -0.274  0.00  0.00     0.049 C 
HETATM    8  O   UNK N   1      -0.130   0.478   0.459  0.00  0.00    -0.267 OA
ENDROOT
BRANCH   1   9
HETATM    9  C   UNK N   1       2.354  -0.628   0.086  0.00  0.00    -0.019 A 
HETATM   10  C   UNK N   1       3.639  -1.187   0.256  0.00  0.00     0.027 A 
HETATM   11  C   UNK N   1       4.773  -0.343   0.242  0.00  0.00     0.008 A 
HETATM   12  C   UNK N   1       6.061  -0.839   0.430  0.00  0.00     0.120 A 
HETATM   13  C   UNK N   1       4.627   1.045   0.039  0.00  0.00     0.060 A 
HETATM   14  N   UNK N   1       7.123   0.015   0.414  0.00  0.00    -0.201 N 
HETATM   15  C   UNK N   1       6.951   1.351   0.215  0.00  0.00     0.676 A 
ATOM     16  HN  UNK N   1       8.064  -0.354   0.555  1.00  0.00     0.183 HD
HETATM   17  N   UNK N   1       5.710   1.856   0.028  0.00  0.00    -0.191 N 
HETATM   18  N   UNK N   1       8.063   2.216   0.204  0.00  0.00    -0.234 N 
ATOM     19  HN  UNK N   1       5.589   2.858  -0.122  1.00  0.00     0.184 HD
HETATM   20  H   UNK N   1       8.975   1.845   0.196  0.00  0.00     0.174 HD
HETATM   21  H   UNK N   1       7.928   3.191   0.204  0.00  0.00     0.174 HD
HETATM   22  C   UNK N   1       3.378   1.589  -0.151  0.00  0.00     0.032 A 
HETATM   23  C   UNK N   1       2.276   0.764  -0.128  0.00  0.00     0.015 A 
ENDBRANCH   1   9
BRANCH   3  24
HETATM   24  C   UNK N   1      -2.619  -0.518   0.018  0.00  0.00     0.044 A 
HETATM   25  C   UNK N   1      -3.920  -1.073   0.108  0.00  0.00     0.059 A 
HETATM   26  C   UNK N   1      -5.015  -0.191   0.035  0.00  0.00     0.037 A 
HETATM   27  C   UNK N   1      -4.858   1.149  -0.139  0.00  0.00    -0.022 A 
HETATM   28  N   UNK N   1      -6.359  -0.524   0.129  0.00  0.00    -0.388 N 
HETATM   29  C   UNK N   1      -3.610   1.721  -0.257  0.00  0.00     0.012 A 
HETATM   30  C   UNK N   1      -6.167   1.850  -0.178  0.00  0.00    -0.002 A 
HETATM   31  C   UNK N   1      -2.510   0.886  -0.180  0.00  0.00     0.031 A 
HETATM   32  C   UNK N   1      -6.371   2.538  -1.516  0.00  0.00     0.021 C 
HETATM   33  C   UNK N   1      -7.173   0.675   0.016  0.00  0.00     0.133 A 
HETATM   34  C   UNK N   1      -6.267   2.859   0.953  0.00  0.00     0.021 C 
HETATM   35  H   UNK N   1      -6.709  -1.436   0.254  0.00  0.00     0.159 HD
ENDBRANCH   3  24
TORSDOF 2
