MODEL 1
REMARK VINA RESULT:      -6.5      0.000      0.000
REMARK  6 active torsions:
REMARK  status: ('A' for Active; 'I' for Inactive)
REMARK    1  A    between atoms: C_2  and  C_12 
REMARK    2  A    between atoms: C_3  and  C_2 
REMARK    3  A    between atoms: C_5  and  C_4 
REMARK    4  A    between atoms: C_7  and  C_9 
REMARK    5  A    between atoms: O_8  and  C_7 
REMARK    6  A    between atoms: C_9  and  O_10 
ROOT
HETATM    1  C   UNK N   1      24.184  19.810   3.194  0.00  0.00     0.057 C 
HETATM    2  C   UNK N   1      23.067  20.501   3.050  0.00  0.00     0.031 C 
ENDROOT
BRANCH   2   3
HETATM    3  C   UNK N   1      21.694  19.914   3.068  0.00  0.00     0.074 C 
HETATM    4 Cl   UNK N   1      21.400  18.858   4.453  0.00  0.00    -0.081 Cl
HETATM    5  C   UNK N   1      20.658  20.080   2.176  0.00  0.00     0.162 C 
BRANCH   5   6
HETATM    6  C   UNK N   1      20.631  20.911   0.924  0.00  0.00     0.202 C 
HETATM    7  O   UNK N   1      20.660  22.122   0.925  0.00  0.00    -0.645 OA
BRANCH   6   8
HETATM    8  O   UNK N   1      20.571  20.277  -0.264  0.00  0.00    -0.771 OA
HETATM    9  H   UNK N   1      19.740  20.104  -0.661  0.00  0.00     0.167 HD
ENDBRANCH   6   8
ENDBRANCH   5   6
BRANCH   5  10
HETATM   10  O   UNK N   1      19.513  19.421   2.442  0.00  0.00    -0.354 OA
HETATM   11  H   UNK N   1      19.537  18.513   2.673  0.00  0.00     0.218 HD
ENDBRANCH   5  10
ENDBRANCH   2   3
BRANCH   1  12
HETATM   12  C   UNK N   1      25.549  20.358   3.181  0.00  0.00     0.182 C 
HETATM   13  O   UNK N   1      25.947  21.027   2.238  0.00  0.00    -0.288 OA
BRANCH  12  14
HETATM   14  C   UNK N   1      26.428  20.077   4.340  0.00  0.00     0.014 A 
HETATM   15  C   UNK N   1      27.342  19.016   4.314  0.00  0.00     0.015 A 
HETATM   16  C   UNK N   1      28.162  18.770   5.422  0.00  0.00     0.001 A 
HETATM   17  C   UNK N   1      28.073  19.581   6.558  0.00  0.00     0.000 A 
HETATM   18  C   UNK N   1      27.164  20.640   6.590  0.00  0.00     0.001 A 
HETATM   19  C   UNK N   1      26.347  20.885   5.487  0.00  0.00     0.015 A 
ENDBRANCH  12  14
ENDBRANCH   1  12
TORSDOF 6
ENDMDL
MODEL 2
REMARK VINA RESULT:      -6.3      9.380     11.850
REMARK  6 active torsions:
REMARK  status: ('A' for Active; 'I' for Inactive)
REMARK    1  A    between atoms: C_2  and  C_12 
REMARK    2  A    between atoms: C_3  and  C_2 
REMARK    3  A    between atoms: C_5  and  C_4 
REMARK    4  A    between atoms: C_7  and  C_9 
REMARK    5  A    between atoms: O_8  and  C_7 
REMARK    6  A    between atoms: C_9  and  O_10 
ROOT
HETATM    1  C   UNK N   1      28.638  24.305  -3.687  0.00  0.00     0.057 C 
HETATM    2  C   UNK N   1      29.162  23.398  -4.495  0.00  0.00     0.031 C 
ENDROOT
BRANCH   2   3
HETATM    3  C   UNK N   1      30.616  23.277  -4.810  0.00  0.00     0.074 C 
HETATM    4 Cl   UNK N   1      31.028  23.801  -6.445  0.00  0.00    -0.081 Cl
HETATM    5  C   UNK N   1      31.649  22.825  -4.018  0.00  0.00     0.162 C 
BRANCH   5   6
HETATM    6  C   UNK N   1      31.589  22.324  -2.603  0.00  0.00     0.202 C 
HETATM    7  O   UNK N   1      30.908  22.837  -1.741  0.00  0.00    -0.645 OA
BRANCH   6   8
HETATM    8  O   UNK N   1      32.329  21.248  -2.273  0.00  0.00    -0.771 OA
HETATM    9  H   UNK N   1      33.109  21.354  -1.764  0.00  0.00     0.167 HD
ENDBRANCH   6   8
ENDBRANCH   5   6
BRANCH   5  10
HETATM   10  O   UNK N   1      32.881  22.824  -4.566  0.00  0.00    -0.354 OA
HETATM   11  H   UNK N   1      33.617  22.530  -4.066  0.00  0.00     0.218 HD
ENDBRANCH   5  10
ENDBRANCH   2   3
BRANCH   1  12
HETATM   12  C   UNK N   1      27.212  24.450  -3.357  0.00  0.00     0.182 C 
HETATM   13  O   UNK N   1      26.671  23.690  -2.566  0.00  0.00    -0.288 OA
BRANCH  12  14
HETATM   14  C   UNK N   1      26.451  25.540  -4.008  0.00  0.00     0.014 A 
HETATM   15  C   UNK N   1      25.855  25.357  -5.263  0.00  0.00     0.015 A 
HETATM   16  C   UNK N   1      25.139  26.403  -5.858  0.00  0.00     0.001 A 
HETATM   17  C   UNK N   1      25.016  27.633  -5.205  0.00  0.00     0.000 A 
HETATM   18  C   UNK N   1      25.608  27.822  -3.955  0.00  0.00     0.001 A 
HETATM   19  C   UNK N   1      26.320  26.781  -3.361  0.00  0.00     0.015 A 
ENDBRANCH  12  14
ENDBRANCH   1  12
TORSDOF 6
ENDMDL
MODEL 3
REMARK VINA RESULT:      -6.2      6.737     10.409
REMARK  6 active torsions:
REMARK  status: ('A' for Active; 'I' for Inactive)
REMARK    1  A    between atoms: C_2  and  C_12 
REMARK    2  A    between atoms: C_3  and  C_2 
REMARK    3  A    between atoms: C_5  and  C_4 
REMARK    4  A    between atoms: C_7  and  C_9 
REMARK    5  A    between atoms: O_8  and  C_7 
REMARK    6  A    between atoms: C_9  and  O_10 
ROOT
HETATM    1  C   UNK N   1      30.192  17.195   6.748  0.00  0.00     0.057 C 
HETATM    2  C   UNK N   1      31.385  17.571   7.176  0.00  0.00     0.031 C 
ENDROOT
BRANCH   2   3
HETATM    3  C   UNK N   1      32.682  17.053   6.647  0.00  0.00     0.074 C 
HETATM    4 Cl   UNK N   1      32.506  16.088   5.178  0.00  0.00    -0.081 Cl
HETATM    5  C   UNK N   1      33.958  17.223   7.136  0.00  0.00     0.162 C 
BRANCH   5   6
HETATM    6  C   UNK N   1      34.396  17.986   8.354  0.00  0.00     0.202 C 
HETATM    7  O   UNK N   1      34.980  19.046   8.304  0.00  0.00    -0.645 OA
BRANCH   6   8
HETATM    8  O   UNK N   1      34.124  17.466   9.567  0.00  0.00    -0.771 OA
HETATM    9  H   UNK N   1      34.583  17.776  10.323  0.00  0.00     0.167 HD
ENDBRANCH   6   8
ENDBRANCH   5   6
BRANCH   5  10
HETATM   10  O   UNK N   1      34.957  16.635   6.448  0.00  0.00    -0.354 OA
HETATM   11  H   UNK N   1      35.629  17.158   6.058  0.00  0.00     0.218 HD
ENDBRANCH   5  10
ENDBRANCH   2   3
BRANCH   1  12
HETATM   12  C   UNK N   1      28.899  17.686   7.248  0.00  0.00     0.182 C 
HETATM   13  O   UNK N   1      28.371  17.178   8.227  0.00  0.00    -0.288 OA
BRANCH  12  14
HETATM   14  C   UNK N   1      28.253  18.811   6.533  0.00  0.00     0.014 A 
HETATM   15  C   UNK N   1      27.634  19.854   7.235  0.00  0.00     0.015 A 
HETATM   16  C   UNK N   1      27.031  20.907   6.537  0.00  0.00     0.001 A 
HETATM   17  C   UNK N   1      27.042  20.924   5.139  0.00  0.00     0.000 A 
HETATM   18  C   UNK N   1      27.657  19.888   4.434  0.00  0.00     0.001 A 
HETATM   19  C   UNK N   1      28.258  18.839   5.128  0.00  0.00     0.015 A 
ENDBRANCH  12  14
ENDBRANCH   1  12
TORSDOF 6
ENDMDL
MODEL 4
REMARK VINA RESULT:      -6.2      7.746     11.273
REMARK  6 active torsions:
REMARK  status: ('A' for Active; 'I' for Inactive)
REMARK    1  A    between atoms: C_2  and  C_12 
REMARK    2  A    between atoms: C_3  and  C_2 
REMARK    3  A    between atoms: C_5  and  C_4 
REMARK    4  A    between atoms: C_7  and  C_9 
REMARK    5  A    between atoms: O_8  and  C_7 
REMARK    6  A    between atoms: C_9  and  O_10 
ROOT
HETATM    1  C   UNK N   1      31.557  16.678   7.849  0.00  0.00     0.057 C 
HETATM    2  C   UNK N   1      32.596  15.898   8.095  0.00  0.00     0.031 C 
ENDROOT
BRANCH   2   3
HETATM    3  C   UNK N   1      33.644  16.174   9.121  0.00  0.00     0.074 C 
HETATM    4 Cl   UNK N   1      33.653  15.008  10.448  0.00  0.00    -0.081 Cl
HETATM    5  C   UNK N   1      34.577  17.186   9.170  0.00  0.00     0.162 C 
BRANCH   5   6
HETATM    6  C   UNK N   1      34.794  18.302   8.188  0.00  0.00     0.202 C 
HETATM    7  O   UNK N   1      34.471  18.238   7.022  0.00  0.00    -0.645 OA
BRANCH   6   8
HETATM    8  O   UNK N   1      35.379  19.434   8.625  0.00  0.00    -0.771 OA
HETATM    9  H   UNK N   1      36.130  19.775   8.181  0.00  0.00     0.167 HD
ENDBRANCH   6   8
ENDBRANCH   5   6
BRANCH   5  10
HETATM   10  O   UNK N   1      35.413  17.193  10.228  0.00  0.00    -0.354 OA
HETATM   11  H   UNK N   1      35.217  17.723  10.976  0.00  0.00     0.218 HD
ENDBRANCH   5  10
ENDBRANCH   2   3
BRANCH   1  12
HETATM   12  C   UNK N   1      30.509  16.435   6.846  0.00  0.00     0.182 C 
HETATM   13  O   UNK N   1      30.441  15.365   6.257  0.00  0.00    -0.288 OA
BRANCH  12  14
HETATM   14  C   UNK N   1      29.539  17.519   6.570  0.00  0.00     0.014 A 
HETATM   15  C   UNK N   1      29.191  17.862   5.257  0.00  0.00     0.015 A 
HETATM   16  C   UNK N   1      28.272  18.891   5.020  0.00  0.00     0.001 A 
HETATM   17  C   UNK N   1      27.696  19.581   6.092  0.00  0.00     0.000 A 
HETATM   18  C   UNK N   1      28.038  19.244   7.403  0.00  0.00     0.001 A 
HETATM   19  C   UNK N   1      28.954  18.220   7.639  0.00  0.00     0.015 A 
ENDBRANCH  12  14
ENDBRANCH   1  12
TORSDOF 6
ENDMDL
MODEL 5
REMARK VINA RESULT:      -6.0     14.601     17.553
REMARK  6 active torsions:
REMARK  status: ('A' for Active; 'I' for Inactive)
REMARK    1  A    between atoms: C_2  and  C_12 
REMARK    2  A    between atoms: C_3  and  C_2 
REMARK    3  A    between atoms: C_5  and  C_4 
REMARK    4  A    between atoms: C_7  and  C_9 
REMARK    5  A    between atoms: O_8  and  C_7 
REMARK    6  A    between atoms: C_9  and  O_10 
ROOT
HETATM    1  C   UNK N   1      35.607  12.482  13.820  0.00  0.00     0.057 C 
HETATM    2  C   UNK N   1      35.289  13.215  12.767  0.00  0.00     0.031 C 
ENDROOT
BRANCH   2   3
HETATM    3  C   UNK N   1      36.274  13.807  11.813  0.00  0.00     0.074 C 
HETATM    4 Cl   UNK N   1      37.745  12.847  11.637  0.00  0.00    -0.081 Cl
HETATM    5  C   UNK N   1      36.190  14.967  11.075  0.00  0.00     0.162 C 
BRANCH   5   6
HETATM    6  C   UNK N   1      35.067  15.964  11.030  0.00  0.00     0.202 C 
HETATM    7  O   UNK N   1      35.228  17.143  10.800  0.00  0.00    -0.645 OA
BRANCH   6   8
HETATM    8  O   UNK N   1      33.813  15.526  11.257  0.00  0.00    -0.771 OA
HETATM    9  H   UNK N   1      33.526  15.360  12.133  0.00  0.00     0.167 HD
ENDBRANCH   6   8
ENDBRANCH   5   6
BRANCH   5  10
HETATM   10  O   UNK N   1      37.241  15.263  10.284  0.00  0.00    -0.354 OA
HETATM   11  H   UNK N   1      37.618  14.601   9.739  0.00  0.00     0.218 HD
ENDBRANCH   5  10
ENDBRANCH   2   3
BRANCH   1  12
HETATM   12  C   UNK N   1      34.662  11.886  14.777  0.00  0.00     0.182 C 
HETATM   13  O   UNK N   1      33.691  11.253  14.388  0.00  0.00    -0.288 OA
BRANCH  12  14
HETATM   14  C   UNK N   1      34.919  12.073  16.223  0.00  0.00     0.014 A 
HETATM   15  C   UNK N   1      34.917  13.350  16.799  0.00  0.00     0.015 A 
HETATM   16  C   UNK N   1      35.162  13.502  18.169  0.00  0.00     0.001 A 
HETATM   17  C   UNK N   1      35.411  12.382  18.968  0.00  0.00     0.000 A 
HETATM   18  C   UNK N   1      35.415  11.107  18.401  0.00  0.00     0.001 A 
HETATM   19  C   UNK N   1      35.171  10.955  17.037  0.00  0.00     0.015 A 
ENDBRANCH  12  14
ENDBRANCH   1  12
TORSDOF 6
ENDMDL
MODEL 6
REMARK VINA RESULT:      -5.9      9.037      9.870
REMARK  6 active torsions:
REMARK  status: ('A' for Active; 'I' for Inactive)
REMARK    1  A    between atoms: C_2  and  C_12 
REMARK    2  A    between atoms: C_3  and  C_2 
REMARK    3  A    between atoms: C_5  and  C_4 
REMARK    4  A    between atoms: C_7  and  C_9 
REMARK    5  A    between atoms: O_8  and  C_7 
REMARK    6  A    between atoms: C_9  and  O_10 
ROOT
HETATM    1  C   UNK N   1      28.970  23.850  -3.359  0.00  0.00     0.057 C 
HETATM    2  C   UNK N   1      27.660  23.865  -3.179  0.00  0.00     0.031 C 
ENDROOT
BRANCH   2   3
HETATM    3  C   UNK N   1      26.705  24.724  -3.940  0.00  0.00     0.074 C 
HETATM    4 Cl   UNK N   1      26.403  26.286  -3.176  0.00  0.00    -0.081 Cl
HETATM    5  C   UNK N   1      26.049  24.468  -5.124  0.00  0.00     0.162 C 
BRANCH   5   6
HETATM    6  C   UNK N   1      26.119  23.235  -5.980  0.00  0.00     0.202 C 
HETATM    7  O   UNK N   1      25.147  22.582  -6.293  0.00  0.00    -0.645 OA
BRANCH   6   8
HETATM    8  O   UNK N   1      27.325  22.833  -6.426  0.00  0.00    -0.771 OA
HETATM    9  H   UNK N   1      27.929  22.423  -5.838  0.00  0.00     0.167 HD
ENDBRANCH   6   8
ENDBRANCH   5   6
BRANCH   5  10
HETATM   10  O   UNK N   1      25.234  25.436  -5.590  0.00  0.00    -0.354 OA
HETATM   11  H   UNK N   1      24.341  25.472  -5.310  0.00  0.00     0.218 HD
ENDBRANCH   5  10
ENDBRANCH   2   3
BRANCH   1  12
HETATM   12  C   UNK N   1      29.936  23.017  -2.627  0.00  0.00     0.182 C 
HETATM   13  O   UNK N   1      30.061  23.121  -1.415  0.00  0.00    -0.288 OA
BRANCH  12  14
HETATM   14  C   UNK N   1      30.751  22.050  -3.397  0.00  0.00     0.014 A 
HETATM   15  C   UNK N   1      30.258  21.457  -4.566  0.00  0.00     0.015 A 
HETATM   16  C   UNK N   1      31.048  20.546  -5.278  0.00  0.00     0.001 A 
HETATM   17  C   UNK N   1      32.331  20.223  -4.825  0.00  0.00     0.000 A 
HETATM   18  C   UNK N   1      32.828  20.810  -3.660  0.00  0.00     0.001 A 
HETATM   19  C   UNK N   1      32.043  21.718  -2.952  0.00  0.00     0.015 A 
ENDBRANCH  12  14
ENDBRANCH   1  12
TORSDOF 6
ENDMDL
MODEL 7
REMARK VINA RESULT:      -5.9      7.959     10.742
REMARK  6 active torsions:
REMARK  status: ('A' for Active; 'I' for Inactive)
REMARK    1  A    between atoms: C_2  and  C_12 
REMARK    2  A    between atoms: C_3  and  C_2 
REMARK    3  A    between atoms: C_5  and  C_4 
REMARK    4  A    between atoms: C_7  and  C_9 
REMARK    5  A    between atoms: O_8  and  C_7 
REMARK    6  A    between atoms: C_9  and  O_10 
ROOT
HETATM    1  C   UNK N   1      33.065  17.979   7.674  0.00  0.00     0.057 C 
HETATM    2  C   UNK N   1      31.965  17.403   8.128  0.00  0.00     0.031 C 
ENDROOT
BRANCH   2   3
HETATM    3  C   UNK N   1      30.670  17.339   7.389  0.00  0.00     0.074 C 
HETATM    4 Cl   UNK N   1      30.827  16.695   5.752  0.00  0.00    -0.081 Cl
HETATM    5  C   UNK N   1      29.407  17.705   7.800  0.00  0.00     0.162 C 
BRANCH   5   6
HETATM    6  C   UNK N   1      28.987  18.275   9.125  0.00  0.00     0.202 C 
HETATM    7  O   UNK N   1      29.757  18.796   9.903  0.00  0.00    -0.645 OA
BRANCH   6   8
HETATM    8  O   UNK N   1      27.686  18.205   9.469  0.00  0.00    -0.771 OA
HETATM    9  H   UNK N   1      27.226  17.392   9.397  0.00  0.00     0.167 HD
ENDBRANCH   6   8
ENDBRANCH   5   6
BRANCH   5  10
HETATM   10  O   UNK N   1      28.405  17.536   6.914  0.00  0.00    -0.354 OA
HETATM   11  H   UNK N   1      28.367  16.760   6.391  0.00  0.00     0.218 HD
ENDBRANCH   5  10
ENDBRANCH   2   3
BRANCH   1  12
HETATM   12  C   UNK N   1      34.354  18.059   8.378  0.00  0.00     0.182 C 
HETATM   13  O   UNK N   1      35.008  19.093   8.375  0.00  0.00    -0.288 OA
BRANCH  12  14
HETATM   14  C   UNK N   1      34.840  16.854   9.088  0.00  0.00     0.014 A 
HETATM   15  C   UNK N   1      35.160  16.898  10.452  0.00  0.00     0.015 A 
HETATM   16  C   UNK N   1      35.617  15.746  11.103  0.00  0.00     0.001 A 
HETATM   17  C   UNK N   1      35.757  14.547  10.396  0.00  0.00     0.000 A 
HETATM   18  C   UNK N   1      35.440  14.497   9.038  0.00  0.00     0.001 A 
HETATM   19  C   UNK N   1      34.984  15.643   8.389  0.00  0.00     0.015 A 
ENDBRANCH  12  14
ENDBRANCH   1  12
TORSDOF 6
ENDMDL
MODEL 8
REMARK VINA RESULT:      -5.8      7.893     11.810
REMARK  6 active torsions:
REMARK  status: ('A' for Active; 'I' for Inactive)
REMARK    1  A    between atoms: C_2  and  C_12 
REMARK    2  A    between atoms: C_3  and  C_2 
REMARK    3  A    between atoms: C_5  and  C_4 
REMARK    4  A    between atoms: C_7  and  C_9 
REMARK    5  A    between atoms: O_8  and  C_7 
REMARK    6  A    between atoms: C_9  and  O_10 
ROOT
HETATM    1  C   UNK N   1      31.781  17.015   7.856  0.00  0.00     0.057 C 
HETATM    2  C   UNK N   1      33.073  16.767   7.719  0.00  0.00     0.031 C 
ENDROOT
BRANCH   2   3
HETATM    3  C   UNK N   1      34.132  17.216   8.671  0.00  0.00     0.074 C 
HETATM    4 Cl   UNK N   1      34.775  18.818   8.302  0.00  0.00    -0.081 Cl
HETATM    5  C   UNK N   1      34.658  16.566   9.765  0.00  0.00     0.162 C 
BRANCH   5   6
HETATM    6  C   UNK N   1      34.302  15.209  10.304  0.00  0.00     0.202 C 
HETATM    7  O   UNK N   1      34.941  14.208  10.067  0.00  0.00    -0.645 OA
BRANCH   6   8
HETATM    8  O   UNK N   1      33.216  15.099  11.093  0.00  0.00    -0.771 OA
HETATM    9  H   UNK N   1      32.788  14.271  11.188  0.00  0.00     0.167 HD
ENDBRANCH   6   8
ENDBRANCH   5   6
BRANCH   5  10
HETATM   10  O   UNK N   1      35.618  17.215  10.456  0.00  0.00    -0.354 OA
HETATM   11  H   UNK N   1      36.493  16.882  10.467  0.00  0.00     0.218 HD
ENDBRANCH   5  10
ENDBRANCH   2   3
BRANCH   1  12
HETATM   12  C   UNK N   1      30.715  16.587   6.938  0.00  0.00     0.182 C 
HETATM   13  O   UNK N   1      30.696  15.451   6.485  0.00  0.00    -0.288 OA
BRANCH  12  14
HETATM   14  C   UNK N   1      29.667  17.569   6.576  0.00  0.00     0.014 A 
HETATM   15  C   UNK N   1      28.962  18.271   7.563  0.00  0.00     0.015 A 
HETATM   16  C   UNK N   1      27.975  19.194   7.197  0.00  0.00     0.001 A 
HETATM   17  C   UNK N   1      27.689  19.420   5.847  0.00  0.00     0.000 A 
HETATM   18  C   UNK N   1      28.387  18.724   4.859  0.00  0.00     0.001 A 
HETATM   19  C   UNK N   1      29.370  17.805   5.223  0.00  0.00     0.015 A 
ENDBRANCH  12  14
ENDBRANCH   1  12
TORSDOF 6
ENDMDL
MODEL 9
REMARK VINA RESULT:      -5.8     14.202     17.169
REMARK  6 active torsions:
REMARK  status: ('A' for Active; 'I' for Inactive)
REMARK    1  A    between atoms: C_2  and  C_12 
REMARK    2  A    between atoms: C_3  and  C_2 
REMARK    3  A    between atoms: C_5  and  C_4 
REMARK    4  A    between atoms: C_7  and  C_9 
REMARK    5  A    between atoms: O_8  and  C_7 
REMARK    6  A    between atoms: C_9  and  O_10 
ROOT
HETATM    1  C   UNK N   1      36.441  13.828  13.459  0.00  0.00     0.057 C 
HETATM    2  C   UNK N   1      35.288  13.964  12.827  0.00  0.00     0.031 C 
ENDROOT
BRANCH   2   3
HETATM    3  C   UNK N   1      35.091  13.754  11.362  0.00  0.00     0.074 C 
HETATM    4 Cl   UNK N   1      34.744  12.078  10.932  0.00  0.00    -0.081 Cl
HETATM    5  C   UNK N   1      35.142  14.668  10.332  0.00  0.00     0.162 C 
BRANCH   5   6
HETATM    6  C   UNK N   1      35.414  16.143  10.407  0.00  0.00     0.202 C 
HETATM    7  O   UNK N   1      36.504  16.610  10.654  0.00  0.00    -0.645 OA
BRANCH   6   8
HETATM    8  O   UNK N   1      34.393  16.994  10.188  0.00  0.00    -0.771 OA
HETATM    9  H   UNK N   1      33.567  16.853  10.608  0.00  0.00     0.167 HD
ENDBRANCH   6   8
ENDBRANCH   5   6
BRANCH   5  10
HETATM   10  O   UNK N   1      34.922  14.195   9.088  0.00  0.00    -0.354 OA
HETATM   11  H   UNK N   1      35.609  13.759   8.624  0.00  0.00     0.218 HD
ENDBRANCH   5  10
ENDBRANCH   2   3
BRANCH   1  12
HETATM   12  C   UNK N   1      36.667  14.027  14.899  0.00  0.00     0.182 C 
HETATM   13  O   UNK N   1      37.174  15.059  15.317  0.00  0.00    -0.288 OA
BRANCH  12  14
HETATM   14  C   UNK N   1      36.266  12.945  15.827  0.00  0.00     0.014 A 
HETATM   15  C   UNK N   1      35.499  13.218  16.968  0.00  0.00     0.015 A 
HETATM   16  C   UNK N   1      35.131  12.179  17.831  0.00  0.00     0.001 A 
HETATM   17  C   UNK N   1      35.527  10.865  17.559  0.00  0.00     0.000 A 
HETATM   18  C   UNK N   1      36.291  10.587  16.425  0.00  0.00     0.001 A 
HETATM   19  C   UNK N   1      36.657  11.621  15.565  0.00  0.00     0.015 A 
ENDBRANCH  12  14
ENDBRANCH   1  12
TORSDOF 6
ENDMDL
