MODEL 1
REMARK VINA RESULT:      -5.6      0.000      0.000
REMARK  8 active torsions:
REMARK  status: ('A' for Active; 'I' for Inactive)
REMARK    1  A    between atoms: C_2  and  C_14 
REMARK    2  A    between atoms: C_3  and  C_4 
REMARK    3  A    between atoms: C_4  and  C_8 
REMARK    4  A    between atoms: C_8  and  C_12 
REMARK    5  A    between atoms: C_9  and  C_10 
REMARK    6  A    between atoms: C_9  and  C_11 
REMARK    7  A    between atoms: C_12  and  O_17 
REMARK    8  A    between atoms: C_14  and  O_15 
ROOT
HETATM    1  C   UNK N   1      30.409  17.054   7.628  0.00  0.00    -0.013 A 
HETATM    2  C   UNK N   1      29.263  17.818   7.792  0.00  0.00     0.075 A 
HETATM    3  C   UNK N   1      28.768  18.022   6.487  0.00  0.00     0.071 A 
HETATM    4  C   UNK N   1      31.319  16.547   8.697  0.00  0.00     0.052 C 
HETATM    5  O   UNK N   1      29.576  17.432   5.627  0.00  0.00    -0.318 OA
HETATM    6  C   UNK N   1      30.559  16.849   6.275  0.00  0.00     0.060 A 
ENDROOT
BRANCH   3   7
HETATM    7  C   UNK N   1      27.541  18.751   5.980  0.00  0.00     0.076 C 
BRANCH   7   8
HETATM    8  C   UNK N   1      27.638  20.263   5.906  0.00  0.00     0.116 C 
BRANCH   8   9
HETATM    9  C   UNK N   1      26.695  20.980   6.821  0.00  0.00     0.139 C 
HETATM   10  O   UNK N   1      26.191  22.029   6.455  0.00  0.00    -0.650 OA
BRANCH   9  11
HETATM   11  O   UNK N   1      26.400  20.489   8.041  0.00  0.00    -0.776 OA
HETATM   12  H   UNK N   1      26.247  21.064   8.764  0.00  0.00     0.167 HD
ENDBRANCH   9  11
ENDBRANCH   8   9
ENDBRANCH   7   8
ENDBRANCH   3   7
BRANCH   2  13
HETATM   13  C   UNK N   1      28.769  18.275   9.125  0.00  0.00     0.179 C 
HETATM   14  O   UNK N   1      29.518  18.776   9.944  0.00  0.00    -0.646 OA
BRANCH  13  15
HETATM   15  O   UNK N   1      27.476  18.106   9.457  0.00  0.00    -0.773 OA
HETATM   16  H   UNK N   1      27.133  18.503  10.233  0.00  0.00     0.167 HD
ENDBRANCH  13  15
ENDBRANCH   2  13
BRANCH   6  17
HETATM   17  C   UNK N   1      31.644  16.065   5.601  0.00  0.00     0.065 C 
BRANCH  17  18
HETATM   18  C   UNK N   1      32.872  16.919   5.327  0.00  0.00     0.002 C 
HETATM   19  C   UNK N   1      32.690  17.661   4.017  0.00  0.00     0.005 C 
ENDBRANCH  17  18
ENDBRANCH   6  17
TORSDOF 8
ENDMDL
MODEL 2
REMARK VINA RESULT:      -5.6      8.316     11.123
REMARK  8 active torsions:
REMARK  status: ('A' for Active; 'I' for Inactive)
REMARK    1  A    between atoms: C_2  and  C_14 
REMARK    2  A    between atoms: C_3  and  C_4 
REMARK    3  A    between atoms: C_4  and  C_8 
REMARK    4  A    between atoms: C_8  and  C_12 
REMARK    5  A    between atoms: C_9  and  C_10 
REMARK    6  A    between atoms: C_9  and  C_11 
REMARK    7  A    between atoms: C_12  and  O_17 
REMARK    8  A    between atoms: C_14  and  O_15 
ROOT
HETATM    1  C   UNK N   1      36.756  12.459  13.790  0.00  0.00    -0.013 A 
HETATM    2  C   UNK N   1      36.688  12.776  12.441  0.00  0.00     0.075 A 
HETATM    3  C   UNK N   1      35.468  13.467  12.287  0.00  0.00     0.071 A 
HETATM    4  C   UNK N   1      37.852  11.731  14.494  0.00  0.00     0.052 C 
HETATM    5  O   UNK N   1      34.865  13.534  13.459  0.00  0.00    -0.318 OA
HETATM    6  C   UNK N   1      35.606  12.945  14.370  0.00  0.00     0.060 A 
ENDROOT
BRANCH   3   7
HETATM    7  C   UNK N   1      34.816  14.097  11.074  0.00  0.00     0.076 C 
BRANCH   7   8
HETATM    8  C   UNK N   1      34.587  15.596  11.135  0.00  0.00     0.116 C 
BRANCH   8   9
HETATM    9  C   UNK N   1      35.768  16.411  10.712  0.00  0.00     0.139 C 
HETATM   10  O   UNK N   1      35.587  17.517  10.229  0.00  0.00    -0.650 OA
BRANCH   9  11
HETATM   11  O   UNK N   1      37.023  15.942  10.850  0.00  0.00    -0.776 OA
HETATM   12  H   UNK N   1      37.235  15.336  11.533  0.00  0.00     0.167 HD
ENDBRANCH   9  11
ENDBRANCH   8   9
ENDBRANCH   7   8
ENDBRANCH   3   7
BRANCH   2  13
HETATM   13  C   UNK N   1      37.746  12.395  11.457  0.00  0.00     0.179 C 
HETATM   14  O   UNK N   1      37.840  11.259  11.032  0.00  0.00    -0.646 OA
BRANCH  13  15
HETATM   15  O   UNK N   1      38.642  13.310  11.047  0.00  0.00    -0.773 OA
HETATM   16  H   UNK N   1      39.478  13.039  10.722  0.00  0.00     0.167 HD
ENDBRANCH  13  15
ENDBRANCH   2  13
BRANCH   6  17
HETATM   17  C   UNK N   1      35.228  12.863  15.818  0.00  0.00     0.065 C 
BRANCH  17  18
HETATM   18  C   UNK N   1      34.826  11.453  16.217  0.00  0.00     0.002 C 
HETATM   19  C   UNK N   1      35.292  11.174  17.633  0.00  0.00     0.005 C 
ENDBRANCH  17  18
ENDBRANCH   6  17
TORSDOF 8
ENDMDL
MODEL 3
REMARK VINA RESULT:      -5.5      1.803      4.995
REMARK  8 active torsions:
REMARK  status: ('A' for Active; 'I' for Inactive)
REMARK    1  A    between atoms: C_2  and  C_14 
REMARK    2  A    between atoms: C_3  and  C_4 
REMARK    3  A    between atoms: C_4  and  C_8 
REMARK    4  A    between atoms: C_8  and  C_12 
REMARK    5  A    between atoms: C_9  and  C_10 
REMARK    6  A    between atoms: C_9  and  C_11 
REMARK    7  A    between atoms: C_12  and  O_17 
REMARK    8  A    between atoms: C_14  and  O_15 
ROOT
HETATM    1  C   UNK N   1      27.746  19.521   6.434  0.00  0.00    -0.013 A 
HETATM    2  C   UNK N   1      28.433  18.569   7.173  0.00  0.00     0.075 A 
HETATM    3  C   UNK N   1      28.991  17.695   6.217  0.00  0.00     0.071 A 
HETATM    4  C   UNK N   1      26.976  20.689   6.957  0.00  0.00     0.052 C 
HETATM    5  O   UNK N   1      28.640  18.101   5.012  0.00  0.00    -0.318 OA
HETATM    6  C   UNK N   1      27.901  19.183   5.109  0.00  0.00     0.060 A 
ENDROOT
BRANCH   3   7
HETATM    7  C   UNK N   1      29.867  16.469   6.366  0.00  0.00     0.076 C 
BRANCH   7   8
HETATM    8  C   UNK N   1      30.830  16.187   5.227  0.00  0.00     0.116 C 
BRANCH   8   9
HETATM    9  C   UNK N   1      31.768  17.314   4.927  0.00  0.00     0.139 C 
HETATM   10  O   UNK N   1      32.739  17.488   5.644  0.00  0.00    -0.650 OA
BRANCH   9  11
HETATM   11  O   UNK N   1      31.552  18.139   3.884  0.00  0.00    -0.776 OA
HETATM   12  H   UNK N   1      31.526  19.068   4.006  0.00  0.00     0.167 HD
ENDBRANCH   9  11
ENDBRANCH   8   9
ENDBRANCH   7   8
ENDBRANCH   3   7
BRANCH   2  13
HETATM   13  C   UNK N   1      28.485  18.573   8.666  0.00  0.00     0.179 C 
HETATM   14  O   UNK N   1      29.496  18.888   9.267  0.00  0.00    -0.646 OA
BRANCH  13  15
HETATM   15  O   UNK N   1      27.409  18.192   9.377  0.00  0.00    -0.773 OA
HETATM   16  H   UNK N   1      27.023  18.777   9.998  0.00  0.00     0.167 HD
ENDBRANCH  13  15
ENDBRANCH   2  13
BRANCH   6  17
HETATM   17  C   UNK N   1      27.354  19.922   3.925  0.00  0.00     0.065 C 
BRANCH  17  18
HETATM   18  C   UNK N   1      25.958  19.445   3.558  0.00  0.00     0.002 C 
HETATM   19  C   UNK N   1      25.290  20.472   2.665  0.00  0.00     0.005 C 
ENDBRANCH  17  18
ENDBRANCH   6  17
TORSDOF 8
ENDMDL
MODEL 4
REMARK VINA RESULT:      -5.5     11.791     14.472
REMARK  8 active torsions:
REMARK  status: ('A' for Active; 'I' for Inactive)
REMARK    1  A    between atoms: C_2  and  C_14 
REMARK    2  A    between atoms: C_3  and  C_4 
REMARK    3  A    between atoms: C_4  and  C_8 
REMARK    4  A    between atoms: C_8  and  C_12 
REMARK    5  A    between atoms: C_9  and  C_10 
REMARK    6  A    between atoms: C_9  and  C_11 
REMARK    7  A    between atoms: C_12  and  O_17 
REMARK    8  A    between atoms: C_14  and  O_15 
ROOT
HETATM    1  C   UNK N   1      25.863  26.070  -5.160  0.00  0.00    -0.013 A 
HETATM    2  C   UNK N   1      26.413  24.813  -4.954  0.00  0.00     0.075 A 
HETATM    3  C   UNK N   1      26.928  24.848  -3.641  0.00  0.00     0.071 A 
HETATM    4  C   UNK N   1      25.176  26.566  -6.389  0.00  0.00     0.052 C 
HETATM    5  O   UNK N   1      26.705  26.044  -3.128  0.00  0.00    -0.318 OA
HETATM    6  C   UNK N   1      26.075  26.790  -4.006  0.00  0.00     0.060 A 
ENDROOT
BRANCH   3   7
HETATM    7  C   UNK N   1      27.628  23.797  -2.807  0.00  0.00     0.076 C 
BRANCH   7   8
HETATM    8  C   UNK N   1      28.929  23.250  -3.365  0.00  0.00     0.116 C 
BRANCH   8   9
HETATM    9  C   UNK N   1      30.148  23.699  -2.622  0.00  0.00     0.139 C 
HETATM   10  O   UNK N   1      30.681  24.751  -2.932  0.00  0.00    -0.650 OA
BRANCH   9  11
HETATM   11  O   UNK N   1      30.666  22.958  -1.623  0.00  0.00    -0.776 OA
HETATM   12  H   UNK N   1      31.048  22.119  -1.797  0.00  0.00     0.167 HD
ENDBRANCH   9  11
ENDBRANCH   8   9
ENDBRANCH   7   8
ENDBRANCH   3   7
BRANCH   2  13
HETATM   13  C   UNK N   1      26.409  23.738  -5.991  0.00  0.00     0.179 C 
HETATM   14  O   UNK N   1      27.401  23.484  -6.648  0.00  0.00    -0.646 OA
BRANCH  13  15
HETATM   15  O   UNK N   1      25.281  23.048  -6.238  0.00  0.00    -0.773 OA
HETATM   16  H   UNK N   1      24.685  22.853  -5.542  0.00  0.00     0.167 HD
ENDBRANCH  13  15
ENDBRANCH   2  13
BRANCH   6  17
HETATM   17  C   UNK N   1      25.645  28.200  -3.737  0.00  0.00     0.065 C 
BRANCH  17  18
HETATM   18  C   UNK N   1      26.832  29.145  -3.644  0.00  0.00     0.002 C 
HETATM   19  C   UNK N   1      27.229  29.599  -5.035  0.00  0.00     0.005 C 
ENDBRANCH  17  18
ENDBRANCH   6  17
TORSDOF 8
ENDMDL
MODEL 5
REMARK VINA RESULT:      -5.5      2.309      5.295
REMARK  8 active torsions:
REMARK  status: ('A' for Active; 'I' for Inactive)
REMARK    1  A    between atoms: C_2  and  C_14 
REMARK    2  A    between atoms: C_3  and  C_4 
REMARK    3  A    between atoms: C_4  and  C_8 
REMARK    4  A    between atoms: C_8  and  C_12 
REMARK    5  A    between atoms: C_9  and  C_10 
REMARK    6  A    between atoms: C_9  and  C_11 
REMARK    7  A    between atoms: C_12  and  O_17 
REMARK    8  A    between atoms: C_14  and  O_15 
ROOT
HETATM    1  C   UNK N   1      29.181  18.039   7.405  0.00  0.00    -0.013 A 
HETATM    2  C   UNK N   1      30.434  17.450   7.315  0.00  0.00     0.075 A 
HETATM    3  C   UNK N   1      30.593  17.130   5.950  0.00  0.00     0.071 A 
HETATM    4  C   UNK N   1      28.519  18.573   8.631  0.00  0.00     0.052 C 
HETATM    5  O   UNK N   1      29.504  17.493   5.298  0.00  0.00    -0.318 OA
HETATM    6  C   UNK N   1      28.649  18.035   6.135  0.00  0.00     0.060 A 
ENDROOT
BRANCH   3   7
HETATM    7  C   UNK N   1      31.739  16.494   5.193  0.00  0.00     0.076 C 
BRANCH   7   8
HETATM    8  C   UNK N   1      32.938  17.381   4.916  0.00  0.00     0.116 C 
BRANCH   8   9
HETATM    9  C   UNK N   1      34.082  17.175   5.859  0.00  0.00     0.139 C 
HETATM   10  O   UNK N   1      34.746  16.155   5.774  0.00  0.00    -0.650 OA
BRANCH   9  11
HETATM   11  O   UNK N   1      34.383  18.091   6.799  0.00  0.00    -0.776 OA
HETATM   12  H   UNK N   1      33.825  18.217   7.542  0.00  0.00     0.167 HD
ENDBRANCH   9  11
ENDBRANCH   8   9
ENDBRANCH   7   8
ENDBRANCH   3   7
BRANCH   2  13
HETATM   13  C   UNK N   1      31.328  17.245   8.494  0.00  0.00     0.179 C 
HETATM   14  O   UNK N   1      32.291  17.962   8.694  0.00  0.00    -0.646 OA
BRANCH  13  15
HETATM   15  O   UNK N   1      31.096  16.230   9.345  0.00  0.00    -0.773 OA
HETATM   16  H   UNK N   1      30.236  15.865   9.419  0.00  0.00     0.167 HD
ENDBRANCH  13  15
ENDBRANCH   2  13
BRANCH   6  17
HETATM   17  C   UNK N   1      27.316  18.581   5.720  0.00  0.00     0.065 C 
BRANCH  17  18
HETATM   18  C   UNK N   1      27.453  19.897   4.971  0.00  0.00     0.002 C 
HETATM   19  C   UNK N   1      27.427  21.047   5.958  0.00  0.00     0.005 C 
ENDBRANCH  17  18
ENDBRANCH   6  17
TORSDOF 8
ENDMDL
MODEL 6
REMARK VINA RESULT:      -5.3      2.463      4.638
REMARK  8 active torsions:
REMARK  status: ('A' for Active; 'I' for Inactive)
REMARK    1  A    between atoms: C_2  and  C_14 
REMARK    2  A    between atoms: C_3  and  C_4 
REMARK    3  A    between atoms: C_4  and  C_8 
REMARK    4  A    between atoms: C_8  and  C_12 
REMARK    5  A    between atoms: C_9  and  C_10 
REMARK    6  A    between atoms: C_9  and  C_11 
REMARK    7  A    between atoms: C_12  and  O_17 
REMARK    8  A    between atoms: C_14  and  O_15 
ROOT
HETATM    1  C   UNK N   1      28.860  16.578   6.551  0.00  0.00    -0.013 A 
HETATM    2  C   UNK N   1      29.252  17.522   7.489  0.00  0.00     0.075 A 
HETATM    3  C   UNK N   1      30.645  17.349   7.625  0.00  0.00     0.071 A 
HETATM    4  C   UNK N   1      27.481  16.337   6.031  0.00  0.00     0.052 C 
HETATM    5  O   UNK N   1      31.031  16.365   6.834  0.00  0.00    -0.318 OA
HETATM    6  C   UNK N   1      29.994  15.889   6.184  0.00  0.00     0.060 A 
ENDROOT
BRANCH   3   7
HETATM    7  C   UNK N   1      31.671  18.075   8.469  0.00  0.00     0.076 C 
BRANCH   7   8
HETATM    8  C   UNK N   1      33.053  17.452   8.534  0.00  0.00     0.116 C 
BRANCH   8   9
HETATM    9  C   UNK N   1      34.095  18.198   7.761  0.00  0.00     0.139 C 
HETATM   10  O   UNK N   1      34.213  17.989   6.565  0.00  0.00    -0.650 OA
BRANCH   9  11
HETATM   11  O   UNK N   1      34.906  19.088   8.366  0.00  0.00    -0.776 OA
HETATM   12  H   UNK N   1      34.555  19.861   8.764  0.00  0.00     0.167 HD
ENDBRANCH   9  11
ENDBRANCH   8   9
ENDBRANCH   7   8
ENDBRANCH   3   7
BRANCH   2  13
HETATM   13  C   UNK N   1      28.298  18.460   8.153  0.00  0.00     0.179 C 
HETATM   14  O   UNK N   1      28.060  19.560   7.688  0.00  0.00    -0.646 OA
BRANCH  13  15
HETATM   15  O   UNK N   1      27.704  18.110   9.308  0.00  0.00    -0.773 OA
HETATM   16  H   UNK N   1      26.925  17.591   9.299  0.00  0.00     0.167 HD
ENDBRANCH  13  15
ENDBRANCH   2  13
BRANCH   6  17
HETATM   17  C   UNK N   1      30.083  14.779   5.181  0.00  0.00     0.065 C 
BRANCH  17  18
HETATM   18  C   UNK N   1      31.509  14.567   4.698  0.00  0.00     0.002 C 
HETATM   19  C   UNK N   1      32.070  13.300   5.314  0.00  0.00     0.005 C 
ENDBRANCH  17  18
ENDBRANCH   6  17
TORSDOF 8
ENDMDL
MODEL 7
REMARK VINA RESULT:      -5.3     11.940     14.531
REMARK  8 active torsions:
REMARK  status: ('A' for Active; 'I' for Inactive)
REMARK    1  A    between atoms: C_2  and  C_14 
REMARK    2  A    between atoms: C_3  and  C_4 
REMARK    3  A    between atoms: C_4  and  C_8 
REMARK    4  A    between atoms: C_8  and  C_12 
REMARK    5  A    between atoms: C_9  and  C_10 
REMARK    6  A    between atoms: C_9  and  C_11 
REMARK    7  A    between atoms: C_12  and  O_17 
REMARK    8  A    between atoms: C_14  and  O_15 
ROOT
HETATM    1  C   UNK N   1      26.693  26.709  -5.239  0.00  0.00    -0.013 A 
HETATM    2  C   UNK N   1      27.259  25.607  -4.616  0.00  0.00     0.075 A 
HETATM    3  C   UNK N   1      28.596  25.976  -4.360  0.00  0.00     0.071 A 
HETATM    4  C   UNK N   1      25.287  26.854  -5.717  0.00  0.00     0.052 C 
HETATM    5  O   UNK N   1      28.796  27.199  -4.815  0.00  0.00    -0.318 OA
HETATM    6  C   UNK N   1      27.684  27.659  -5.342  0.00  0.00     0.060 A 
ENDROOT
BRANCH   3   7
HETATM    7  C   UNK N   1      29.733  25.236  -3.686  0.00  0.00     0.076 C 
BRANCH   7   8
HETATM    8  C   UNK N   1      29.608  23.725  -3.620  0.00  0.00     0.116 C 
BRANCH   8   9
HETATM    9  C   UNK N   1      29.557  23.178  -2.228  0.00  0.00     0.139 C 
HETATM   10  O   UNK N   1      30.598  22.886  -1.664  0.00  0.00    -0.650 OA
BRANCH   9  11
HETATM   11  O   UNK N   1      28.382  22.998  -1.594  0.00  0.00    -0.776 OA
HETATM   12  H   UNK N   1      28.089  22.138  -1.362  0.00  0.00     0.167 HD
ENDBRANCH   9  11
ENDBRANCH   8   9
ENDBRANCH   7   8
ENDBRANCH   3   7
BRANCH   2  13
HETATM   13  C   UNK N   1      26.507  24.346  -4.341  0.00  0.00     0.179 C 
HETATM   14  O   UNK N   1      26.104  23.636  -5.244  0.00  0.00    -0.646 OA
BRANCH  13  15
HETATM   15  O   UNK N   1      26.232  23.990  -3.073  0.00  0.00    -0.773 OA
HETATM   16  H   UNK N   1      26.899  24.032  -2.416  0.00  0.00     0.167 HD
ENDBRANCH  13  15
ENDBRANCH   2  13
BRANCH   6  17
HETATM   17  C   UNK N   1      27.553  29.032  -5.930  0.00  0.00     0.065 C 
BRANCH  17  18
HETATM   18  C   UNK N   1      27.909  30.114  -4.923  0.00  0.00     0.002 C 
HETATM   19  C   UNK N   1      26.678  30.484  -4.119  0.00  0.00     0.005 C 
ENDBRANCH  17  18
ENDBRANCH   6  17
TORSDOF 8
ENDMDL
MODEL 8
REMARK VINA RESULT:      -5.2      2.737      5.952
REMARK  8 active torsions:
REMARK  status: ('A' for Active; 'I' for Inactive)
REMARK    1  A    between atoms: C_2  and  C_14 
REMARK    2  A    between atoms: C_3  and  C_4 
REMARK    3  A    between atoms: C_4  and  C_8 
REMARK    4  A    between atoms: C_8  and  C_12 
REMARK    5  A    between atoms: C_9  and  C_10 
REMARK    6  A    between atoms: C_9  and  C_11 
REMARK    7  A    between atoms: C_12  and  O_17 
REMARK    8  A    between atoms: C_14  and  O_15 
ROOT
HETATM    1  C   UNK N   1      29.952  17.015   4.970  0.00  0.00    -0.013 A 
HETATM    2  C   UNK N   1      31.185  16.663   5.502  0.00  0.00     0.075 A 
HETATM    3  C   UNK N   1      31.140  17.091   6.846  0.00  0.00     0.071 A 
HETATM    4  C   UNK N   1      29.469  16.782   3.577  0.00  0.00     0.052 C 
HETATM    5  O   UNK N   1      29.972  17.663   7.072  0.00  0.00    -0.318 OA
HETATM    6  C   UNK N   1      29.247  17.632   5.978  0.00  0.00     0.060 A 
ENDROOT
BRANCH   3   7
HETATM    7  C   UNK N   1      32.150  16.987   7.968  0.00  0.00     0.076 C 
BRANCH   7   8
HETATM    8  C   UNK N   1      32.871  18.267   8.349  0.00  0.00     0.116 C 
BRANCH   8   9
HETATM    9  C   UNK N   1      34.268  18.360   7.822  0.00  0.00     0.139 C 
HETATM   10  O   UNK N   1      34.557  17.776   6.791  0.00  0.00    -0.650 OA
BRANCH   9  11
HETATM   11  O   UNK N   1      35.211  19.071   8.472  0.00  0.00    -0.776 OA
HETATM   12  H   UNK N   1      35.740  19.695   8.015  0.00  0.00     0.167 HD
ENDBRANCH   9  11
ENDBRANCH   8   9
ENDBRANCH   7   8
ENDBRANCH   3   7
BRANCH   2  13
HETATM   13  C   UNK N   1      32.255  15.987   4.710  0.00  0.00     0.179 C 
HETATM   14  O   UNK N   1      32.217  14.792   4.479  0.00  0.00    -0.646 OA
BRANCH  13  15
HETATM   15  O   UNK N   1      33.308  16.694   4.262  0.00  0.00    -0.773 OA
HETATM   16  H   UNK N   1      33.211  17.602   4.053  0.00  0.00     0.167 HD
ENDBRANCH  13  15
ENDBRANCH   2  13
BRANCH   6  17
HETATM   17  C   UNK N   1      27.852  18.175   5.893  0.00  0.00     0.065 C 
BRANCH  17  18
HETATM   18  C   UNK N   1      27.826  19.575   5.301  0.00  0.00     0.002 C 
HETATM   19  C   UNK N   1      27.568  20.586   6.401  0.00  0.00     0.005 C 
ENDBRANCH  17  18
ENDBRANCH   6  17
TORSDOF 8
ENDMDL
MODEL 9
REMARK VINA RESULT:      -5.2      2.324      4.757
REMARK  8 active torsions:
REMARK  status: ('A' for Active; 'I' for Inactive)
REMARK    1  A    between atoms: C_2  and  C_14 
REMARK    2  A    between atoms: C_3  and  C_4 
REMARK    3  A    between atoms: C_4  and  C_8 
REMARK    4  A    between atoms: C_8  and  C_12 
REMARK    5  A    between atoms: C_9  and  C_10 
REMARK    6  A    between atoms: C_9  and  C_11 
REMARK    7  A    between atoms: C_12  and  O_17 
REMARK    8  A    between atoms: C_14  and  O_15 
ROOT
HETATM    1  C   UNK N   1      29.573  17.667   6.891  0.00  0.00    -0.013 A 
HETATM    2  C   UNK N   1      30.051  17.528   8.186  0.00  0.00     0.075 A 
HETATM    3  C   UNK N   1      31.362  17.026   8.041  0.00  0.00     0.071 A 
HETATM    4  C   UNK N   1      28.232  18.172   6.472  0.00  0.00     0.052 C 
HETATM    5  O   UNK N   1      31.619  16.871   6.755  0.00  0.00    -0.318 OA
HETATM    6  C   UNK N   1      30.577  17.244   6.049  0.00  0.00     0.060 A 
ENDROOT
BRANCH   3   7
HETATM    7  C   UNK N   1      32.425  16.680   9.062  0.00  0.00     0.076 C 
BRANCH   7   8
HETATM    8  C   UNK N   1      33.834  16.496   8.531  0.00  0.00     0.116 C 
BRANCH   8   9
HETATM    9  C   UNK N   1      34.475  17.760   8.051  0.00  0.00     0.139 C 
HETATM   10  O   UNK N   1      35.088  18.455   8.844  0.00  0.00    -0.650 OA
BRANCH   9  11
HETATM   11  O   UNK N   1      34.380  18.143   6.763  0.00  0.00    -0.776 OA
HETATM   12  H   UNK N   1      34.962  18.789   6.411  0.00  0.00     0.167 HD
ENDBRANCH   9  11
ENDBRANCH   8   9
ENDBRANCH   7   8
ENDBRANCH   3   7
BRANCH   2  13
HETATM   13  C   UNK N   1      29.244  17.862   9.397  0.00  0.00     0.179 C 
HETATM   14  O   UNK N   1      29.578  18.751  10.158  0.00  0.00    -0.646 OA
BRANCH  13  15
HETATM   15  O   UNK N   1      28.138  17.153   9.684  0.00  0.00    -0.773 OA
HETATM   16  H   UNK N   1      27.307  17.417   9.341  0.00  0.00     0.167 HD
ENDBRANCH  13  15
ENDBRANCH   2  13
BRANCH   6  17
HETATM   17  C   UNK N   1      30.540  17.222   4.551  0.00  0.00     0.065 C 
BRANCH  17  18
HETATM   18  C   UNK N   1      31.847  17.710   3.947  0.00  0.00     0.002 C 
HETATM   19  C   UNK N   1      32.531  16.564   3.226  0.00  0.00     0.005 C 
ENDBRANCH  17  18
ENDBRANCH   6  17
TORSDOF 8
ENDMDL
