MODEL 1
REMARK VINA RESULT:      -4.7      0.000      0.000
REMARK  8 active torsions:
REMARK  status: ('A' for Active; 'I' for Inactive)
REMARK    1  A    between atoms: S_2  and  O_4 
REMARK    2  A    between atoms: S_2  and  O_5 
REMARK    3  A    between atoms: O_5  and  C_6 
REMARK    4  A    between atoms: C_6  and  C_7 
REMARK    5  A    between atoms: C_7  and  C_8 
REMARK    6  A    between atoms: C_7  and  C_10 
REMARK    7  A    between atoms: C_10  and  C_11 
REMARK    8  A    between atoms: C_11  and  C_12 
ROOT
HETATM    1  C   UNK N   1      23.398  20.221   3.107  0.00  0.00     0.196 C 
ENDROOT
BRANCH   1   2
HETATM    2  O   UNK N   1      22.999  20.658   1.829  0.00  0.00    -0.263 OA
BRANCH   2   3
HETATM    3  S   UNK N   1      21.286  20.441   1.754  0.00  0.00     0.240 S 
HETATM    4  O   UNK N   1      20.521  21.709   1.342  0.00  0.00    -0.579 OA
HETATM    5  O   UNK N   1      21.774  20.680   0.315  0.00  0.00    -0.579 OA
BRANCH   3   6
HETATM    6  O   UNK N   1      21.725  21.736   2.797  0.00  0.00    -0.274 OA
HETATM    7  H   UNK N   1      22.233  22.273   3.427  0.00  0.00     0.234 HD
ENDBRANCH   3   6
ENDBRANCH   2   3
ENDBRANCH   1   2
BRANCH   1   8
HETATM    8  C   UNK N   1      24.802  19.615   3.106  0.00  0.00     0.010 C 
BRANCH   8   9
HETATM    9  C   UNK N   1      24.749  18.299   3.880  0.00  0.00     0.002 C 
HETATM   10  C   UNK N   1      23.579  18.255   4.849  0.00  0.00     0.005 C 
ENDBRANCH   8   9
BRANCH   8  11
HETATM   11  C   UNK N   1      25.844  20.571   3.696  0.00  0.00     0.007 C 
BRANCH  11  12
HETATM   12  C   UNK N   1      27.004  19.842   4.364  0.00  0.00     0.000 C 
BRANCH  12  13
HETATM   13  C   UNK N   1      27.621  20.714   5.442  0.00  0.00    -0.005 C 
HETATM   14  C   UNK N   1      26.638  20.902   6.583  0.00  0.00     0.005 C 
ENDBRANCH  12  13
ENDBRANCH  11  12
ENDBRANCH   8  11
ENDBRANCH   1   8
TORSDOF 8
ENDMDL
MODEL 2
REMARK VINA RESULT:      -4.7      9.660     10.787
REMARK  8 active torsions:
REMARK  status: ('A' for Active; 'I' for Inactive)
REMARK    1  A    between atoms: S_2  and  O_4 
REMARK    2  A    between atoms: S_2  and  O_5 
REMARK    3  A    between atoms: O_5  and  C_6 
REMARK    4  A    between atoms: C_6  and  C_7 
REMARK    5  A    between atoms: C_7  and  C_8 
REMARK    6  A    between atoms: C_7  and  C_10 
REMARK    7  A    between atoms: C_10  and  C_11 
REMARK    8  A    between atoms: C_11  and  C_12 
ROOT
HETATM    1  C   UNK N   1      28.907  24.296  -3.956  0.00  0.00     0.196 C 
ENDROOT
BRANCH   1   2
HETATM    2  O   UNK N   1      29.827  24.204  -2.892  0.00  0.00    -0.263 OA
BRANCH   2   3
HETATM    3  S   UNK N   1      30.300  22.544  -2.800  0.00  0.00     0.240 S 
HETATM    4  O   UNK N   1      31.694  22.334  -2.188  0.00  0.00    -0.579 OA
HETATM    5  O   UNK N   1      30.116  23.043  -1.356  0.00  0.00    -0.579 OA
BRANCH   3   6
HETATM    6  O   UNK N   1      31.449  23.494  -3.658  0.00  0.00    -0.274 OA
HETATM    7  H   UNK N   1      32.124  24.166  -3.846  0.00  0.00     0.234 HD
ENDBRANCH   3   6
ENDBRANCH   2   3
ENDBRANCH   1   2
BRANCH   1   8
HETATM    8  C   UNK N   1      27.573  24.905  -3.525  0.00  0.00     0.010 C 
BRANCH   8   9
HETATM    9  C   UNK N   1      26.452  24.014  -4.056  0.00  0.00     0.002 C 
HETATM   10  C   UNK N   1      26.536  23.832  -5.563  0.00  0.00     0.005 C 
ENDBRANCH   8   9
BRANCH   8  11
HETATM   11  C   UNK N   1      27.417  26.351  -4.008  0.00  0.00     0.007 C 
BRANCH  11  12
HETATM   12  C   UNK N   1      26.264  27.081  -3.327  0.00  0.00     0.000 C 
BRANCH  12  13
HETATM   13  C   UNK N   1      25.566  27.996  -4.315  0.00  0.00    -0.005 C 
HETATM   14  C   UNK N   1      24.975  27.179  -5.449  0.00  0.00     0.005 C 
ENDBRANCH  12  13
ENDBRANCH  11  12
ENDBRANCH   8  11
ENDBRANCH   1   8
TORSDOF 8
ENDMDL
MODEL 3
REMARK VINA RESULT:      -4.6     16.801     18.147
REMARK  8 active torsions:
REMARK  status: ('A' for Active; 'I' for Inactive)
REMARK    1  A    between atoms: S_2  and  O_4 
REMARK    2  A    between atoms: S_2  and  O_5 
REMARK    3  A    between atoms: O_5  and  C_6 
REMARK    4  A    between atoms: C_6  and  C_7 
REMARK    5  A    between atoms: C_7  and  C_8 
REMARK    6  A    between atoms: C_7  and  C_10 
REMARK    7  A    between atoms: C_10  and  C_11 
REMARK    8  A    between atoms: C_11  and  C_12 
ROOT
HETATM    1  C   UNK N   1      35.832  13.536  15.124  0.00  0.00     0.196 C 
ENDROOT
BRANCH   1   2
HETATM    2  O   UNK N   1      35.020  13.621  13.976  0.00  0.00    -0.263 OA
BRANCH   2   3
HETATM    3  S   UNK N   1      36.085  13.914  12.646  0.00  0.00     0.240 S 
HETATM    4  O   UNK N   1      35.839  15.260  11.946  0.00  0.00    -0.579 OA
HETATM    5  O   UNK N   1      36.435  14.937  13.742  0.00  0.00    -0.579 OA
BRANCH   3   6
HETATM    6  O   UNK N   1      34.432  14.023  12.183  0.00  0.00    -0.274 OA
HETATM    7  H   UNK N   1      33.609  14.367  11.800  0.00  0.00     0.234 HD
ENDBRANCH   3   6
ENDBRANCH   2   3
ENDBRANCH   1   2
BRANCH   1   8
HETATM    8  C   UNK N   1      35.195  12.695  16.230  0.00  0.00     0.010 C 
BRANCH   8   9
HETATM    9  C   UNK N   1      35.180  13.531  17.509  0.00  0.00     0.002 C 
HETATM   10  C   UNK N   1      35.193  12.661  18.756  0.00  0.00     0.005 C 
ENDBRANCH   8   9
BRANCH   8  11
HETATM   11  C   UNK N   1      35.927  11.365  16.438  0.00  0.00     0.007 C 
BRANCH  11  12
HETATM   12  C   UNK N   1      35.337  10.229  15.610  0.00  0.00     0.000 C 
BRANCH  12  13
HETATM   13  C   UNK N   1      33.940  10.592  15.143  0.00  0.00    -0.005 C 
HETATM   14  C   UNK N   1      33.843  10.452  13.636  0.00  0.00     0.005 C 
ENDBRANCH  12  13
ENDBRANCH  11  12
ENDBRANCH   8  11
ENDBRANCH   1   8
TORSDOF 8
ENDMDL
MODEL 4
REMARK VINA RESULT:      -4.6     16.024     17.307
REMARK  8 active torsions:
REMARK  status: ('A' for Active; 'I' for Inactive)
REMARK    1  A    between atoms: S_2  and  O_4 
REMARK    2  A    between atoms: S_2  and  O_5 
REMARK    3  A    between atoms: O_5  and  C_6 
REMARK    4  A    between atoms: C_6  and  C_7 
REMARK    5  A    between atoms: C_7  and  C_8 
REMARK    6  A    between atoms: C_7  and  C_10 
REMARK    7  A    between atoms: C_10  and  C_11 
REMARK    8  A    between atoms: C_11  and  C_12 
ROOT
HETATM    1  C   UNK N   1      35.698  13.669  13.771  0.00  0.00     0.196 C 
ENDROOT
BRANCH   1   2
HETATM    2  O   UNK N   1      34.682  13.877  12.818  0.00  0.00    -0.263 OA
BRANCH   2   3
HETATM    3  S   UNK N   1      35.438  14.631  11.458  0.00  0.00     0.240 S 
HETATM    4  O   UNK N   1      35.098  16.123  11.313  0.00  0.00    -0.579 OA
HETATM    5  O   UNK N   1      36.063  15.246  12.722  0.00  0.00    -0.579 OA
BRANCH   3   6
HETATM    6  O   UNK N   1      33.728  14.827  11.435  0.00  0.00    -0.274 OA
HETATM    7  H   UNK N   1      32.783  14.631  11.531  0.00  0.00     0.234 HD
ENDBRANCH   3   6
ENDBRANCH   2   3
ENDBRANCH   1   2
BRANCH   1   8
HETATM    8  C   UNK N   1      35.685  12.249  14.338  0.00  0.00     0.010 C 
BRANCH   8   9
HETATM    9  C   UNK N   1      34.319  11.634  14.043  0.00  0.00     0.002 C 
HETATM   10  C   UNK N   1      33.979  10.512  15.011  0.00  0.00     0.005 C 
ENDBRANCH   8   9
BRANCH   8  11
HETATM   11  C   UNK N   1      35.999  12.226  15.839  0.00  0.00     0.007 C 
BRANCH  11  12
HETATM   12  C   UNK N   1      35.572  13.503  16.553  0.00  0.00     0.000 C 
BRANCH  12  13
HETATM   13  C   UNK N   1      35.117  13.187  17.965  0.00  0.00    -0.005 C 
HETATM   14  C   UNK N   1      35.317  11.712  18.257  0.00  0.00     0.005 C 
ENDBRANCH  12  13
ENDBRANCH  11  12
ENDBRANCH   8  11
ENDBRANCH   1   8
TORSDOF 8
ENDMDL
MODEL 5
REMARK VINA RESULT:      -4.6     11.026     12.072
REMARK  8 active torsions:
REMARK  status: ('A' for Active; 'I' for Inactive)
REMARK    1  A    between atoms: S_2  and  O_4 
REMARK    2  A    between atoms: S_2  and  O_5 
REMARK    3  A    between atoms: O_5  and  C_6 
REMARK    4  A    between atoms: C_6  and  C_7 
REMARK    5  A    between atoms: C_7  and  C_8 
REMARK    6  A    between atoms: C_7  and  C_10 
REMARK    7  A    between atoms: C_10  and  C_11 
REMARK    8  A    between atoms: C_11  and  C_12 
ROOT
HETATM    1  C   UNK N   1      26.036  25.213  -8.094  0.00  0.00     0.196 C 
ENDROOT
BRANCH   1   2
HETATM    2  O   UNK N   1      25.498  24.239  -7.230  0.00  0.00    -0.263 OA
BRANCH   2   3
HETATM    3  S   UNK N   1      25.481  22.757  -8.119  0.00  0.00     0.240 S 
HETATM    4  O   UNK N   1      24.118  22.045  -8.102  0.00  0.00    -0.579 OA
HETATM    5  O   UNK N   1      24.571  23.745  -8.870  0.00  0.00    -0.579 OA
BRANCH   3   6
HETATM    6  O   UNK N   1      24.971  22.537  -6.490  0.00  0.00    -0.274 OA
HETATM    7  H   UNK N   1      24.393  22.408  -5.721  0.00  0.00     0.234 HD
ENDBRANCH   3   6
ENDBRANCH   2   3
ENDBRANCH   1   2
BRANCH   1   8
HETATM    8  C   UNK N   1      26.213  26.569  -7.411  0.00  0.00     0.010 C 
BRANCH   8   9
HETATM    9  C   UNK N   1      27.567  27.138  -7.831  0.00  0.00     0.002 C 
HETATM   10  C   UNK N   1      27.908  28.412  -7.075  0.00  0.00     0.005 C 
ENDBRANCH   8   9
BRANCH   8  11
HETATM   11  C   UNK N   1      26.098  26.465  -5.885  0.00  0.00     0.007 C 
BRANCH  11  12
HETATM   12  C   UNK N   1      24.980  27.331  -5.317  0.00  0.00     0.000 C 
BRANCH  12  13
HETATM   13  C   UNK N   1      25.481  28.113  -4.116  0.00  0.00    -0.005 C 
HETATM   14  C   UNK N   1      26.236  27.192  -3.176  0.00  0.00     0.005 C 
ENDBRANCH  12  13
ENDBRANCH  11  12
ENDBRANCH   8  11
ENDBRANCH   1   8
TORSDOF 8
ENDMDL
MODEL 6
REMARK VINA RESULT:      -4.5     17.385     18.819
REMARK  8 active torsions:
REMARK  status: ('A' for Active; 'I' for Inactive)
REMARK    1  A    between atoms: S_2  and  O_4 
REMARK    2  A    between atoms: S_2  and  O_5 
REMARK    3  A    between atoms: O_5  and  C_6 
REMARK    4  A    between atoms: C_6  and  C_7 
REMARK    5  A    between atoms: C_7  and  C_8 
REMARK    6  A    between atoms: C_7  and  C_10 
REMARK    7  A    between atoms: C_10  and  C_11 
REMARK    8  A    between atoms: C_11  and  C_12 
ROOT
HETATM    1  C   UNK N   1      35.826  13.322  15.294  0.00  0.00     0.196 C 
ENDROOT
BRANCH   1   2
HETATM    2  O   UNK N   1      34.993  13.383  14.159  0.00  0.00    -0.263 OA
BRANCH   2   3
HETATM    3  S   UNK N   1      36.025  13.726  12.816  0.00  0.00     0.240 S 
HETATM    4  O   UNK N   1      35.778  15.107  12.187  0.00  0.00    -0.579 OA
HETATM    5  O   UNK N   1      36.419  14.691  13.948  0.00  0.00    -0.579 OA
BRANCH   3   6
HETATM    6  O   UNK N   1      34.361  13.876  12.404  0.00  0.00    -0.274 OA
HETATM    7  H   UNK N   1      33.478  14.261  12.289  0.00  0.00     0.234 HD
ENDBRANCH   3   6
ENDBRANCH   2   3
ENDBRANCH   1   2
BRANCH   1   8
HETATM    8  C   UNK N   1      35.124  12.705  16.503  0.00  0.00     0.010 C 
BRANCH   8   9
HETATM    9  C   UNK N   1      35.177  13.716  17.648  0.00  0.00     0.002 C 
HETATM   10  C   UNK N   1      35.174  13.036  19.007  0.00  0.00     0.005 C 
ENDBRANCH   8   9
BRANCH   8  11
HETATM   11  C   UNK N   1      35.745  11.364  16.910  0.00  0.00     0.007 C 
BRANCH  11  12
HETATM   12  C   UNK N   1      34.818  10.181  16.656  0.00  0.00     0.000 C 
BRANCH  12  13
HETATM   13  C   UNK N   1      34.557   9.433  17.949  0.00  0.00    -0.005 C 
HETATM   14  C   UNK N   1      35.823   9.382  18.784  0.00  0.00     0.005 C 
ENDBRANCH  12  13
ENDBRANCH  11  12
ENDBRANCH   8  11
ENDBRANCH   1   8
TORSDOF 8
ENDMDL
MODEL 7
REMARK VINA RESULT:      -4.5     11.447     12.567
REMARK  8 active torsions:
REMARK  status: ('A' for Active; 'I' for Inactive)
REMARK    1  A    between atoms: S_2  and  O_4 
REMARK    2  A    between atoms: S_2  and  O_5 
REMARK    3  A    between atoms: O_5  and  C_6 
REMARK    4  A    between atoms: C_6  and  C_7 
REMARK    5  A    between atoms: C_7  and  C_8 
REMARK    6  A    between atoms: C_7  and  C_10 
REMARK    7  A    between atoms: C_10  and  C_11 
REMARK    8  A    between atoms: C_11  and  C_12 
ROOT
HETATM    1  C   UNK N   1      33.377  16.386   8.820  0.00  0.00     0.196 C 
ENDROOT
BRANCH   1   2
HETATM    2  O   UNK N   1      34.783  16.436   8.886  0.00  0.00    -0.263 OA
BRANCH   2   3
HETATM    3  S   UNK N   1      35.199  16.230  10.552  0.00  0.00     0.240 S 
HETATM    4  O   UNK N   1      36.713  16.245  10.815  0.00  0.00    -0.579 OA
HETATM    5  O   UNK N   1      35.598  17.663  10.160  0.00  0.00    -0.579 OA
BRANCH   3   6
HETATM    6  O   UNK N   1      35.964  15.061   9.547  0.00  0.00    -0.274 OA
HETATM    7  H   UNK N   1      36.655  14.585   9.060  0.00  0.00     0.234 HD
ENDBRANCH   3   6
ENDBRANCH   2   3
ENDBRANCH   1   2
BRANCH   1   8
HETATM    8  C   UNK N   1      32.783  17.581   8.075  0.00  0.00     0.010 C 
BRANCH   8   9
HETATM    9  C   UNK N   1      31.267  17.398   8.018  0.00  0.00     0.002 C 
HETATM   10  C   UNK N   1      30.542  18.378   8.926  0.00  0.00     0.005 C 
ENDBRANCH   8   9
BRANCH   8  11
HETATM   11  C   UNK N   1      33.382  17.742   6.673  0.00  0.00     0.007 C 
BRANCH  11  12
HETATM   12  C   UNK N   1      32.609  16.972   5.608  0.00  0.00     0.000 C 
BRANCH  12  13
HETATM   13  C   UNK N   1      32.768  17.643   4.256  0.00  0.00    -0.005 C 
HETATM   14  C   UNK N   1      32.857  16.595   3.164  0.00  0.00     0.005 C 
ENDBRANCH  12  13
ENDBRANCH  11  12
ENDBRANCH   8  11
ENDBRANCH   1   8
TORSDOF 8
ENDMDL
MODEL 8
REMARK VINA RESULT:      -4.5     10.609     11.637
REMARK  8 active torsions:
REMARK  status: ('A' for Active; 'I' for Inactive)
REMARK    1  A    between atoms: S_2  and  O_4 
REMARK    2  A    between atoms: S_2  and  O_5 
REMARK    3  A    between atoms: O_5  and  C_6 
REMARK    4  A    between atoms: C_6  and  C_7 
REMARK    5  A    between atoms: C_7  and  C_8 
REMARK    6  A    between atoms: C_7  and  C_10 
REMARK    7  A    between atoms: C_10  and  C_11 
REMARK    8  A    between atoms: C_11  and  C_12 
ROOT
HETATM    1  C   UNK N   1      26.221  24.388  -7.611  0.00  0.00     0.196 C 
ENDROOT
BRANCH   1   2
HETATM    2  O   UNK N   1      25.117  23.515  -7.560  0.00  0.00    -0.263 OA
BRANCH   2   3
HETATM    3  S   UNK N   1      25.685  21.979  -8.114  0.00  0.00     0.240 S 
HETATM    4  O   UNK N   1      25.201  21.616  -9.526  0.00  0.00    -0.579 OA
HETATM    5  O   UNK N   1      26.356  23.052  -8.989  0.00  0.00    -0.579 OA
BRANCH   3   6
HETATM    6  O   UNK N   1      23.969  22.091  -8.175  0.00  0.00    -0.274 OA
HETATM    7  H   UNK N   1      23.043  21.864  -8.354  0.00  0.00     0.234 HD
ENDBRANCH   3   6
ENDBRANCH   2   3
ENDBRANCH   1   2
BRANCH   1   8
HETATM    8  C   UNK N   1      26.346  25.247  -6.353  0.00  0.00     0.010 C 
BRANCH   8   9
HETATM    9  C   UNK N   1      25.578  24.554  -5.228  0.00  0.00     0.002 C 
HETATM   10  C   UNK N   1      26.469  24.251  -4.034  0.00  0.00     0.005 C 
ENDBRANCH   8   9
BRANCH   8  11
HETATM   11  C   UNK N   1      25.841  26.677  -6.578  0.00  0.00     0.007 C 
BRANCH  11  12
HETATM   12  C   UNK N   1      24.802  27.107  -5.550  0.00  0.00     0.000 C 
BRANCH  12  13
HETATM   13  C   UNK N   1      25.437  28.009  -4.508  0.00  0.00    -0.005 C 
HETATM   14  C   UNK N   1      26.680  28.666  -5.078  0.00  0.00     0.005 C 
ENDBRANCH  12  13
ENDBRANCH  11  12
ENDBRANCH   8  11
ENDBRANCH   1   8
TORSDOF 8
ENDMDL
MODEL 9
REMARK VINA RESULT:      -4.4      9.111     10.124
REMARK  8 active torsions:
REMARK  status: ('A' for Active; 'I' for Inactive)
REMARK    1  A    between atoms: S_2  and  O_4 
REMARK    2  A    between atoms: S_2  and  O_5 
REMARK    3  A    between atoms: O_5  and  C_6 
REMARK    4  A    between atoms: C_6  and  C_7 
REMARK    5  A    between atoms: C_7  and  C_8 
REMARK    6  A    between atoms: C_7  and  C_10 
REMARK    7  A    between atoms: C_10  and  C_11 
REMARK    8  A    between atoms: C_11  and  C_12 
ROOT
HETATM    1  C   UNK N   1      26.063  23.943  -5.805  0.00  0.00     0.196 C 
ENDROOT
BRANCH   1   2
HETATM    2  O   UNK N   1      25.020  23.035  -6.074  0.00  0.00    -0.263 OA
BRANCH   2   3
HETATM    3  S   UNK N   1      25.429  22.251  -7.560  0.00  0.00     0.240 S 
HETATM    4  O   UNK N   1      24.235  22.075  -8.512  0.00  0.00    -0.579 OA
HETATM    5  O   UNK N   1      25.050  23.703  -7.903  0.00  0.00    -0.579 OA
BRANCH   3   6
HETATM    6  O   UNK N   1      24.156  21.441  -6.734  0.00  0.00    -0.274 OA
HETATM    7  H   UNK N   1      23.641  20.733  -6.314  0.00  0.00     0.234 HD
ENDBRANCH   3   6
ENDBRANCH   2   3
ENDBRANCH   1   2
BRANCH   1   8
HETATM    8  C   UNK N   1      25.670  24.992  -4.764  0.00  0.00     0.010 C 
BRANCH   8   9
HETATM    9  C   UNK N   1      25.203  26.243  -5.506  0.00  0.00     0.002 C 
HETATM   10  C   UNK N   1      25.910  27.495  -5.012  0.00  0.00     0.005 C 
ENDBRANCH   8   9
BRANCH   8  11
HETATM   11  C   UNK N   1      26.821  25.308  -3.802  0.00  0.00     0.007 C 
BRANCH  11  12
HETATM   12  C   UNK N   1      27.285  24.088  -3.015  0.00  0.00     0.000 C 
BRANCH  12  13
HETATM   13  C   UNK N   1      28.764  23.843  -3.252  0.00  0.00    -0.005 C 
HETATM   14  C   UNK N   1      29.334  22.989  -2.134  0.00  0.00     0.005 C 
ENDBRANCH  12  13
ENDBRANCH  11  12
ENDBRANCH   8  11
ENDBRANCH   1   8
TORSDOF 8
ENDMDL
