MODEL 1
REMARK VINA RESULT:      -7.7      0.000      0.000
REMARK  5 active torsions:
REMARK  status: ('A' for Active; 'I' for Inactive)
REMARK    1  A    between atoms: O_2  and  C_3 
REMARK    2  A    between atoms: C_7  and  C_9 
REMARK    3  A    between atoms: C_13  and  C_14 
REMARK    4  A    between atoms: C_14  and  C_15 
REMARK    5  A    between atoms: C_16  and  C_15 
REMARK       I    between atoms: C_23  and  N_26 
ROOT
HETATM    1  C   UNK N   1      34.037  14.450  10.024  0.00  0.00     0.041 C 
ENDROOT
BRANCH   1   2
HETATM    2  C   UNK N   1      33.758  15.730   9.329  0.00  0.00    -0.057 A 
HETATM    3  C   UNK N   1      34.795  16.622   9.041  0.00  0.00     0.007 A 
HETATM    4  C   UNK N   1      34.504  17.857   8.448  0.00  0.00     0.001 A 
HETATM    5  C   UNK N   1      33.178  18.196   8.144  0.00  0.00     0.012 A 
HETATM    6  C   UNK N   1      32.140  17.291   8.422  0.00  0.00    -0.025 A 
HETATM    7  C   UNK N   1      32.446  16.068   9.022  0.00  0.00     0.019 A 
BRANCH   6   8
HETATM    8  C   UNK N   1      30.732  17.591   8.089  0.00  0.00    -0.023 A 
HETATM    9  C   UNK N   1      29.887  18.239   9.000  0.00  0.00     0.012 A 
HETATM   10  C   UNK N   1      28.562  18.519   8.650  0.00  0.00     0.004 A 
HETATM   11  C   UNK N   1      28.082  18.171   7.382  0.00  0.00     0.037 A 
HETATM   12  C   UNK N   1      28.926  17.532   6.458  0.00  0.00     0.069 A 
HETATM   13  C   UNK N   1      30.236  17.240   6.823  0.00  0.00     0.049 A 
BRANCH  12  14
HETATM   14  O   UNK N   1      28.506  17.197   5.215  0.00  0.00    -0.356 OA
HETATM   15  C   UNK N   1      28.017  18.110   4.311  0.00  0.00     0.210 C 
ENDBRANCH  12  14
ENDBRANCH   6   8
ENDBRANCH   1   2
BRANCH   1  16
HETATM   16  C   UNK N   1      34.707  14.659  11.382  0.00  0.00     0.036 C 
BRANCH  16  17
HETATM   17  C   UNK N   1      36.036  13.882  11.521  0.00  0.00     0.052 C 
HETATM   18  C   UNK N   1      36.839  14.000  10.239  0.00  0.00     0.039 C 
HETATM   19  C   UNK N   1      35.771  12.405  11.828  0.00  0.00     0.135 C 
HETATM   20  C   UNK N   1      35.105  12.336  13.171  0.00  0.00     0.240 C 
HETATM   21  O   UNK N   1      34.231  11.508  13.373  0.00  0.00    -0.272 OA
HETATM   22  N   UNK N   1      35.496  13.203  14.149  0.00  0.00    -0.156 N 
HETATM   23  C   UNK N   1      34.933  13.117  15.475  0.00  0.00     0.178 C 
HETATM   24  C   UNK N   1      36.489  14.195  13.851  0.00  0.00     0.676 C 
HETATM   25  N   UNK N   1      36.789  14.465  12.619  0.00  0.00    -0.217 N 
HETATM   26  N   UNK N   1      37.148  14.882  14.896  0.00  0.00    -0.234 N 
ATOM     27  HN  UNK N   1      37.565  15.095  12.417  1.00  0.00     0.178 HD
HETATM   28  H   UNK N   1      37.724  15.680  14.896  0.00  0.00     0.174 HD
HETATM   29  H   UNK N   1      37.004  14.491  15.787  0.00  0.00     0.174 HD
ENDBRANCH  16  17
ENDBRANCH   1  16
TORSDOF 5
ENDMDL
MODEL 2
REMARK VINA RESULT:      -7.6      2.620      4.597
REMARK  5 active torsions:
REMARK  status: ('A' for Active; 'I' for Inactive)
REMARK    1  A    between atoms: O_2  and  C_3 
REMARK    2  A    between atoms: C_7  and  C_9 
REMARK    3  A    between atoms: C_13  and  C_14 
REMARK    4  A    between atoms: C_14  and  C_15 
REMARK    5  A    between atoms: C_16  and  C_15 
REMARK       I    between atoms: C_23  and  N_26 
ROOT
HETATM    1  C   UNK N   1      31.445  16.086   6.925  0.00  0.00     0.041 C 
ENDROOT
BRANCH   1   2
HETATM    2  C   UNK N   1      30.454  16.991   7.556  0.00  0.00    -0.057 A 
HETATM    3  C   UNK N   1      30.404  17.131   8.946  0.00  0.00     0.007 A 
HETATM    4  C   UNK N   1      29.416  17.936   9.528  0.00  0.00     0.001 A 
HETATM    5  C   UNK N   1      28.483  18.599   8.719  0.00  0.00     0.012 A 
HETATM    6  C   UNK N   1      28.545  18.467   7.321  0.00  0.00    -0.025 A 
HETATM    7  C   UNK N   1      29.530  17.654   6.758  0.00  0.00     0.019 A 
BRANCH   6   8
HETATM    8  C   UNK N   1      27.605  19.173   6.428  0.00  0.00    -0.023 A 
HETATM    9  C   UNK N   1      27.328  20.539   6.588  0.00  0.00     0.012 A 
HETATM   10  C   UNK N   1      26.440  21.181   5.720  0.00  0.00     0.004 A 
HETATM   11  C   UNK N   1      25.841  20.468   4.675  0.00  0.00     0.037 A 
HETATM   12  C   UNK N   1      26.121  19.103   4.499  0.00  0.00     0.069 A 
HETATM   13  C   UNK N   1      26.990  18.468   5.381  0.00  0.00     0.049 A 
BRANCH  12  14
HETATM   14  O   UNK N   1      25.577  18.382   3.490  0.00  0.00    -0.356 OA
HETATM   15  C   UNK N   1      25.275  17.044   3.594  0.00  0.00     0.210 C 
ENDBRANCH  12  14
ENDBRANCH   6   8
ENDBRANCH   1   2
BRANCH   1  16
HETATM   16  C   UNK N   1      32.563  15.685   7.889  0.00  0.00     0.036 C 
BRANCH  16  17
HETATM   17  C   UNK N   1      33.908  16.374   7.567  0.00  0.00     0.052 C 
HETATM   18  C   UNK N   1      33.724  17.355   6.423  0.00  0.00     0.039 C 
HETATM   19  C   UNK N   1      34.972  15.340   7.192  0.00  0.00     0.135 C 
HETATM   20  C   UNK N   1      35.219  14.489   8.402  0.00  0.00     0.240 C 
HETATM   21  O   UNK N   1      35.436  13.294   8.270  0.00  0.00    -0.272 OA
HETATM   22  N   UNK N   1      35.202  15.071   9.636  0.00  0.00    -0.156 N 
HETATM   23  C   UNK N   1      35.511  14.299  10.816  0.00  0.00     0.178 C 
HETATM   24  C   UNK N   1      34.890  16.466   9.749  0.00  0.00     0.676 C 
HETATM   25  N   UNK N   1      34.344  17.092   8.753  0.00  0.00    -0.217 N 
HETATM   26  N   UNK N   1      35.177  17.168  10.942  0.00  0.00    -0.234 N 
ATOM     27  HN  UNK N   1      34.219  18.103   8.804  1.00  0.00     0.178 HD
HETATM   28  H   UNK N   1      34.905  18.059  11.261  0.00  0.00     0.174 HD
HETATM   29  H   UNK N   1      35.756  16.677  11.568  0.00  0.00     0.174 HD
ENDBRANCH  16  17
ENDBRANCH   1  16
TORSDOF 5
ENDMDL
MODEL 3
REMARK VINA RESULT:      -7.6     15.301     18.008
REMARK  5 active torsions:
REMARK  status: ('A' for Active; 'I' for Inactive)
REMARK    1  A    between atoms: O_2  and  C_3 
REMARK    2  A    between atoms: C_7  and  C_9 
REMARK    3  A    between atoms: C_13  and  C_14 
REMARK    4  A    between atoms: C_14  and  C_15 
REMARK    5  A    between atoms: C_16  and  C_15 
REMARK       I    between atoms: C_23  and  N_26 
ROOT
HETATM    1  C   UNK N   1      30.475  20.609  -6.327  0.00  0.00     0.041 C 
ENDROOT
BRANCH   1   2
HETATM    2  C   UNK N   1      29.183  21.028  -6.923  0.00  0.00    -0.057 A 
HETATM    3  C   UNK N   1      28.575  20.257  -7.917  0.00  0.00     0.007 A 
HETATM    4  C   UNK N   1      27.392  20.704  -8.517  0.00  0.00     0.001 A 
HETATM    5  C   UNK N   1      26.820  21.920  -8.121  0.00  0.00     0.012 A 
HETATM    6  C   UNK N   1      27.425  22.687  -7.112  0.00  0.00    -0.025 A 
HETATM    7  C   UNK N   1      28.609  22.232  -6.530  0.00  0.00     0.019 A 
BRANCH   6   8
HETATM    8  C   UNK N   1      26.840  23.958  -6.640  0.00  0.00    -0.023 A 
HETATM    9  C   UNK N   1      26.234  24.859  -7.526  0.00  0.00     0.012 A 
HETATM   10  C   UNK N   1      25.679  26.050  -7.047  0.00  0.00     0.004 A 
HETATM   11  C   UNK N   1      25.708  26.336  -5.677  0.00  0.00     0.037 A 
HETATM   12  C   UNK N   1      26.303  25.434  -4.779  0.00  0.00     0.069 A 
HETATM   13  C   UNK N   1      26.870  24.262  -5.269  0.00  0.00     0.049 A 
BRANCH  12  14
HETATM   14  O   UNK N   1      26.335  25.664  -3.445  0.00  0.00    -0.356 OA
HETATM   15  C   UNK N   1      26.311  26.925  -2.895  0.00  0.00     0.210 C 
ENDBRANCH  12  14
ENDBRANCH   6   8
ENDBRANCH   1   2
BRANCH   1  16
HETATM   16  C   UNK N   1      30.556  20.926  -4.833  0.00  0.00     0.036 C 
BRANCH  16  17
HETATM   17  C   UNK N   1      31.975  21.343  -4.385  0.00  0.00     0.052 C 
HETATM   18  C   UNK N   1      32.957  20.220  -4.669  0.00  0.00     0.039 C 
HETATM   19  C   UNK N   1      31.997  21.680  -2.892  0.00  0.00     0.135 C 
HETATM   20  C   UNK N   1      31.125  22.884  -2.689  0.00  0.00     0.240 C 
HETATM   21  O   UNK N   1      30.436  22.973  -1.684  0.00  0.00    -0.272 OA
HETATM   22  N   UNK N   1      31.122  23.866  -3.636  0.00  0.00    -0.156 N 
HETATM   23  C   UNK N   1      30.356  25.073  -3.439  0.00  0.00     0.178 C 
HETATM   24  C   UNK N   1      31.904  23.696  -4.825  0.00  0.00     0.676 C 
HETATM   25  N   UNK N   1      32.360  22.524  -5.141  0.00  0.00    -0.217 N 
HETATM   26  N   UNK N   1      32.186  24.802  -5.660  0.00  0.00    -0.234 N 
ATOM     27  HN  UNK N   1      32.999  22.429  -5.931  1.00  0.00     0.178 HD
HETATM   28  H   UNK N   1      32.558  24.859  -6.569  0.00  0.00     0.174 HD
HETATM   29  H   UNK N   1      31.970  25.673  -5.258  0.00  0.00     0.174 HD
ENDBRANCH  16  17
ENDBRANCH   1  16
TORSDOF 5
ENDMDL
MODEL 4
REMARK VINA RESULT:      -7.5      6.047      8.499
REMARK  5 active torsions:
REMARK  status: ('A' for Active; 'I' for Inactive)
REMARK    1  A    between atoms: O_2  and  C_3 
REMARK    2  A    between atoms: C_7  and  C_9 
REMARK    3  A    between atoms: C_13  and  C_14 
REMARK    4  A    between atoms: C_14  and  C_15 
REMARK    5  A    between atoms: C_16  and  C_15 
REMARK       I    between atoms: C_23  and  N_26 
ROOT
HETATM    1  C   UNK N   1      30.852  17.868   9.046  0.00  0.00     0.041 C 
ENDROOT
BRANCH   1   2
HETATM    2  C   UNK N   1      31.982  17.602   8.123  0.00  0.00    -0.057 A 
HETATM    3  C   UNK N   1      33.219  18.224   8.315  0.00  0.00     0.007 A 
HETATM    4  C   UNK N   1      34.252  18.015   7.394  0.00  0.00     0.001 A 
HETATM    5  C   UNK N   1      34.048  17.184   6.285  0.00  0.00     0.012 A 
HETATM    6  C   UNK N   1      32.808  16.548   6.102  0.00  0.00    -0.025 A 
HETATM    7  C   UNK N   1      31.785  16.774   7.024  0.00  0.00     0.019 A 
BRANCH   6   8
HETATM    8  C   UNK N   1      32.557  15.638   4.966  0.00  0.00    -0.023 A 
HETATM    9  C   UNK N   1      31.394  14.859   4.894  0.00  0.00     0.012 A 
HETATM   10  C   UNK N   1      31.181  14.014   3.801  0.00  0.00     0.004 A 
HETATM   11  C   UNK N   1      32.119  13.959   2.763  0.00  0.00     0.037 A 
HETATM   12  C   UNK N   1      33.283  14.744   2.821  0.00  0.00     0.069 A 
HETATM   13  C   UNK N   1      33.495  15.566   3.923  0.00  0.00     0.049 A 
BRANCH  12  14
HETATM   14  O   UNK N   1      34.206  14.734   1.830  0.00  0.00    -0.356 OA
HETATM   15  C   UNK N   1      35.021  13.658   1.567  0.00  0.00     0.210 C 
ENDBRANCH  12  14
ENDBRANCH   6   8
ENDBRANCH   1   2
BRANCH   1  16
HETATM   16  C   UNK N   1      29.806  18.798   8.431  0.00  0.00     0.036 C 
BRANCH  16  17
HETATM   17  C   UNK N   1      28.405  18.152   8.346  0.00  0.00     0.052 C 
HETATM   18  C   UNK N   1      28.151  17.308   9.582  0.00  0.00     0.039 C 
HETATM   19  C   UNK N   1      28.284  17.280   7.094  0.00  0.00     0.135 C 
HETATM   20  C   UNK N   1      28.399  18.184   5.902  0.00  0.00     0.240 C 
HETATM   21  O   UNK N   1      28.986  17.800   4.902  0.00  0.00    -0.272 OA
HETATM   22  N   UNK N   1      27.836  19.426   5.957  0.00  0.00    -0.156 N 
HETATM   23  C   UNK N   1      27.859  20.294   4.804  0.00  0.00     0.178 C 
HETATM   24  C   UNK N   1      27.203  19.856   7.169  0.00  0.00     0.676 C 
HETATM   25  N   UNK N   1      27.418  19.217   8.277  0.00  0.00    -0.217 N 
HETATM   26  N   UNK N   1      26.340  20.975   7.167  0.00  0.00    -0.234 N 
ATOM     27  HN  UNK N   1      26.888  19.466   9.112  1.00  0.00     0.178 HD
HETATM   28  H   UNK N   1      25.948  21.504   7.899  0.00  0.00     0.174 HD
HETATM   29  H   UNK N   1      26.083  21.282   6.268  0.00  0.00     0.174 HD
ENDBRANCH  16  17
ENDBRANCH   1  16
TORSDOF 5
ENDMDL
MODEL 5
REMARK VINA RESULT:      -7.5      7.315     11.387
REMARK  5 active torsions:
REMARK  status: ('A' for Active; 'I' for Inactive)
REMARK    1  A    between atoms: O_2  and  C_3 
REMARK    2  A    between atoms: C_7  and  C_9 
REMARK    3  A    between atoms: C_13  and  C_14 
REMARK    4  A    between atoms: C_14  and  C_15 
REMARK    5  A    between atoms: C_16  and  C_15 
REMARK       I    between atoms: C_23  and  N_26 
ROOT
HETATM    1  C   UNK N   1      25.444  19.990   3.926  0.00  0.00     0.041 C 
ENDROOT
BRANCH   1   2
HETATM    2  C   UNK N   1      23.995  19.789   3.678  0.00  0.00    -0.057 A 
HETATM    3  C   UNK N   1      23.327  20.551   2.716  0.00  0.00     0.007 A 
HETATM    4  C   UNK N   1      21.946  20.397   2.544  0.00  0.00     0.001 A 
HETATM    5  C   UNK N   1      21.237  19.481   3.334  0.00  0.00     0.012 A 
HETATM    6  C   UNK N   1      21.915  18.706   4.291  0.00  0.00    -0.025 A 
HETATM    7  C   UNK N   1      23.290  18.879   4.455  0.00  0.00     0.019 A 
BRANCH   6   8
HETATM    8  C   UNK N   1      21.215  17.705   5.122  0.00  0.00    -0.023 A 
HETATM    9  C   UNK N   1      20.711  16.520   4.569  0.00  0.00     0.012 A 
HETATM   10  C   UNK N   1      20.062  15.587   5.384  0.00  0.00     0.004 A 
HETATM   11  C   UNK N   1      19.933  15.824   6.758  0.00  0.00     0.037 A 
HETATM   12  C   UNK N   1      20.446  17.004   7.322  0.00  0.00     0.069 A 
HETATM   13  C   UNK N   1      21.072  17.935   6.499  0.00  0.00     0.049 A 
BRANCH  12  14
HETATM   14  O   UNK N   1      20.359  17.263   8.649  0.00  0.00    -0.356 OA
HETATM   15  C   UNK N   1      19.443  18.134   9.191  0.00  0.00     0.210 C 
ENDBRANCH  12  14
ENDBRANCH   6   8
ENDBRANCH   1   2
BRANCH   1  16
HETATM   16  C   UNK N   1      25.866  19.520   5.318  0.00  0.00     0.036 C 
BRANCH  16  17
HETATM   17  C   UNK N   1      27.084  20.295   5.870  0.00  0.00     0.052 C 
HETATM   18  C   UNK N   1      26.821  21.789   5.797  0.00  0.00     0.039 C 
HETATM   19  C   UNK N   1      28.348  19.957   5.075  0.00  0.00     0.135 C 
HETATM   20  C   UNK N   1      28.644  18.503   5.297  0.00  0.00     0.240 C 
HETATM   21  O   UNK N   1      29.087  17.826   4.382  0.00  0.00    -0.272 OA
HETATM   22  N   UNK N   1      28.416  17.961   6.529  0.00  0.00    -0.156 N 
HETATM   23  C   UNK N   1      28.760  16.587   6.802  0.00  0.00     0.178 C 
HETATM   24  C   UNK N   1      27.844  18.779   7.559  0.00  0.00     0.676 C 
HETATM   25  N   UNK N   1      27.279  19.906   7.256  0.00  0.00    -0.217 N 
HETATM   26  N   UNK N   1      27.896  18.365   8.910  0.00  0.00    -0.234 N 
ATOM     27  HN  UNK N   1      26.966  20.528   8.002  1.00  0.00     0.178 HD
HETATM   28  H   UNK N   1      27.439  18.698   9.716  0.00  0.00     0.174 HD
HETATM   29  H   UNK N   1      28.500  17.606   9.075  0.00  0.00     0.174 HD
ENDBRANCH  16  17
ENDBRANCH   1  16
TORSDOF 5
ENDMDL
MODEL 6
REMARK VINA RESULT:      -7.4      5.503      7.039
REMARK  5 active torsions:
REMARK  status: ('A' for Active; 'I' for Inactive)
REMARK    1  A    between atoms: O_2  and  C_3 
REMARK    2  A    between atoms: C_7  and  C_9 
REMARK    3  A    between atoms: C_13  and  C_14 
REMARK    4  A    between atoms: C_14  and  C_15 
REMARK    5  A    between atoms: C_16  and  C_15 
REMARK       I    between atoms: C_23  and  N_26 
ROOT
HETATM    1  C   UNK N   1      31.610  16.344   7.700  0.00  0.00     0.041 C 
ENDROOT
BRANCH   1   2
HETATM    2  C   UNK N   1      30.436  17.221   7.927  0.00  0.00    -0.057 A 
HETATM    3  C   UNK N   1      30.087  17.622   9.219  0.00  0.00     0.007 A 
HETATM    4  C   UNK N   1      28.935  18.391   9.421  0.00  0.00     0.001 A 
HETATM    5  C   UNK N   1      28.136  18.760   8.330  0.00  0.00     0.012 A 
HETATM    6  C   UNK N   1      28.497  18.367   7.030  0.00  0.00    -0.025 A 
HETATM    7  C   UNK N   1      29.643  17.593   6.847  0.00  0.00     0.019 A 
BRANCH   6   8
HETATM    8  C   UNK N   1      27.704  18.760   5.848  0.00  0.00    -0.023 A 
HETATM    9  C   UNK N   1      27.655  20.091   5.408  0.00  0.00     0.012 A 
HETATM   10  C   UNK N   1      26.903  20.429   4.279  0.00  0.00     0.004 A 
HETATM   11  C   UNK N   1      26.214  19.438   3.571  0.00  0.00     0.037 A 
HETATM   12  C   UNK N   1      26.266  18.100   3.997  0.00  0.00     0.069 A 
HETATM   13  C   UNK N   1      27.001  17.777   5.134  0.00  0.00     0.049 A 
BRANCH  12  14
HETATM   14  O   UNK N   1      25.629  17.109   3.331  0.00  0.00    -0.356 OA
HETATM   15  C   UNK N   1      26.287  16.079   2.699  0.00  0.00     0.210 C 
ENDBRANCH  12  14
ENDBRANCH   6   8
ENDBRANCH   1   2
BRANCH   1  16
HETATM   16  C   UNK N   1      31.958  16.211   6.217  0.00  0.00     0.036 C 
BRANCH  16  17
HETATM   17  C   UNK N   1      33.318  16.853   5.860  0.00  0.00     0.052 C 
HETATM   18  C   UNK N   1      33.724  17.837   6.943  0.00  0.00     0.039 C 
HETATM   19  C   UNK N   1      33.241  17.574   4.512  0.00  0.00     0.135 C 
HETATM   20  C   UNK N   1      32.981  16.536   3.460  0.00  0.00     0.240 C 
HETATM   21  O   UNK N   1      32.250  16.797   2.517  0.00  0.00    -0.272 OA
HETATM   22  N   UNK N   1      33.575  15.314   3.576  0.00  0.00    -0.156 N 
HETATM   23  C   UNK N   1      33.411  14.317   2.545  0.00  0.00     0.178 C 
HETATM   24  C   UNK N   1      34.383  15.032   4.727  0.00  0.00     0.676 C 
HETATM   25  N   UNK N   1      34.310  15.794   5.774  0.00  0.00    -0.217 N 
HETATM   26  N   UNK N   1      35.263  13.926   4.729  0.00  0.00    -0.234 N 
ATOM     27  HN  UNK N   1      34.959  15.649   6.548  1.00  0.00     0.178 HD
HETATM   28  H   UNK N   1      35.767  13.490   5.454  0.00  0.00     0.174 HD
HETATM   29  H   UNK N   1      35.398  13.519   3.844  0.00  0.00     0.174 HD
ENDBRANCH  16  17
ENDBRANCH   1  16
TORSDOF 5
ENDMDL
MODEL 7
REMARK VINA RESULT:      -7.4      4.348      9.373
REMARK  5 active torsions:
REMARK  status: ('A' for Active; 'I' for Inactive)
REMARK    1  A    between atoms: O_2  and  C_3 
REMARK    2  A    between atoms: C_7  and  C_9 
REMARK    3  A    between atoms: C_13  and  C_14 
REMARK    4  A    between atoms: C_14  and  C_15 
REMARK    5  A    between atoms: C_16  and  C_15 
REMARK       I    between atoms: C_23  and  N_26 
ROOT
HETATM    1  C   UNK N   1      30.507  16.632   7.761  0.00  0.00     0.041 C 
ENDROOT
BRANCH   1   2
HETATM    2  C   UNK N   1      31.912  16.833   8.192  0.00  0.00    -0.057 A 
HETATM    3  C   UNK N   1      32.584  18.021   7.890  0.00  0.00     0.007 A 
HETATM    4  C   UNK N   1      33.932  18.165   8.242  0.00  0.00     0.001 A 
HETATM    5  C   UNK N   1      34.603  17.123   8.897  0.00  0.00     0.012 A 
HETATM    6  C   UNK N   1      33.920  15.936   9.211  0.00  0.00    -0.025 A 
HETATM    7  C   UNK N   1      32.580  15.804   8.845  0.00  0.00     0.019 A 
BRANCH   6   8
HETATM    8  C   UNK N   1      34.577  14.825   9.930  0.00  0.00    -0.023 A 
HETATM    9  C   UNK N   1      35.315  13.847   9.248  0.00  0.00     0.012 A 
HETATM   10  C   UNK N   1      35.934  12.813   9.957  0.00  0.00     0.004 A 
HETATM   11  C   UNK N   1      35.837  12.763  11.353  0.00  0.00     0.037 A 
HETATM   12  C   UNK N   1      35.109  13.745  12.046  0.00  0.00     0.069 A 
HETATM   13  C   UNK N   1      34.481  14.759  11.329  0.00  0.00     0.049 A 
BRANCH  12  14
HETATM   14  O   UNK N   1      35.007  13.744  13.396  0.00  0.00    -0.356 OA
HETATM   15  C   UNK N   1      36.095  13.703  14.237  0.00  0.00     0.210 C 
ENDBRANCH  12  14
ENDBRANCH   6   8
ENDBRANCH   1   2
BRANCH   1  16
HETATM   16  C   UNK N   1      29.784  17.953   7.501  0.00  0.00     0.036 C 
BRANCH  16  17
HETATM   17  C   UNK N   1      28.281  17.894   7.857  0.00  0.00     0.052 C 
HETATM   18  C   UNK N   1      28.105  17.359   9.267  0.00  0.00     0.039 C 
HETATM   19  C   UNK N   1      27.524  17.002   6.869  0.00  0.00     0.135 C 
HETATM   20  C   UNK N   1      27.607  17.651   5.520  0.00  0.00     0.240 C 
HETATM   21  O   UNK N   1      27.724  16.960   4.519  0.00  0.00    -0.272 OA
HETATM   22  N   UNK N   1      27.546  19.012   5.434  0.00  0.00    -0.156 N 
HETATM   23  C   UNK N   1      27.547  19.668   4.149  0.00  0.00     0.178 C 
HETATM   24  C   UNK N   1      27.464  19.786   6.638  0.00  0.00     0.676 C 
HETATM   25  N   UNK N   1      27.745  19.243   7.782  0.00  0.00    -0.217 N 
HETATM   26  N   UNK N   1      27.075  21.145   6.589  0.00  0.00    -0.234 N 
ATOM     27  HN  UNK N   1      27.586  19.770   8.641  1.00  0.00     0.178 HD
HETATM   28  H   UNK N   1      27.110  21.862   7.262  0.00  0.00     0.174 HD
HETATM   29  H   UNK N   1      26.701  21.424   5.722  0.00  0.00     0.174 HD
ENDBRANCH  16  17
ENDBRANCH   1  16
TORSDOF 5
ENDMDL
MODEL 8
REMARK VINA RESULT:      -7.4      8.339     13.207
REMARK  5 active torsions:
REMARK  status: ('A' for Active; 'I' for Inactive)
REMARK    1  A    between atoms: O_2  and  C_3 
REMARK    2  A    between atoms: C_7  and  C_9 
REMARK    3  A    between atoms: C_13  and  C_14 
REMARK    4  A    between atoms: C_14  and  C_15 
REMARK    5  A    between atoms: C_16  and  C_15 
REMARK       I    between atoms: C_23  and  N_26 
ROOT
HETATM    1  C   UNK N   1      24.012  17.454   3.996  0.00  0.00     0.041 C 
ENDROOT
BRANCH   1   2
HETATM    2  C   UNK N   1      25.214  18.320   4.082  0.00  0.00    -0.057 A 
HETATM    3  C   UNK N   1      25.230  19.575   3.468  0.00  0.00     0.007 A 
HETATM    4  C   UNK N   1      26.397  20.349   3.500  0.00  0.00     0.001 A 
HETATM    5  C   UNK N   1      27.543  19.866   4.146  0.00  0.00     0.012 A 
HETATM    6  C   UNK N   1      27.519  18.609   4.774  0.00  0.00    -0.025 A 
HETATM    7  C   UNK N   1      26.351  17.847   4.725  0.00  0.00     0.019 A 
BRANCH   6   8
HETATM    8  C   UNK N   1      28.692  18.075   5.495  0.00  0.00    -0.023 A 
HETATM    9  C   UNK N   1      29.851  17.676   4.814  0.00  0.00     0.012 A 
HETATM   10  C   UNK N   1      30.949  17.184   5.526  0.00  0.00     0.004 A 
HETATM   11  C   UNK N   1      30.902  17.107   6.923  0.00  0.00     0.037 A 
HETATM   12  C   UNK N   1      29.750  17.515   7.615  0.00  0.00     0.069 A 
HETATM   13  C   UNK N   1      28.655  17.985   6.896  0.00  0.00     0.049 A 
BRANCH  12  14
HETATM   14  O   UNK N   1      29.671  17.475   8.967  0.00  0.00    -0.356 OA
HETATM   15  C   UNK N   1      29.676  18.600   9.758  0.00  0.00     0.210 C 
ENDBRANCH  12  14
ENDBRANCH   6   8
ENDBRANCH   1   2
BRANCH   1  16
HETATM   16  C   UNK N   1      22.731  18.258   3.772  0.00  0.00     0.036 C 
BRANCH  16  17
HETATM   17  C   UNK N   1      21.495  17.614   4.439  0.00  0.00     0.052 C 
HETATM   18  C   UNK N   1      21.597  17.744   5.949  0.00  0.00     0.039 C 
HETATM   19  C   UNK N   1      21.380  16.136   4.057  0.00  0.00     0.135 C 
HETATM   20  C   UNK N   1      21.137  16.070   2.579  0.00  0.00     0.240 C 
HETATM   21  O   UNK N   1      21.643  15.175   1.919  0.00  0.00    -0.272 OA
HETATM   22  N   UNK N   1      20.345  17.015   1.995  0.00  0.00    -0.156 N 
HETATM   23  C   UNK N   1      20.026  16.941   0.590  0.00  0.00     0.178 C 
HETATM   24  C   UNK N   1      19.815  18.079   2.799  0.00  0.00     0.676 C 
HETATM   25  N   UNK N   1      20.311  18.316   3.973  0.00  0.00    -0.217 N 
HETATM   26  N   UNK N   1      18.748  18.873   2.319  0.00  0.00    -0.234 N 
ATOM     27  HN  UNK N   1      19.864  19.005   4.578  1.00  0.00     0.178 HD
HETATM   28  H   UNK N   1      18.364  19.720   2.642  0.00  0.00     0.174 HD
HETATM   29  H   UNK N   1      18.310  18.514   1.515  0.00  0.00     0.174 HD
ENDBRANCH  16  17
ENDBRANCH   1  16
TORSDOF 5
ENDMDL
MODEL 9
REMARK VINA RESULT:      -7.4      6.245     10.538
REMARK  5 active torsions:
REMARK  status: ('A' for Active; 'I' for Inactive)
REMARK    1  A    between atoms: O_2  and  C_3 
REMARK    2  A    between atoms: C_7  and  C_9 
REMARK    3  A    between atoms: C_13  and  C_14 
REMARK    4  A    between atoms: C_14  and  C_15 
REMARK    5  A    between atoms: C_16  and  C_15 
REMARK       I    between atoms: C_23  and  N_26 
ROOT
HETATM    1  C   UNK N   1      35.308  10.587  20.101  0.00  0.00     0.041 C 
ENDROOT
BRANCH   1   2
HETATM    2  C   UNK N   1      35.262  11.653  19.070  0.00  0.00    -0.057 A 
HETATM    3  C   UNK N   1      35.345  12.999  19.435  0.00  0.00     0.007 A 
HETATM    4  C   UNK N   1      35.229  13.993  18.456  0.00  0.00     0.001 A 
HETATM    5  C   UNK N   1      35.033  13.638  17.114  0.00  0.00     0.012 A 
HETATM    6  C   UNK N   1      34.963  12.283  16.748  0.00  0.00    -0.025 A 
HETATM    7  C   UNK N   1      35.072  11.305  17.738  0.00  0.00     0.019 A 
BRANCH   6   8
HETATM    8  C   UNK N   1      34.790  11.862  15.343  0.00  0.00    -0.023 A 
HETATM    9  C   UNK N   1      34.130  10.671  15.011  0.00  0.00     0.012 A 
HETATM   10  C   UNK N   1      33.973  10.305  13.671  0.00  0.00     0.004 A 
HETATM   11  C   UNK N   1      34.457  11.138  12.655  0.00  0.00     0.037 A 
HETATM   12  C   UNK N   1      35.110  12.339  12.977  0.00  0.00     0.069 A 
HETATM   13  C   UNK N   1      35.278  12.684  14.314  0.00  0.00     0.049 A 
BRANCH  12  14
HETATM   14  O   UNK N   1      35.575  13.182  12.024  0.00  0.00    -0.356 OA
HETATM   15  C   UNK N   1      34.898  14.307  11.614  0.00  0.00     0.210 C 
ENDBRANCH  12  14
ENDBRANCH   6   8
ENDBRANCH   1   2
BRANCH   1  16
HETATM   16  C   UNK N   1      34.169   9.579  19.946  0.00  0.00     0.036 C 
BRANCH  16  17
HETATM   17  C   UNK N   1      33.306   9.449  21.222  0.00  0.00     0.052 C 
HETATM   18  C   UNK N   1      33.379  10.734  22.027  0.00  0.00     0.039 C 
HETATM   19  C   UNK N   1      33.783   8.276  22.082  0.00  0.00     0.135 C 
HETATM   20  C   UNK N   1      33.556   7.019  21.295  0.00  0.00     0.240 C 
HETATM   21  O   UNK N   1      34.363   6.105  21.364  0.00  0.00    -0.272 OA
HETATM   22  N   UNK N   1      32.440   6.918  20.516  0.00  0.00    -0.156 N 
HETATM   23  C   UNK N   1      32.149   5.696  19.806  0.00  0.00     0.178 C 
HETATM   24  C   UNK N   1      31.547   8.035  20.423  0.00  0.00     0.676 C 
HETATM   25  N   UNK N   1      31.931   9.210  20.816  0.00  0.00    -0.217 N 
HETATM   26  N   UNK N   1      30.242   7.866  19.905  0.00  0.00    -0.234 N 
ATOM     27  HN  UNK N   1      31.259   9.976  20.841  1.00  0.00     0.178 HD
HETATM   28  H   UNK N   1      29.558   8.516  19.623  0.00  0.00     0.174 HD
HETATM   29  H   UNK N   1      29.967   6.926  19.809  0.00  0.00     0.174 HD
ENDBRANCH  16  17
ENDBRANCH   1  16
TORSDOF 5
ENDMDL
