MODEL 1
REMARK VINA RESULT:      -6.8      0.000      0.000
REMARK  11 active torsions:
REMARK  status: ('A' for Active; 'I' for Inactive)
REMARK    1  A    between atoms: C_3  and  C_7 
REMARK    2  A    between atoms: C_7  and  N_9 
REMARK    3  A    between atoms: C_7  and  C_10 
REMARK    4  A    between atoms: C_11  and  N_9 
REMARK    5  A    between atoms: C_11  and  C_12 
REMARK    6  A    between atoms: C_11  and  C_13 
REMARK       I    between atoms: C_12  and  N_16 
REMARK    7  A    between atoms: C_13  and  S_14 
REMARK    8  A    between atoms: S_14  and  N_15 
REMARK    9  A    between atoms: N_16  and  C_18 
REMARK   10  A    between atoms: C_18  and  C_32 
REMARK   11  A    between atoms: N_31  and  C_32 
ROOT
HETATM    1  C   UNK N   1      28.999  17.528   5.907  0.00  0.00     0.185 C 
ENDROOT
BRANCH   1   2
HETATM    2  N   UNK N   1      29.382  18.122   7.204  0.00  0.00    -0.393 N 
HETATM    3  H   UNK N   1      29.380  19.138   7.303  0.00  0.00     0.155 HD
BRANCH   2   4
HETATM    4  C   UNK N   1      29.771  17.283   8.374  0.00  0.00     0.219 C 
BRANCH   4   5
HETATM    5  C   UNK N   1      31.267  17.063   8.580  0.00  0.00    -0.027 A 
HETATM    6  C   UNK N   1      31.706  15.789   8.985  0.00  0.00     0.012 A 
HETATM    7  C   UNK N   1      33.058  15.521   9.189  0.00  0.00     0.043 A 
HETATM    8  C   UNK N   1      34.002  16.524   8.986  0.00  0.00     0.116 A 
HETATM    9  C   UNK N   1      33.589  17.795   8.568  0.00  0.00     0.043 A 
HETATM   10  F   UNK N   1      35.316  16.264   9.192  0.00  0.00    -0.206 F 
HETATM   11  C   UNK N   1      32.227  18.063   8.361  0.00  0.00     0.012 A 
ENDBRANCH   4   5
BRANCH   4  12
HETATM   12  C   UNK N   1      29.069  17.696   9.684  0.00  0.00     0.411 C 
HETATM   13  F   UNK N   1      27.782  18.137   9.430  0.00  0.00    -0.168 F 
HETATM   14  F   UNK N   1      28.978  16.635  10.565  0.00  0.00    -0.168 F 
HETATM   15  F   UNK N   1      29.753  18.747  10.259  0.00  0.00    -0.168 F 
ENDBRANCH   4  12
ENDBRANCH   2   4
ENDBRANCH   1   2
BRANCH   1  16
HETATM   16  C   UNK N   1      30.021  16.590   5.306  0.00  0.00     0.241 C 
HETATM   17  N   UNK N   1      31.304  16.995   5.103  0.00  0.00    -0.348 N 
HETATM   18  H   UNK N   1      31.544  17.922   5.329  0.00  0.00     0.163 HD
HETATM   19  O   UNK N   1      29.690  15.441   5.059  0.00  0.00    -0.271 OA
BRANCH  17  20
HETATM   20  C   UNK N   1      32.338  16.125   4.566  0.00  0.00     0.048 A 
HETATM   21  C   UNK N   1      33.124  15.238   5.523  0.00  0.00     0.035 A 
HETATM   22  C   UNK N   1      33.699  16.566   5.075  0.00  0.00     0.035 A 
BRANCH  20  23
HETATM   23  C   UNK N   1      32.360  15.925   3.054  0.00  0.00     0.142 C 
BRANCH  23  24
HETATM   24  N   UNK N   1      31.963  17.124   2.332  0.00  0.00    -0.428 N 
HETATM   25  H   UNK N   1      32.651  17.726   1.878  0.00  0.00     0.150 HD
HETATM   26  H   UNK N   1      30.975  17.370   2.279  0.00  0.00     0.150 HD
ENDBRANCH  23  24
ENDBRANCH  20  23
ENDBRANCH  17  20
ENDBRANCH   1  16
BRANCH   1  27
HETATM   27  C   UNK N   1      28.651  18.629   4.899  0.00  0.00     0.192 C 
BRANCH  27  28
HETATM   28  S   UNK N   1      27.346  19.849   5.311  0.00  0.00     0.214 S 
HETATM   29  O   UNK N   1      26.745  18.654   6.067  0.00  0.00    -0.211 OA
HETATM   30  O   UNK N   1      27.461  20.615   6.640  0.00  0.00    -0.211 OA
BRANCH  28  31
HETATM   31  N   UNK N   1      25.735  20.137   4.594  0.00  0.00    -0.207 NA
HETATM   32  C   UNK N   1      25.853  20.474   3.164  0.00  0.00     0.133 C 
HETATM   33  C   UNK N   1      24.467  20.527   2.496  0.00  0.00     0.183 C 
HETATM   34  O   UNK N   1      23.450  20.367   3.453  0.00  0.00    -0.389 OA
HETATM   35  C   UNK N   1      23.597  19.064   3.966  0.00  0.00     0.183 C 
HETATM   36  C   UNK N   1      24.930  18.921   4.730  0.00  0.00     0.133 C 
ENDBRANCH  28  31
ENDBRANCH  27  28
ENDBRANCH   1  27
TORSDOF 11
ENDMDL
MODEL 2
REMARK VINA RESULT:      -6.6      4.063      7.829
REMARK  11 active torsions:
REMARK  status: ('A' for Active; 'I' for Inactive)
REMARK    1  A    between atoms: C_3  and  C_7 
REMARK    2  A    between atoms: C_7  and  N_9 
REMARK    3  A    between atoms: C_7  and  C_10 
REMARK    4  A    between atoms: C_11  and  N_9 
REMARK    5  A    between atoms: C_11  and  C_12 
REMARK    6  A    between atoms: C_11  and  C_13 
REMARK       I    between atoms: C_12  and  N_16 
REMARK    7  A    between atoms: C_13  and  S_14 
REMARK    8  A    between atoms: S_14  and  N_15 
REMARK    9  A    between atoms: N_16  and  C_18 
REMARK   10  A    between atoms: C_18  and  C_32 
REMARK   11  A    between atoms: N_31  and  C_32 
ROOT
HETATM    1  C   UNK N   1      32.622  17.707   7.858  0.00  0.00     0.185 C 
ENDROOT
BRANCH   1   2
HETATM    2  N   UNK N   1      31.306  17.133   8.205  0.00  0.00    -0.393 N 
HETATM    3  H   UNK N   1      31.239  16.136   8.409  0.00  0.00     0.155 HD
BRANCH   2   4
HETATM    4  C   UNK N   1      30.071  17.967   8.267  0.00  0.00     0.219 C 
BRANCH   4   5
HETATM    5  C   UNK N   1      29.094  17.815   7.103  0.00  0.00    -0.027 A 
HETATM    6  C   UNK N   1      28.963  16.550   6.501  0.00  0.00     0.012 A 
HETATM    7  C   UNK N   1      28.088  16.343   5.437  0.00  0.00     0.043 A 
HETATM    8  C   UNK N   1      27.319  17.400   4.957  0.00  0.00     0.116 A 
HETATM    9  C   UNK N   1      27.422  18.663   5.551  0.00  0.00     0.043 A 
HETATM   10  F   UNK N   1      26.473  17.199   3.916  0.00  0.00    -0.206 F 
HETATM   11  C   UNK N   1      28.302  18.870   6.623  0.00  0.00     0.012 A 
ENDBRANCH   4   5
BRANCH   4  12
HETATM   12  C   UNK N   1      29.352  17.898   9.629  0.00  0.00     0.411 C 
HETATM   13  F   UNK N   1      27.982  17.996   9.463  0.00  0.00    -0.168 F 
HETATM   14  F   UNK N   1      29.606  16.703  10.275  0.00  0.00    -0.168 F 
HETATM   15  F   UNK N   1      29.744  18.966  10.410  0.00  0.00    -0.168 F 
ENDBRANCH   4  12
ENDBRANCH   2   4
ENDBRANCH   1   2
BRANCH   1  16
HETATM   16  C   UNK N   1      33.133  17.349   6.481  0.00  0.00     0.241 C 
HETATM   17  N   UNK N   1      32.472  16.449   5.704  0.00  0.00    -0.348 N 
HETATM   18  H   UNK N   1      31.668  16.015   6.071  0.00  0.00     0.163 HD
HETATM   19  O   UNK N   1      34.121  17.924   6.053  0.00  0.00    -0.271 OA
BRANCH  17  20
HETATM   20  C   UNK N   1      32.894  16.095   4.358  0.00  0.00     0.048 A 
HETATM   21  C   UNK N   1      32.563  17.040   3.211  0.00  0.00     0.035 A 
HETATM   22  C   UNK N   1      31.678  15.842   3.485  0.00  0.00     0.035 A 
BRANCH  20  23
HETATM   23  C   UNK N   1      33.906  14.962   4.224  0.00  0.00     0.142 C 
BRANCH  23  24
HETATM   24  N   UNK N   1      34.984  15.065   5.196  0.00  0.00    -0.428 N 
HETATM   25  H   UNK N   1      35.826  15.608   5.004  0.00  0.00     0.150 HD
HETATM   26  H   UNK N   1      34.896  14.584   6.091  0.00  0.00     0.150 HD
ENDBRANCH  23  24
ENDBRANCH  20  23
ENDBRANCH  17  20
ENDBRANCH   1  16
BRANCH   1  27
HETATM   27  C   UNK N   1      33.665  17.324   8.913  0.00  0.00     0.192 C 
BRANCH  27  28
HETATM   28  S   UNK N   1      34.336  15.618   8.941  0.00  0.00     0.214 S 
HETATM   29  O   UNK N   1      33.100  15.359   9.817  0.00  0.00    -0.211 OA
HETATM   30  O   UNK N   1      33.802  14.610   7.910  0.00  0.00    -0.211 OA
BRANCH  28  31
HETATM   31  N   UNK N   1      35.316  14.759  10.163  0.00  0.00    -0.207 NA
HETATM   32  C   UNK N   1      35.344  15.509  11.432  0.00  0.00     0.133 C 
HETATM   33  C   UNK N   1      36.016  14.684  12.544  0.00  0.00     0.183 C 
HETATM   34  O   UNK N   1      36.539  13.487  12.024  0.00  0.00    -0.389 OA
HETATM   35  C   UNK N   1      35.433  12.736  11.582  0.00  0.00     0.183 C 
HETATM   36  C   UNK N   1      34.726  13.441  10.405  0.00  0.00     0.133 C 
ENDBRANCH  28  31
ENDBRANCH  27  28
ENDBRANCH   1  27
TORSDOF 11
ENDMDL
MODEL 3
REMARK VINA RESULT:      -6.4      4.204      8.334
REMARK  11 active torsions:
REMARK  status: ('A' for Active; 'I' for Inactive)
REMARK    1  A    between atoms: C_3  and  C_7 
REMARK    2  A    between atoms: C_7  and  N_9 
REMARK    3  A    between atoms: C_7  and  C_10 
REMARK    4  A    between atoms: C_11  and  N_9 
REMARK    5  A    between atoms: C_11  and  C_12 
REMARK    6  A    between atoms: C_11  and  C_13 
REMARK       I    between atoms: C_12  and  N_16 
REMARK    7  A    between atoms: C_13  and  S_14 
REMARK    8  A    between atoms: S_14  and  N_15 
REMARK    9  A    between atoms: N_16  and  C_18 
REMARK   10  A    between atoms: C_18  and  C_32 
REMARK   11  A    between atoms: N_31  and  C_32 
ROOT
HETATM    1  C   UNK N   1      31.988  17.107   7.278  0.00  0.00     0.185 C 
ENDROOT
BRANCH   1   2
HETATM    2  N   UNK N   1      32.353  16.988   5.852  0.00  0.00    -0.393 N 
HETATM    3  H   UNK N   1      32.658  17.821   5.348  0.00  0.00     0.155 HD
BRANCH   2   4
HETATM    4  C   UNK N   1      32.287  15.687   5.125  0.00  0.00     0.219 C 
BRANCH   4   5
HETATM    5  C   UNK N   1      30.960  15.358   4.446  0.00  0.00    -0.027 A 
HETATM    6  C   UNK N   1      30.525  16.184   3.393  0.00  0.00     0.012 A 
HETATM    7  C   UNK N   1      29.324  15.938   2.730  0.00  0.00     0.043 A 
HETATM    8  C   UNK N   1      28.536  14.853   3.105  0.00  0.00     0.116 A 
HETATM    9  C   UNK N   1      28.957  14.009   4.140  0.00  0.00     0.043 A 
HETATM   10  F   UNK N   1      27.364  14.619   2.464  0.00  0.00    -0.206 F 
HETATM   11  C   UNK N   1      30.167  14.258   4.805  0.00  0.00     0.012 A 
ENDBRANCH   4   5
BRANCH   4  12
HETATM   12  C   UNK N   1      33.485  15.451   4.182  0.00  0.00     0.411 C 
HETATM   13  F   UNK N   1      33.584  16.473   3.254  0.00  0.00    -0.168 F 
HETATM   14  F   UNK N   1      34.677  15.407   4.879  0.00  0.00    -0.168 F 
HETATM   15  F   UNK N   1      33.290  14.281   3.478  0.00  0.00    -0.168 F 
ENDBRANCH   4  12
ENDBRANCH   2   4
ENDBRANCH   1   2
BRANCH   1  16
HETATM   16  C   UNK N   1      30.506  17.220   7.553  0.00  0.00     0.241 C 
HETATM   17  N   UNK N   1      29.650  17.657   6.590  0.00  0.00    -0.348 N 
HETATM   18  H   UNK N   1      30.022  17.927   5.720  0.00  0.00     0.163 HD
HETATM   19  O   UNK N   1      30.080  16.856   8.637  0.00  0.00    -0.271 OA
BRANCH  17  20
HETATM   20  C   UNK N   1      28.212  17.748   6.785  0.00  0.00     0.048 A 
HETATM   21  C   UNK N   1      27.346  16.541   6.451  0.00  0.00     0.035 A 
HETATM   22  C   UNK N   1      27.504  17.662   5.444  0.00  0.00     0.035 A 
BRANCH  20  23
HETATM   23  C   UNK N   1      27.695  18.931   7.598  0.00  0.00     0.142 C 
BRANCH  23  24
HETATM   24  N   UNK N   1      27.630  18.636   9.022  0.00  0.00    -0.428 N 
HETATM   25  H   UNK N   1      26.907  18.030   9.409  0.00  0.00     0.150 HD
HETATM   26  H   UNK N   1      28.324  19.045   9.647  0.00  0.00     0.150 HD
ENDBRANCH  23  24
ENDBRANCH  20  23
ENDBRANCH  17  20
ENDBRANCH   1  16
BRANCH   1  27
HETATM   27  C   UNK N   1      32.725  18.289   7.919  0.00  0.00     0.192 C 
BRANCH  27  28
HETATM   28  S   UNK N   1      34.435  18.057   8.538  0.00  0.00     0.214 S 
HETATM   29  O   UNK N   1      34.733  17.841   7.046  0.00  0.00    -0.211 OA
HETATM   30  O   UNK N   1      35.378  19.271   8.538  0.00  0.00    -0.211 OA
BRANCH  28  31
HETATM   31  N   UNK N   1      35.370  16.574   8.884  0.00  0.00    -0.207 NA
HETATM   32  C   UNK N   1      35.454  16.337  10.337  0.00  0.00     0.133 C 
HETATM   33  C   UNK N   1      36.083  14.964  10.634  0.00  0.00     0.183 C 
HETATM   34  O   UNK N   1      36.527  14.356   9.446  0.00  0.00    -0.389 OA
HETATM   35  C   UNK N   1      35.374  14.109   8.677  0.00  0.00     0.183 C 
HETATM   36  C   UNK N   1      34.702  15.433   8.255  0.00  0.00     0.133 C 
ENDBRANCH  28  31
ENDBRANCH  27  28
ENDBRANCH   1  27
TORSDOF 11
ENDMDL
MODEL 4
REMARK VINA RESULT:      -6.2     11.787     15.659
REMARK  11 active torsions:
REMARK  status: ('A' for Active; 'I' for Inactive)
REMARK    1  A    between atoms: C_3  and  C_7 
REMARK    2  A    between atoms: C_7  and  N_9 
REMARK    3  A    between atoms: C_7  and  C_10 
REMARK    4  A    between atoms: C_11  and  N_9 
REMARK    5  A    between atoms: C_11  and  C_12 
REMARK    6  A    between atoms: C_11  and  C_13 
REMARK       I    between atoms: C_12  and  N_16 
REMARK    7  A    between atoms: C_13  and  S_14 
REMARK    8  A    between atoms: S_14  and  N_15 
REMARK    9  A    between atoms: N_16  and  C_18 
REMARK   10  A    between atoms: C_18  and  C_32 
REMARK   11  A    between atoms: N_31  and  C_32 
ROOT
HETATM    1  C   UNK N   1      27.509  24.219  -4.152  0.00  0.00     0.185 C 
ENDROOT
BRANCH   1   2
HETATM    2  N   UNK N   1      28.398  23.730  -5.226  0.00  0.00    -0.393 N 
HETATM    3  H   UNK N   1      29.404  23.872  -5.138  0.00  0.00     0.155 HD
BRANCH   2   4
HETATM    4  C   UNK N   1      27.870  23.037  -6.436  0.00  0.00     0.219 C 
BRANCH   4   5
HETATM    5  C   UNK N   1      27.088  23.900  -7.423  0.00  0.00    -0.027 A 
HETATM    6  C   UNK N   1      27.650  25.123  -7.834  0.00  0.00     0.012 A 
HETATM    7  C   UNK N   1      26.989  25.957  -8.733  0.00  0.00     0.043 A 
HETATM    8  C   UNK N   1      25.751  25.580  -9.246  0.00  0.00     0.116 A 
HETATM    9  C   UNK N   1      25.180  24.360  -8.863  0.00  0.00     0.043 A 
HETATM   10  F   UNK N   1      25.106  26.396 -10.115  0.00  0.00    -0.206 F 
HETATM   11  C   UNK N   1      25.847  23.521  -7.958  0.00  0.00     0.012 A 
ENDBRANCH   4   5
BRANCH   4  12
HETATM   12  C   UNK N   1      28.922  22.164  -7.151  0.00  0.00     0.411 C 
HETATM   13  F   UNK N   1      30.150  22.801  -7.173  0.00  0.00    -0.168 F 
HETATM   14  F   UNK N   1      29.094  20.953  -6.509  0.00  0.00    -0.168 F 
HETATM   15  F   UNK N   1      28.541  21.970  -8.463  0.00  0.00    -0.168 F 
ENDBRANCH   4  12
ENDBRANCH   2   4
ENDBRANCH   1   2
BRANCH   1  16
HETATM   16  C   UNK N   1      27.229  25.704  -4.179  0.00  0.00     0.241 C 
HETATM   17  N   UNK N   1      28.179  26.585  -4.594  0.00  0.00    -0.348 N 
HETATM   18  H   UNK N   1      29.063  26.235  -4.848  0.00  0.00     0.163 HD
HETATM   19  O   UNK N   1      26.114  26.097  -3.877  0.00  0.00    -0.271 OA
BRANCH  17  20
HETATM   20  C   UNK N   1      27.954  28.019  -4.677  0.00  0.00     0.048 A 
HETATM   21  C   UNK N   1      27.268  28.585  -5.914  0.00  0.00     0.035 A 
HETATM   22  C   UNK N   1      28.779  28.606  -5.809  0.00  0.00     0.035 A 
BRANCH  20  23
HETATM   23  C   UNK N   1      28.135  28.826  -3.396  0.00  0.00     0.142 C 
BRANCH  23  24
HETATM   24  N   UNK N   1      26.993  28.708  -2.502  0.00  0.00    -0.428 N 
HETATM   25  H   UNK N   1      26.117  29.197  -2.688  0.00  0.00     0.150 HD
HETATM   26  H   UNK N   1      27.070  28.124  -1.670  0.00  0.00     0.150 HD
ENDBRANCH  23  24
ENDBRANCH  20  23
ENDBRANCH  17  20
ENDBRANCH   1  16
BRANCH   1  27
HETATM   27  C   UNK N   1      28.063  23.821  -2.780  0.00  0.00     0.192 C 
BRANCH  27  28
HETATM   28  S   UNK N   1      29.676  22.956  -2.675  0.00  0.00     0.214 S 
HETATM   29  O   UNK N   1      30.222  24.352  -3.014  0.00  0.00    -0.211 OA
HETATM   30  O   UNK N   1      30.437  22.996  -1.339  0.00  0.00    -0.211 OA
BRANCH  28  31
HETATM   31  N   UNK N   1      30.739  22.290  -3.947  0.00  0.00    -0.207 NA
HETATM   32  C   UNK N   1      32.064  22.936  -3.913  0.00  0.00     0.133 C 
HETATM   33  C   UNK N   1      33.043  22.232  -4.869  0.00  0.00     0.183 C 
HETATM   34  O   UNK N   1      32.380  21.242  -5.616  0.00  0.00    -0.389 OA
HETATM   35  C   UNK N   1      31.959  20.270  -4.690  0.00  0.00     0.183 C 
HETATM   36  C   UNK N   1      30.906  20.852  -3.723  0.00  0.00     0.133 C 
ENDBRANCH  28  31
ENDBRANCH  27  28
ENDBRANCH   1  27
TORSDOF 11
ENDMDL
MODEL 5
REMARK VINA RESULT:      -6.2      5.343      9.218
REMARK  11 active torsions:
REMARK  status: ('A' for Active; 'I' for Inactive)
REMARK    1  A    between atoms: C_3  and  C_7 
REMARK    2  A    between atoms: C_7  and  N_9 
REMARK    3  A    between atoms: C_7  and  C_10 
REMARK    4  A    between atoms: C_11  and  N_9 
REMARK    5  A    between atoms: C_11  and  C_12 
REMARK    6  A    between atoms: C_11  and  C_13 
REMARK       I    between atoms: C_12  and  N_16 
REMARK    7  A    between atoms: C_13  and  S_14 
REMARK    8  A    between atoms: S_14  and  N_15 
REMARK    9  A    between atoms: N_16  and  C_18 
REMARK   10  A    between atoms: C_18  and  C_32 
REMARK   11  A    between atoms: N_31  and  C_32 
ROOT
HETATM    1  C   UNK N   1      34.346  14.347   7.932  0.00  0.00     0.185 C 
ENDROOT
BRANCH   1   2
HETATM    2  N   UNK N   1      33.511  15.537   8.197  0.00  0.00    -0.393 N 
HETATM    3  H   UNK N   1      33.421  15.875   9.155  0.00  0.00     0.155 HD
BRANCH   2   4
HETATM    4  C   UNK N   1      32.794  16.259   7.106  0.00  0.00     0.219 C 
BRANCH   4   5
HETATM    5  C   UNK N   1      31.503  16.971   7.501  0.00  0.00    -0.027 A 
HETATM    6  C   UNK N   1      31.538  17.866   8.586  0.00  0.00     0.012 A 
HETATM    7  C   UNK N   1      30.396  18.549   8.997  0.00  0.00     0.043 A 
HETATM    8  C   UNK N   1      29.193  18.355   8.323  0.00  0.00     0.116 A 
HETATM    9  C   UNK N   1      29.139  17.481   7.231  0.00  0.00     0.043 A 
HETATM   10  F   UNK N   1      28.080  19.015   8.729  0.00  0.00    -0.206 F 
HETATM   11  C   UNK N   1      30.290  16.795   6.818  0.00  0.00     0.012 A 
ENDBRANCH   4   5
BRANCH   4  12
HETATM   12  C   UNK N   1      33.714  17.168   6.266  0.00  0.00     0.411 C 
HETATM   13  F   UNK N   1      32.972  17.918   5.370  0.00  0.00    -0.168 F 
HETATM   14  F   UNK N   1      34.417  18.050   7.063  0.00  0.00    -0.168 F 
HETATM   15  F   UNK N   1      34.578  16.388   5.525  0.00  0.00    -0.168 F 
ENDBRANCH   4  12
ENDBRANCH   2   4
ENDBRANCH   1   2
BRANCH   1  16
HETATM   16  C   UNK N   1      33.674  13.021   8.200  0.00  0.00     0.241 C 
HETATM   17  N   UNK N   1      34.407  11.887   8.363  0.00  0.00    -0.348 N 
HETATM   18  H   UNK N   1      35.386  11.946   8.275  0.00  0.00     0.163 HD
HETATM   19  O   UNK N   1      32.459  12.993   8.325  0.00  0.00    -0.271 OA
BRANCH  17  20
HETATM   20  C   UNK N   1      33.818  10.592   8.661  0.00  0.00     0.048 A 
HETATM   21  C   UNK N   1      33.374  10.297  10.088  0.00  0.00     0.035 A 
HETATM   22  C   UNK N   1      34.724   9.816   9.600  0.00  0.00     0.035 A 
BRANCH  20  23
HETATM   23  C   UNK N   1      33.398   9.731   7.474  0.00  0.00     0.142 C 
BRANCH  23  24
HETATM   24  N   UNK N   1      32.161  10.195   6.865  0.00  0.00    -0.428 N 
HETATM   25  H   UNK N   1      31.509  10.796   7.371  0.00  0.00     0.150 HD
HETATM   26  H   UNK N   1      31.939   9.914   5.911  0.00  0.00     0.150 HD
ENDBRANCH  23  24
ENDBRANCH  20  23
ENDBRANCH  17  20
ENDBRANCH   1  16
BRANCH   1  27
HETATM   27  C   UNK N   1      35.658  14.432   8.720  0.00  0.00     0.192 C 
BRANCH  27  28
HETATM   28  S   UNK N   1      35.644  15.111  10.424  0.00  0.00     0.214 S 
HETATM   29  O   UNK N   1      36.986  14.367  10.517  0.00  0.00    -0.211 OA
HETATM   30  O   UNK N   1      36.376  16.438  10.682  0.00  0.00    -0.211 OA
BRANCH  28  31
HETATM   31  N   UNK N   1      35.184  14.369  11.982  0.00  0.00    -0.207 NA
HETATM   32  C   UNK N   1      35.044  12.908  11.844  0.00  0.00     0.133 C 
HETATM   33  C   UNK N   1      34.845  12.243  13.218  0.00  0.00     0.183 C 
HETATM   34  O   UNK N   1      34.721  13.216  14.226  0.00  0.00    -0.389 OA
HETATM   35  C   UNK N   1      35.960  13.882  14.280  0.00  0.00     0.183 C 
HETATM   36  C   UNK N   1      36.227  14.654  12.970  0.00  0.00     0.133 C 
ENDBRANCH  28  31
ENDBRANCH  27  28
ENDBRANCH   1  27
TORSDOF 11
ENDMDL
MODEL 6
REMARK VINA RESULT:      -6.1      4.406      6.873
REMARK  11 active torsions:
REMARK  status: ('A' for Active; 'I' for Inactive)
REMARK    1  A    between atoms: C_3  and  C_7 
REMARK    2  A    between atoms: C_7  and  N_9 
REMARK    3  A    between atoms: C_7  and  C_10 
REMARK    4  A    between atoms: C_11  and  N_9 
REMARK    5  A    between atoms: C_11  and  C_12 
REMARK    6  A    between atoms: C_11  and  C_13 
REMARK       I    between atoms: C_12  and  N_16 
REMARK    7  A    between atoms: C_13  and  S_14 
REMARK    8  A    between atoms: S_14  and  N_15 
REMARK    9  A    between atoms: N_16  and  C_18 
REMARK   10  A    between atoms: C_18  and  C_32 
REMARK   11  A    between atoms: N_31  and  C_32 
ROOT
HETATM    1  C   UNK N   1      23.949  17.995   4.134  0.00  0.00     0.185 C 
ENDROOT
BRANCH   1   2
HETATM    2  N   UNK N   1      24.613  16.683   3.990  0.00  0.00    -0.393 N 
HETATM    3  H   UNK N   1      24.220  15.875   4.473  0.00  0.00     0.155 HD
BRANCH   2   4
HETATM    4  C   UNK N   1      25.840  16.504   3.161  0.00  0.00     0.219 C 
BRANCH   4   5
HETATM    5  C   UNK N   1      27.168  16.491   3.914  0.00  0.00    -0.027 A 
HETATM    6  C   UNK N   1      27.196  15.948   5.212  0.00  0.00     0.012 A 
HETATM    7  C   UNK N   1      28.376  15.905   5.952  0.00  0.00     0.043 A 
HETATM    8  C   UNK N   1      29.557  16.400   5.403  0.00  0.00     0.116 A 
HETATM    9  C   UNK N   1      29.554  16.930   4.107  0.00  0.00     0.043 A 
HETATM   10  F   UNK N   1      30.702  16.364   6.127  0.00  0.00    -0.206 F 
HETATM   11  C   UNK N   1      28.366  16.972   3.363  0.00  0.00     0.012 A 
ENDBRANCH   4   5
BRANCH   4  12
HETATM   12  C   UNK N   1      25.739  15.333   2.162  0.00  0.00     0.411 C 
HETATM   13  F   UNK N   1      26.728  14.397   2.405  0.00  0.00    -0.168 F 
HETATM   14  F   UNK N   1      24.522  14.686   2.263  0.00  0.00    -0.168 F 
HETATM   15  F   UNK N   1      25.933  15.806   0.881  0.00  0.00    -0.168 F 
ENDBRANCH   4  12
ENDBRANCH   2   4
ENDBRANCH   1   2
BRANCH   1  16
HETATM   16  C   UNK N   1      24.875  19.150   4.440  0.00  0.00     0.241 C 
HETATM   17  N   UNK N   1      25.689  19.120   5.529  0.00  0.00    -0.348 N 
HETATM   18  H   UNK N   1      25.642  18.342   6.130  0.00  0.00     0.163 HD
HETATM   19  O   UNK N   1      24.921  20.088   3.661  0.00  0.00    -0.271 OA
BRANCH  17  20
HETATM   20  C   UNK N   1      26.627  20.184   5.852  0.00  0.00     0.048 A 
HETATM   21  C   UNK N   1      27.969  20.225   5.132  0.00  0.00     0.035 A 
HETATM   22  C   UNK N   1      27.866  19.598   6.507  0.00  0.00     0.035 A 
BRANCH  20  23
HETATM   23  C   UNK N   1      26.090  21.362   6.658  0.00  0.00     0.142 C 
BRANCH  23  24
HETATM   24  N   UNK N   1      25.890  21.027   8.060  0.00  0.00    -0.428 N 
HETATM   25  H   UNK N   1      25.324  20.226   8.342  0.00  0.00     0.150 HD
HETATM   26  H   UNK N   1      26.325  21.606   8.778  0.00  0.00     0.150 HD
ENDBRANCH  23  24
ENDBRANCH  20  23
ENDBRANCH  17  20
ENDBRANCH   1  16
BRANCH   1  27
HETATM   27  C   UNK N   1      22.845  17.920   5.194  0.00  0.00     0.192 C 
BRANCH  27  28
HETATM   28  S   UNK N   1      21.205  17.236   4.741  0.00  0.00     0.214 S 
HETATM   29  O   UNK N   1      21.948  15.898   4.873  0.00  0.00    -0.211 OA
HETATM   30  O   UNK N   1      20.258  16.809   5.875  0.00  0.00    -0.211 OA
BRANCH  28  31
HETATM   31  N   UNK N   1      20.560  16.663   3.177  0.00  0.00    -0.207 NA
HETATM   32  C   UNK N   1      20.454  17.776   2.216  0.00  0.00     0.133 C 
HETATM   33  C   UNK N   1      20.090  17.259   0.813  0.00  0.00     0.183 C 
HETATM   34  O   UNK N   1      19.830  15.877   0.848  0.00  0.00    -0.389 OA
HETATM   35  C   UNK N   1      21.045  15.259   1.199  0.00  0.00     0.183 C 
HETATM   36  C   UNK N   1      21.467  15.651   2.631  0.00  0.00     0.133 C 
ENDBRANCH  28  31
ENDBRANCH  27  28
ENDBRANCH   1  27
TORSDOF 11
ENDMDL
MODEL 7
REMARK VINA RESULT:      -6.0      3.373      7.646
REMARK  11 active torsions:
REMARK  status: ('A' for Active; 'I' for Inactive)
REMARK    1  A    between atoms: C_3  and  C_7 
REMARK    2  A    between atoms: C_7  and  N_9 
REMARK    3  A    between atoms: C_7  and  C_10 
REMARK    4  A    between atoms: C_11  and  N_9 
REMARK    5  A    between atoms: C_11  and  C_12 
REMARK    6  A    between atoms: C_11  and  C_13 
REMARK       I    between atoms: C_12  and  N_16 
REMARK    7  A    between atoms: C_13  and  S_14 
REMARK    8  A    between atoms: S_14  and  N_15 
REMARK    9  A    between atoms: N_16  and  C_18 
REMARK   10  A    between atoms: C_18  and  C_32 
REMARK   11  A    between atoms: N_31  and  C_32 
ROOT
HETATM    1  C   UNK N   1      31.148  16.885   6.265  0.00  0.00     0.185 C 
ENDROOT
BRANCH   1   2
HETATM    2  N   UNK N   1      29.722  16.809   6.644  0.00  0.00    -0.393 N 
HETATM    3  H   UNK N   1      29.206  15.949   6.456  0.00  0.00     0.155 HD
BRANCH   2   4
HETATM    4  C   UNK N   1      29.015  17.950   7.292  0.00  0.00     0.219 C 
BRANCH   4   5
HETATM    5  C   UNK N   1      27.934  18.636   6.460  0.00  0.00    -0.027 A 
HETATM    6  C   UNK N   1      27.747  20.022   6.619  0.00  0.00     0.012 A 
HETATM    7  C   UNK N   1      26.778  20.708   5.889  0.00  0.00     0.043 A 
HETATM    8  C   UNK N   1      25.980  20.021   4.979  0.00  0.00     0.116 A 
HETATM    9  C   UNK N   1      26.160  18.645   4.794  0.00  0.00     0.043 A 
HETATM   10  F   UNK N   1      25.033  20.689   4.274  0.00  0.00    -0.206 F 
HETATM   11  C   UNK N   1      27.136  17.955   5.528  0.00  0.00     0.012 A 
ENDBRANCH   4   5
BRANCH   4  12
HETATM   12  C   UNK N   1      28.522  17.635   8.720  0.00  0.00     0.411 C 
HETATM   13  F   UNK N   1      29.488  16.939   9.425  0.00  0.00    -0.168 F 
HETATM   14  F   UNK N   1      28.244  18.789   9.425  0.00  0.00    -0.168 F 
HETATM   15  F   UNK N   1      27.407  16.825   8.651  0.00  0.00    -0.168 F 
ENDBRANCH   4  12
ENDBRANCH   2   4
ENDBRANCH   1   2
BRANCH   1  16
HETATM   16  C   UNK N   1      31.487  16.278   4.923  0.00  0.00     0.241 C 
HETATM   17  N   UNK N   1      31.825  14.964   4.816  0.00  0.00    -0.348 N 
HETATM   18  H   UNK N   1      31.873  14.425   5.638  0.00  0.00     0.163 HD
HETATM   19  O   UNK N   1      31.395  16.973   3.923  0.00  0.00    -0.271 OA
BRANCH  17  20
HETATM   20  C   UNK N   1      32.122  14.318   3.548  0.00  0.00     0.048 A 
HETATM   21  C   UNK N   1      30.972  13.759   2.721  0.00  0.00     0.035 A 
HETATM   22  C   UNK N   1      31.769  12.843   3.626  0.00  0.00     0.035 A 
BRANCH  20  23
HETATM   23  C   UNK N   1      33.525  14.513   2.981  0.00  0.00     0.142 C 
BRANCH  23  24
HETATM   24  N   UNK N   1      34.548  14.474   4.014  0.00  0.00    -0.428 N 
HETATM   25  H   UNK N   1      35.512  14.750   3.822  0.00  0.00     0.150 HD
HETATM   26  H   UNK N   1      34.298  14.162   4.953  0.00  0.00     0.150 HD
ENDBRANCH  23  24
ENDBRANCH  20  23
ENDBRANCH  17  20
ENDBRANCH   1  16
BRANCH   1  27
HETATM   27  C   UNK N   1      32.023  16.255   7.353  0.00  0.00     0.192 C 
BRANCH  27  28
HETATM   28  S   UNK N   1      33.839  16.509   7.311  0.00  0.00     0.214 S 
HETATM   29  O   UNK N   1      33.846  14.992   7.070  0.00  0.00    -0.211 OA
HETATM   30  O   UNK N   1      34.512  16.718   5.945  0.00  0.00    -0.211 OA
BRANCH  28  31
HETATM   31  N   UNK N   1      35.091  16.262   8.562  0.00  0.00    -0.207 NA
HETATM   32  C   UNK N   1      34.615  16.729   9.877  0.00  0.00     0.133 C 
HETATM   33  C   UNK N   1      35.605  16.340  10.989  0.00  0.00     0.183 C 
HETATM   34  O   UNK N   1      36.760  15.755  10.441  0.00  0.00    -0.389 OA
HETATM   35  C   UNK N   1      36.343  14.553   9.839  0.00  0.00     0.183 C 
HETATM   36  C   UNK N   1      35.399  14.833   8.649  0.00  0.00     0.133 C 
ENDBRANCH  28  31
ENDBRANCH  27  28
ENDBRANCH   1  27
TORSDOF 11
ENDMDL
MODEL 8
REMARK VINA RESULT:      -6.0     12.029     15.442
REMARK  11 active torsions:
REMARK  status: ('A' for Active; 'I' for Inactive)
REMARK    1  A    between atoms: C_3  and  C_7 
REMARK    2  A    between atoms: C_7  and  N_9 
REMARK    3  A    between atoms: C_7  and  C_10 
REMARK    4  A    between atoms: C_11  and  N_9 
REMARK    5  A    between atoms: C_11  and  C_12 
REMARK    6  A    between atoms: C_11  and  C_13 
REMARK       I    between atoms: C_12  and  N_16 
REMARK    7  A    between atoms: C_13  and  S_14 
REMARK    8  A    between atoms: S_14  and  N_15 
REMARK    9  A    between atoms: N_16  and  C_18 
REMARK   10  A    between atoms: C_18  and  C_32 
REMARK   11  A    between atoms: N_31  and  C_32 
ROOT
HETATM    1  C   UNK N   1      28.292  24.953  -4.464  0.00  0.00     0.185 C 
ENDROOT
BRANCH   1   2
HETATM    2  N   UNK N   1      27.055  25.762  -4.472  0.00  0.00    -0.393 N 
HETATM    3  H   UNK N   1      26.154  25.289  -4.411  0.00  0.00     0.155 HD
BRANCH   2   4
HETATM    4  C   UNK N   1      27.085  27.251  -4.565  0.00  0.00     0.219 C 
BRANCH   4   5
HETATM    5  C   UNK N   1      27.731  27.836  -5.819  0.00  0.00    -0.027 A 
HETATM    6  C   UNK N   1      28.628  28.911  -5.669  0.00  0.00     0.012 A 
HETATM    7  C   UNK N   1      29.252  29.490  -6.771  0.00  0.00     0.043 A 
HETATM    8  C   UNK N   1      28.996  29.000  -8.049  0.00  0.00     0.116 A 
HETATM    9  C   UNK N   1      28.120  27.921  -8.220  0.00  0.00     0.043 A 
HETATM   10  F   UNK N   1      29.599  29.569  -9.122  0.00  0.00    -0.206 F 
HETATM   11  C   UNK N   1      27.493  27.338  -7.109  0.00  0.00     0.012 A 
ENDBRANCH   4   5
BRANCH   4  12
HETATM   12  C   UNK N   1      25.724  27.911  -4.263  0.00  0.00     0.411 C 
HETATM   13  F   UNK N   1      25.837  29.290  -4.280  0.00  0.00    -0.168 F 
HETATM   14  F   UNK N   1      24.773  27.560  -5.200  0.00  0.00    -0.168 F 
HETATM   15  F   UNK N   1      25.313  27.552  -2.995  0.00  0.00    -0.168 F 
ENDBRANCH   4  12
ENDBRANCH   2   4
ENDBRANCH   1   2
BRANCH   1  16
HETATM   16  C   UNK N   1      28.541  24.155  -5.723  0.00  0.00     0.241 C 
HETATM   17  N   UNK N   1      27.719  23.130  -6.073  0.00  0.00    -0.348 N 
HETATM   18  H   UNK N   1      26.973  22.901  -5.473  0.00  0.00     0.163 HD
HETATM   19  O   UNK N   1      29.463  24.483  -6.453  0.00  0.00    -0.271 OA
BRANCH  17  20
HETATM   20  C   UNK N   1      27.887  22.353  -7.291  0.00  0.00     0.048 A 
HETATM   21  C   UNK N   1      27.299  22.886  -8.591  0.00  0.00     0.035 A 
HETATM   22  C   UNK N   1      26.537  21.860  -7.779  0.00  0.00     0.035 A 
BRANCH  20  23
HETATM   23  C   UNK N   1      28.902  21.215  -7.254  0.00  0.00     0.142 C 
BRANCH  23  24
HETATM   24  N   UNK N   1      29.787  21.301  -6.102  0.00  0.00    -0.428 N 
HETATM   25  H   UNK N   1      29.957  20.497  -5.498  0.00  0.00     0.150 HD
HETATM   26  H   UNK N   1      30.248  22.187  -5.893  0.00  0.00     0.150 HD
ENDBRANCH  23  24
ENDBRANCH  20  23
ENDBRANCH  17  20
ENDBRANCH   1  16
BRANCH   1  27
HETATM   27  C   UNK N   1      28.311  24.022  -3.248  0.00  0.00     0.192 C 
BRANCH  27  28
HETATM   28  S   UNK N   1      29.853  23.126  -2.822  0.00  0.00     0.214 S 
HETATM   29  O   UNK N   1      30.459  24.535  -2.905  0.00  0.00    -0.211 OA
HETATM   30  O   UNK N   1      30.264  23.050  -1.342  0.00  0.00    -0.211 OA
BRANCH  28  31
HETATM   31  N   UNK N   1      31.197  22.545  -3.845  0.00  0.00    -0.207 NA
HETATM   32  C   UNK N   1      32.019  23.673  -4.319  0.00  0.00     0.133 C 
HETATM   33  C   UNK N   1      33.286  23.169  -5.032  0.00  0.00     0.183 C 
HETATM   34  O   UNK N   1      33.260  21.768  -5.156  0.00  0.00    -0.389 OA
HETATM   35  C   UNK N   1      33.310  21.258  -3.845  0.00  0.00     0.183 C 
HETATM   36  C   UNK N   1      32.039  21.642  -3.057  0.00  0.00     0.133 C 
ENDBRANCH  28  31
ENDBRANCH  27  28
ENDBRANCH   1  27
TORSDOF 11
ENDMDL
MODEL 9
REMARK VINA RESULT:      -5.9     12.348     15.719
REMARK  11 active torsions:
REMARK  status: ('A' for Active; 'I' for Inactive)
REMARK    1  A    between atoms: C_3  and  C_7 
REMARK    2  A    between atoms: C_7  and  N_9 
REMARK    3  A    between atoms: C_7  and  C_10 
REMARK    4  A    between atoms: C_11  and  N_9 
REMARK    5  A    between atoms: C_11  and  C_12 
REMARK    6  A    between atoms: C_11  and  C_13 
REMARK       I    between atoms: C_12  and  N_16 
REMARK    7  A    between atoms: C_13  and  S_14 
REMARK    8  A    between atoms: S_14  and  N_15 
REMARK    9  A    between atoms: N_16  and  C_18 
REMARK   10  A    between atoms: C_18  and  C_32 
REMARK   11  A    between atoms: N_31  and  C_32 
ROOT
HETATM    1  C   UNK N   1      26.915  25.693  -3.567  0.00  0.00     0.185 C 
ENDROOT
BRANCH   1   2
HETATM    2  N   UNK N   1      26.091  25.244  -4.709  0.00  0.00    -0.393 N 
HETATM    3  H   UNK N   1      25.202  24.780  -4.524  0.00  0.00     0.155 HD
BRANCH   2   4
HETATM    4  C   UNK N   1      26.522  25.447  -6.122  0.00  0.00     0.219 C 
BRANCH   4   5
HETATM    5  C   UNK N   1      26.519  24.208  -7.014  0.00  0.00    -0.027 A 
HETATM    6  C   UNK N   1      25.579  23.195  -6.749  0.00  0.00     0.012 A 
HETATM    7  C   UNK N   1      25.522  22.040  -7.526  0.00  0.00     0.043 A 
HETATM    8  C   UNK N   1      26.404  21.878  -8.592  0.00  0.00     0.116 A 
HETATM    9  C   UNK N   1      27.336  22.880  -8.883  0.00  0.00     0.043 A 
HETATM   10  F   UNK N   1      26.352  20.750  -9.343  0.00  0.00    -0.206 F 
HETATM   11  C   UNK N   1      27.392  24.043  -8.101  0.00  0.00     0.012 A 
ENDBRANCH   4   5
BRANCH   4  12
HETATM   12  C   UNK N   1      25.832  26.645  -6.807  0.00  0.00     0.411 C 
HETATM   13  F   UNK N   1      25.438  26.312  -8.090  0.00  0.00    -0.168 F 
HETATM   14  F   UNK N   1      24.703  27.040  -6.116  0.00  0.00    -0.168 F 
HETATM   15  F   UNK N   1      26.727  27.689  -6.914  0.00  0.00    -0.168 F 
ENDBRANCH   4  12
ENDBRANCH   2   4
ENDBRANCH   1   2
BRANCH   1  16
HETATM   16  C   UNK N   1      26.810  27.166  -3.243  0.00  0.00     0.241 C 
HETATM   17  N   UNK N   1      27.674  28.063  -3.790  0.00  0.00    -0.348 N 
HETATM   18  H   UNK N   1      28.387  27.728  -4.379  0.00  0.00     0.163 HD
HETATM   19  O   UNK N   1      25.898  27.546  -2.525  0.00  0.00    -0.271 OA
BRANCH  17  20
HETATM   20  C   UNK N   1      27.596  29.495  -3.545  0.00  0.00     0.048 A 
HETATM   21  C   UNK N   1      26.518  30.304  -4.253  0.00  0.00     0.035 A 
HETATM   22  C   UNK N   1      27.921  30.254  -4.819  0.00  0.00     0.035 A 
BRANCH  20  23
HETATM   23  C   UNK N   1      28.395  30.041  -2.366  0.00  0.00     0.142 C 
BRANCH  23  24
HETATM   24  N   UNK N   1      27.870  29.590  -1.086  0.00  0.00    -0.428 N 
HETATM   25  H   UNK N   1      27.304  28.745  -1.010  0.00  0.00     0.150 HD
HETATM   26  H   UNK N   1      28.071  30.132  -0.246  0.00  0.00     0.150 HD
ENDBRANCH  23  24
ENDBRANCH  20  23
ENDBRANCH  17  20
ENDBRANCH   1  16
BRANCH   1  27
HETATM   27  C   UNK N   1      28.383  25.315  -3.788  0.00  0.00     0.192 C 
BRANCH  27  28
HETATM   28  S   UNK N   1      28.939  23.605  -3.423  0.00  0.00     0.214 S 
HETATM   29  O   UNK N   1      30.194  24.334  -2.919  0.00  0.00    -0.211 OA
HETATM   30  O   UNK N   1      28.706  23.053  -2.007  0.00  0.00    -0.211 OA
BRANCH  28  31
HETATM   31  N   UNK N   1      30.009  22.498  -4.327  0.00  0.00    -0.207 NA
HETATM   32  C   UNK N   1      31.055  23.251  -5.044  0.00  0.00     0.133 C 
HETATM   33  C   UNK N   1      32.094  22.298  -5.660  0.00  0.00     0.183 C 
HETATM   34  O   UNK N   1      31.702  20.958  -5.486  0.00  0.00    -0.389 OA
HETATM   35  C   UNK N   1      31.717  20.723  -4.098  0.00  0.00     0.183 C 
HETATM   36  C   UNK N   1      30.649  21.579  -3.384  0.00  0.00     0.133 C 
ENDBRANCH  28  31
ENDBRANCH  27  28
ENDBRANCH   1  27
TORSDOF 11
ENDMDL
