REMARK  11 active torsions:
REMARK  status: ('A' for Active; 'I' for Inactive)
REMARK    1  A    between atoms: C_3  and  C_7 
REMARK    2  A    between atoms: C_7  and  N_9 
REMARK    3  A    between atoms: C_7  and  C_10 
REMARK    4  A    between atoms: C_11  and  N_9 
REMARK    5  A    between atoms: C_11  and  C_12 
REMARK    6  A    between atoms: C_11  and  C_13 
REMARK       I    between atoms: C_12  and  N_16 
REMARK    7  A    between atoms: C_13  and  S_14 
REMARK    8  A    between atoms: S_14  and  N_15 
REMARK    9  A    between atoms: N_16  and  C_18 
REMARK   10  A    between atoms: C_18  and  C_32 
REMARK   11  A    between atoms: N_31  and  C_32 
ROOT
HETATM    1  C   UNK N   1       0.333  -1.590  -0.885  0.00  0.00     0.185 C 
ENDROOT
BRANCH   1   2
HETATM    2  N   UNK N   1       0.784  -1.864   0.495  0.00  0.00    -0.393 N 
HETATM    3  H   UNK N   1       0.171  -2.386   1.121  0.00  0.00     0.155 HD
BRANCH   2   4
HETATM    4  C   UNK N   1       2.108  -1.400   1.001  0.00  0.00     0.219 C 
BRANCH   4   5
HETATM    5  C   UNK N   1       3.338  -2.046   0.368  0.00  0.00    -0.027 A 
HETATM    6  C   UNK N   1       4.600  -1.770   0.926  0.00  0.00     0.012 A 
HETATM    7  C   UNK N   1       5.762  -2.328   0.397  0.00  0.00     0.043 A 
HETATM    8  C   UNK N   1       5.683  -3.182  -0.700  0.00  0.00     0.116 A 
HETATM    9  C   UNK N   1       4.436  -3.483  -1.261  0.00  0.00     0.043 A 
HETATM   10  F   UNK N   1       6.815  -3.719  -1.218  0.00  0.00    -0.206 F 
HETATM   11  C   UNK N   1       3.267  -2.921  -0.727  0.00  0.00     0.012 A 
ENDBRANCH   4   5
BRANCH   4  12
HETATM   12  C   UNK N   1       2.237   0.136   1.061  0.00  0.00     0.411 C 
HETATM   13  F   UNK N   1       3.354   0.503   1.790  0.00  0.00    -0.168 F 
HETATM   14  F   UNK N   1       2.367   0.682  -0.201  0.00  0.00    -0.168 F 
HETATM   15  F   UNK N   1       1.138   0.663   1.708  0.00  0.00    -0.168 F 
ENDBRANCH   4  12
ENDBRANCH   2   4
ENDBRANCH   1   2
BRANCH   1  16
HETATM   16  C   UNK N   1       0.003  -0.144  -1.175  0.00  0.00     0.241 C 
HETATM   17  N   UNK N   1      -0.696   0.605  -0.280  0.00  0.00    -0.348 N 
HETATM   18  H   UNK N   1      -1.007   0.175   0.549  0.00  0.00     0.163 HD
HETATM   19  O   UNK N   1       0.425   0.360  -2.204  0.00  0.00    -0.271 OA
BRANCH  17  20
HETATM   20  C   UNK N   1      -1.008   2.010  -0.488  0.00  0.00     0.048 A 
HETATM   21  C   UNK N   1       0.063   2.923  -1.070  0.00  0.00     0.035 A 
HETATM   22  C   UNK N   1      -0.154   2.869   0.428  0.00  0.00     0.035 A 
BRANCH  20  23
HETATM   23  C   UNK N   1      -2.476   2.415  -0.402  0.00  0.00     0.142 C 
BRANCH  23  24
HETATM   24  N   UNK N   1      -2.681   3.820  -0.719  0.00  0.00    -0.428 N 
HETATM   25  H   UNK N   1      -1.899   4.437  -0.941  0.00  0.00     0.150 HD
HETATM   26  H   UNK N   1      -3.628   4.198  -0.719  0.00  0.00     0.150 HD
ENDBRANCH  23  24
ENDBRANCH  20  23
ENDBRANCH  17  20
ENDBRANCH   1  16
BRANCH   1  27
HETATM   27  C   UNK N   1      -0.866  -2.476  -1.239  0.00  0.00     0.192 C 
BRANCH  27  28
HETATM   28  S   UNK N   1      -2.403  -2.353  -0.246  0.00  0.00     0.214 S 
HETATM   29  O   UNK N   1      -3.007  -3.081  -1.457  0.00  0.00    -0.211 OA
HETATM   30  O   UNK N   1      -2.788  -3.544   0.647  0.00  0.00    -0.211 OA
BRANCH  28  31
HETATM   31  N   UNK N   1      -3.766  -1.201  -0.326  0.00  0.00    -0.207 NA
HETATM   32  C   UNK N   1      -5.053  -1.902  -0.168  0.00  0.00     0.133 C 
HETATM   33  C   UNK N   1      -6.213  -0.899  -0.037  0.00  0.00     0.183 C 
HETATM   34  O   UNK N   1      -5.754   0.416  -0.231  0.00  0.00    -0.389 OA
HETATM   35  C   UNK N   1      -4.872   0.684   0.833  0.00  0.00     0.183 C 
HETATM   36  C   UNK N   1      -3.624  -0.221   0.753  0.00  0.00     0.133 C 
ENDBRANCH  28  31
ENDBRANCH  27  28
ENDBRANCH   1  27
TORSDOF 11
