MODEL 1
REMARK VINA RESULT:      -8.1      0.000      0.000
REMARK  9 active torsions:
REMARK  status: ('A' for Active; 'I' for Inactive)
REMARK    1  A    between atoms: C_2  and  N_1 
REMARK    2  A    between atoms: C_2  and  C_3 
REMARK    3  A    between atoms: C_2  and  C_10 
REMARK    4  A    between atoms: C_3  and  C_4 
REMARK    5  A    between atoms: C_10  and  O_11 
REMARK    6  A    between atoms: C_10  and  C_12 
REMARK    7  A    between atoms: C_12  and  N_13 
REMARK    8  A    between atoms: N_13  and  S_14 
REMARK    9  A    between atoms: S_14  and  C_17 
ROOT
HETATM    1  C   UNK N   1      34.896  13.987  10.319  0.00  0.00     0.166 C 
ENDROOT
BRANCH   1   2
HETATM    2  C   UNK N   1      33.795  14.966   9.899  0.00  0.00     0.159 C 
BRANCH   2   3
HETATM    3  C   UNK N   1      34.367  16.335   9.482  0.00  0.00     0.108 C 
BRANCH   3   4
HETATM    4  N   UNK N   1      35.042  16.957  10.609  0.00  0.00    -0.423 N 
HETATM    5  H   UNK N   1      35.248  16.902  11.607  0.00  0.00     0.150 HD
HETATM    6  H   UNK N   1      35.499  17.798  10.257  0.00  0.00     0.150 HD
ENDBRANCH   3   4
BRANCH   3   7
HETATM    7  C   UNK N   1      33.247  17.280   9.026  0.00  0.00     0.065 C 
BRANCH   7   8
HETATM    8  C   UNK N   1      32.895  17.196   7.575  0.00  0.00    -0.056 A 
HETATM    9  C   UNK N   1      33.856  17.460   6.589  0.00  0.00     0.007 A 
HETATM   10  C   UNK N   1      33.501  17.422   5.238  0.00  0.00     0.001 A 
HETATM   11  C   UNK N   1      32.183  17.139   4.868  0.00  0.00     0.000 A 
HETATM   12  C   UNK N   1      31.220  16.887   5.850  0.00  0.00     0.001 A 
HETATM   13  C   UNK N   1      31.576  16.916   7.203  0.00  0.00     0.007 A 
ENDBRANCH   7   8
ENDBRANCH   3   7
ENDBRANCH   2   3
BRANCH   2  14
HETATM   14  O   UNK N   1      32.928  15.120  10.983  0.00  0.00    -0.392 OA
HETATM   15  H   UNK N   1      32.160  14.641  11.336  0.00  0.00     0.210 HD
ENDBRANCH   2  14
ENDBRANCH   1   2
BRANCH   1  16
HETATM   16  N   UNK N   1      34.536  13.207  11.496  0.00  0.00    -0.313 N 
HETATM   17  H   UNK N   1      33.703  12.627  11.591  0.00  0.00     0.172 HD
BRANCH  16  18
HETATM   18  S   UNK N   1      35.786  13.430  12.743  0.00  0.00     0.258 S 
HETATM   19  O   UNK N   1      35.886  14.955  12.886  0.00  0.00    -0.201 OA
HETATM   20  O   UNK N   1      37.144  13.105  12.095  0.00  0.00    -0.201 OA
BRANCH  18  21
HETATM   21  C   UNK N   1      35.611  12.682  14.363  0.00  0.00     0.080 A 
HETATM   22  C   UNK N   1      35.726  11.291  14.482  0.00  0.00     0.026 A 
HETATM   23  C   UNK N   1      35.670  10.679  15.736  0.00  0.00     0.014 A 
HETATM   24  C   UNK N   1      35.506  11.455  16.884  0.00  0.00    -0.026 A 
HETATM   25  C   UNK N   1      35.475  10.847  18.142  0.00  0.00     0.012 A 
HETATM   26  C   UNK N   1      35.381  12.860  16.772  0.00  0.00    -0.025 A 
HETATM   27  C   UNK N   1      35.322  11.629  19.291  0.00  0.00     0.001 A 
HETATM   28  C   UNK N   1      35.192  13.019  19.182  0.00  0.00     0.001 A 
HETATM   29  C   UNK N   1      35.222  13.634  17.926  0.00  0.00     0.012 A 
HETATM   30  C   UNK N   1      35.436  13.468  15.510  0.00  0.00     0.037 A 
ENDBRANCH  18  21
ENDBRANCH  16  18
ENDBRANCH   1  16
TORSDOF 9
ENDMDL
MODEL 2
REMARK VINA RESULT:      -7.9     21.945     24.656
REMARK  9 active torsions:
REMARK  status: ('A' for Active; 'I' for Inactive)
REMARK    1  A    between atoms: C_2  and  N_1 
REMARK    2  A    between atoms: C_2  and  C_3 
REMARK    3  A    between atoms: C_2  and  C_10 
REMARK    4  A    between atoms: C_3  and  C_4 
REMARK    5  A    between atoms: C_10  and  O_11 
REMARK    6  A    between atoms: C_10  and  C_12 
REMARK    7  A    between atoms: C_12  and  N_13 
REMARK    8  A    between atoms: N_13  and  S_14 
REMARK    9  A    between atoms: S_14  and  C_17 
ROOT
HETATM    1  C   UNK N   1      26.891  22.959  -9.742  0.00  0.00     0.166 C 
ENDROOT
BRANCH   1   2
HETATM    2  C   UNK N   1      25.656  22.387  -9.039  0.00  0.00     0.159 C 
BRANCH   2   3
HETATM    3  C   UNK N   1      25.980  21.878  -7.621  0.00  0.00     0.108 C 
BRANCH   3   4
HETATM    4  N   UNK N   1      25.334  20.596  -7.393  0.00  0.00    -0.423 N 
HETATM    5  H   UNK N   1      25.303  19.754  -6.817  0.00  0.00     0.150 HD
HETATM    6  H   UNK N   1      24.611  20.495  -8.106  0.00  0.00     0.150 HD
ENDBRANCH   3   4
BRANCH   3   7
HETATM    7  C   UNK N   1      25.468  22.857  -6.557  0.00  0.00     0.065 C 
BRANCH   7   8
HETATM    8  C   UNK N   1      26.531  23.551  -5.767  0.00  0.00    -0.056 A 
HETATM    9  C   UNK N   1      26.259  24.052  -4.486  0.00  0.00     0.007 A 
HETATM   10  C   UNK N   1      27.249  24.738  -3.777  0.00  0.00     0.001 A 
HETATM   11  C   UNK N   1      28.507  24.941  -4.352  0.00  0.00     0.000 A 
HETATM   12  C   UNK N   1      28.777  24.453  -5.634  0.00  0.00     0.001 A 
HETATM   13  C   UNK N   1      27.790  23.758  -6.341  0.00  0.00     0.007 A 
ENDBRANCH   7   8
ENDBRANCH   3   7
ENDBRANCH   2   3
BRANCH   2  14
HETATM   14  O   UNK N   1      25.168  21.339  -9.824  0.00  0.00    -0.392 OA
HETATM   15  H   UNK N   1      25.546  20.704 -10.453  0.00  0.00     0.210 HD
ENDBRANCH   2  14
ENDBRANCH   1   2
BRANCH   1  16
HETATM   16  N   UNK N   1      26.564  23.639 -10.989  0.00  0.00    -0.313 N 
HETATM   17  H   UNK N   1      26.676  23.248 -11.924  0.00  0.00     0.172 HD
BRANCH  16  18
HETATM   18  S   UNK N   1      25.938  25.262 -10.616  0.00  0.00     0.258 S 
HETATM   19  O   UNK N   1      24.414  25.085 -10.677  0.00  0.00    -0.201 OA
HETATM   20  O   UNK N   1      26.182  26.145 -11.853  0.00  0.00    -0.201 OA
BRANCH  18  21
HETATM   21  C   UNK N   1      26.388  26.093  -9.091  0.00  0.00     0.080 A 
HETATM   22  C   UNK N   1      27.642  26.711  -9.002  0.00  0.00     0.026 A 
HETATM   23  C   UNK N   1      27.999  27.430  -7.860  0.00  0.00     0.014 A 
HETATM   24  C   UNK N   1      27.100  27.544  -6.799  0.00  0.00    -0.026 A 
HETATM   25  C   UNK N   1      27.445  28.284  -5.665  0.00  0.00     0.012 A 
HETATM   26  C   UNK N   1      25.835  26.915  -6.877  0.00  0.00    -0.025 A 
HETATM   27  C   UNK N   1      26.538  28.404  -4.607  0.00  0.00     0.001 A 
HETATM   28  C   UNK N   1      25.288  27.779  -4.680  0.00  0.00     0.001 A 
HETATM   29  C   UNK N   1      24.937  27.035  -5.812  0.00  0.00     0.012 A 
HETATM   30  C   UNK N   1      25.484  26.192  -8.026  0.00  0.00     0.037 A 
ENDBRANCH  18  21
ENDBRANCH  16  18
ENDBRANCH   1  16
TORSDOF 9
ENDMDL
MODEL 3
REMARK VINA RESULT:      -7.8      1.543      2.057
REMARK  9 active torsions:
REMARK  status: ('A' for Active; 'I' for Inactive)
REMARK    1  A    between atoms: C_2  and  N_1 
REMARK    2  A    between atoms: C_2  and  C_3 
REMARK    3  A    between atoms: C_2  and  C_10 
REMARK    4  A    between atoms: C_3  and  C_4 
REMARK    5  A    between atoms: C_10  and  O_11 
REMARK    6  A    between atoms: C_10  and  C_12 
REMARK    7  A    between atoms: C_12  and  N_13 
REMARK    8  A    between atoms: N_13  and  S_14 
REMARK    9  A    between atoms: S_14  and  C_17 
ROOT
HETATM    1  C   UNK N   1      35.904  15.135  12.536  0.00  0.00     0.166 C 
ENDROOT
BRANCH   1   2
HETATM    2  C   UNK N   1      35.945  16.097  11.345  0.00  0.00     0.159 C 
BRANCH   2   3
HETATM    3  C   UNK N   1      34.756  15.886  10.389  0.00  0.00     0.108 C 
BRANCH   3   4
HETATM    4  N   UNK N   1      33.781  14.994  10.997  0.00  0.00    -0.423 N 
HETATM    5  H   UNK N   1      32.989  14.916  11.636  0.00  0.00     0.150 HD
HETATM    6  H   UNK N   1      33.966  14.059  10.636  0.00  0.00     0.150 HD
ENDBRANCH   3   4
BRANCH   3   7
HETATM    7  C   UNK N   1      35.218  15.248   9.073  0.00  0.00     0.065 C 
BRANCH   7   8
HETATM    8  C   UNK N   1      34.661  15.872   7.834  0.00  0.00    -0.056 A 
HETATM    9  C   UNK N   1      34.832  15.260   6.584  0.00  0.00     0.007 A 
HETATM   10  C   UNK N   1      34.346  15.878   5.428  0.00  0.00     0.001 A 
HETATM   11  C   UNK N   1      33.702  17.115   5.516  0.00  0.00     0.000 A 
HETATM   12  C   UNK N   1      33.540  17.734   6.759  0.00  0.00     0.001 A 
HETATM   13  C   UNK N   1      34.018  17.112   7.917  0.00  0.00     0.007 A 
ENDBRANCH   7   8
ENDBRANCH   3   7
ENDBRANCH   2   3
BRANCH   2  14
HETATM   14  O   UNK N   1      37.149  15.883  10.668  0.00  0.00    -0.392 OA
HETATM   15  H   UNK N   1      37.701  15.114  10.455  0.00  0.00     0.210 HD
ENDBRANCH   2  14
ENDBRANCH   1   2
BRANCH   1  16
HETATM   16  N   UNK N   1      36.923  14.096  12.456  0.00  0.00    -0.313 N 
HETATM   17  H   UNK N   1      37.901  14.242  12.205  0.00  0.00     0.172 HD
BRANCH  16  18
HETATM   18  S   UNK N   1      36.186  12.529  12.867  0.00  0.00     0.258 S 
HETATM   19  O   UNK N   1      37.061  11.511  12.123  0.00  0.00    -0.201 OA
HETATM   20  O   UNK N   1      34.869  12.419  12.079  0.00  0.00    -0.201 OA
BRANCH  18  21
HETATM   21  C   UNK N   1      35.996  12.025  14.578  0.00  0.00     0.080 A 
HETATM   22  C   UNK N   1      36.339  10.716  14.940  0.00  0.00     0.026 A 
HETATM   23  C   UNK N   1      36.275  10.309  16.274  0.00  0.00     0.014 A 
HETATM   24  C   UNK N   1      35.875  11.211  17.260  0.00  0.00    -0.026 A 
HETATM   25  C   UNK N   1      35.835  10.813  18.599  0.00  0.00     0.012 A 
HETATM   26  C   UNK N   1      35.519  12.533  16.901  0.00  0.00    -0.025 A 
HETATM   27  C   UNK N   1      35.443  11.724  19.586  0.00  0.00     0.001 A 
HETATM   28  C   UNK N   1      35.085  13.030  19.233  0.00  0.00     0.001 A 
HETATM   29  C   UNK N   1      35.122  13.435  17.894  0.00  0.00     0.012 A 
HETATM   30  C   UNK N   1      35.583  12.935  15.560  0.00  0.00     0.037 A 
ENDBRANCH  18  21
ENDBRANCH  16  18
ENDBRANCH   1  16
TORSDOF 9
ENDMDL
MODEL 4
REMARK VINA RESULT:      -7.7      1.893     10.297
REMARK  9 active torsions:
REMARK  status: ('A' for Active; 'I' for Inactive)
REMARK    1  A    between atoms: C_2  and  N_1 
REMARK    2  A    between atoms: C_2  and  C_3 
REMARK    3  A    between atoms: C_2  and  C_10 
REMARK    4  A    between atoms: C_3  and  C_4 
REMARK    5  A    between atoms: C_10  and  O_11 
REMARK    6  A    between atoms: C_10  and  C_12 
REMARK    7  A    between atoms: C_12  and  N_13 
REMARK    8  A    between atoms: N_13  and  S_14 
REMARK    9  A    between atoms: S_14  and  C_17 
ROOT
HETATM    1  C   UNK N   1      35.606  14.804  12.510  0.00  0.00     0.166 C 
ENDROOT
BRANCH   1   2
HETATM    2  C   UNK N   1      36.266  13.441  12.743  0.00  0.00     0.159 C 
BRANCH   2   3
HETATM    3  C   UNK N   1      36.540  13.179  14.236  0.00  0.00     0.108 C 
BRANCH   3   4
HETATM    4  N   UNK N   1      37.738  12.368  14.388  0.00  0.00    -0.423 N 
HETATM    5  H   UNK N   1      38.337  11.658  13.967  0.00  0.00     0.150 HD
HETATM    6  H   UNK N   1      38.149  12.610  15.289  0.00  0.00     0.150 HD
ENDBRANCH   3   4
BRANCH   3   7
HETATM    7  C   UNK N   1      35.374  12.418  14.881  0.00  0.00     0.065 C 
BRANCH   7   8
HETATM    8  C   UNK N   1      35.392  12.375  16.376  0.00  0.00    -0.056 A 
HETATM    9  C   UNK N   1      35.502  11.154  17.056  0.00  0.00     0.007 A 
HETATM   10  C   UNK N   1      35.471  11.125  18.453  0.00  0.00     0.001 A 
HETATM   11  C   UNK N   1      35.314  12.313  19.174  0.00  0.00     0.000 A 
HETATM   12  C   UNK N   1      35.192  13.530  18.498  0.00  0.00     0.001 A 
HETATM   13  C   UNK N   1      35.231  13.562  17.100  0.00  0.00     0.007 A 
ENDBRANCH   7   8
ENDBRANCH   3   7
ENDBRANCH   2   3
BRANCH   2  14
HETATM   14  O   UNK N   1      37.466  13.423  12.026  0.00  0.00    -0.392 OA
HETATM   15  H   UNK N   1      38.027  12.741  11.625  0.00  0.00     0.210 HD
ENDBRANCH   2  14
ENDBRANCH   1   2
BRANCH   1  16
HETATM   16  N   UNK N   1      34.775  14.829  11.312  0.00  0.00    -0.313 N 
HETATM   17  H   UNK N   1      33.908  14.309  11.181  0.00  0.00     0.172 HD
BRANCH  16  18
HETATM   18  S   UNK N   1      35.518  15.917  10.115  0.00  0.00     0.258 S 
HETATM   19  O   UNK N   1      36.870  15.255   9.814  0.00  0.00    -0.201 OA
HETATM   20  O   UNK N   1      35.970  17.184  10.863  0.00  0.00    -0.201 OA
BRANCH  18  21
HETATM   21  C   UNK N   1      34.678  16.301   8.578  0.00  0.00     0.080 A 
HETATM   22  C   UNK N   1      33.925  17.479   8.494  0.00  0.00     0.026 A 
HETATM   23  C   UNK N   1      33.319  17.850   7.293  0.00  0.00     0.014 A 
HETATM   24  C   UNK N   1      33.466  17.048   6.161  0.00  0.00    -0.026 A 
HETATM   25  C   UNK N   1      32.881  17.429   4.950  0.00  0.00     0.012 A 
HETATM   26  C   UNK N   1      34.218  15.851   6.239  0.00  0.00    -0.025 A 
HETATM   27  C   UNK N   1      33.040  16.628   3.815  0.00  0.00     0.001 A 
HETATM   28  C   UNK N   1      33.779  15.442   3.891  0.00  0.00     0.001 A 
HETATM   29  C   UNK N   1      34.366  15.053   5.100  0.00  0.00     0.012 A 
HETATM   30  C   UNK N   1      34.823  15.484   7.449  0.00  0.00     0.037 A 
ENDBRANCH  18  21
ENDBRANCH  16  18
ENDBRANCH   1  16
TORSDOF 9
ENDMDL
MODEL 5
REMARK VINA RESULT:      -7.5     20.798     22.893
REMARK  9 active torsions:
REMARK  status: ('A' for Active; 'I' for Inactive)
REMARK    1  A    between atoms: C_2  and  N_1 
REMARK    2  A    between atoms: C_2  and  C_3 
REMARK    3  A    between atoms: C_2  and  C_10 
REMARK    4  A    between atoms: C_3  and  C_4 
REMARK    5  A    between atoms: C_10  and  O_11 
REMARK    6  A    between atoms: C_10  and  C_12 
REMARK    7  A    between atoms: C_12  and  N_13 
REMARK    8  A    between atoms: N_13  and  S_14 
REMARK    9  A    between atoms: S_14  and  C_17 
ROOT
HETATM    1  C   UNK N   1      28.094  22.618  -8.230  0.00  0.00     0.166 C 
ENDROOT
BRANCH   1   2
HETATM    2  C   UNK N   1      28.594  21.705  -7.106  0.00  0.00     0.159 C 
BRANCH   2   3
HETATM    3  C   UNK N   1      29.793  22.315  -6.355  0.00  0.00     0.108 C 
BRANCH   3   4
HETATM    4  N   UNK N   1      30.731  21.268  -5.983  0.00  0.00    -0.423 N 
HETATM    5  H   UNK N   1      31.472  20.986  -5.341  0.00  0.00     0.150 HD
HETATM    6  H   UNK N   1      30.591  20.497  -6.634  0.00  0.00     0.150 HD
ENDBRANCH   3   4
BRANCH   3   7
HETATM    7  C   UNK N   1      29.336  23.014  -5.068  0.00  0.00     0.065 C 
BRANCH   7   8
HETATM    8  C   UNK N   1      29.561  24.492  -5.033  0.00  0.00    -0.056 A 
HETATM    9  C   UNK N   1      29.562  25.245  -6.216  0.00  0.00     0.007 A 
HETATM   10  C   UNK N   1      29.819  26.618  -6.173  0.00  0.00     0.001 A 
HETATM   11  C   UNK N   1      30.092  27.240  -4.952  0.00  0.00     0.000 A 
HETATM   12  C   UNK N   1      30.103  26.490  -3.772  0.00  0.00     0.001 A 
HETATM   13  C   UNK N   1      29.837  25.117  -3.813  0.00  0.00     0.007 A 
ENDBRANCH   7   8
ENDBRANCH   3   7
ENDBRANCH   2   3
BRANCH   2  14
HETATM   14  O   UNK N   1      28.958  20.485  -7.681  0.00  0.00    -0.392 OA
HETATM   15  H   UNK N   1      29.527  19.739  -7.431  0.00  0.00     0.210 HD
ENDBRANCH   2  14
ENDBRANCH   1   2
BRANCH   1  16
HETATM   16  N   UNK N   1      26.830  22.167  -8.801  0.00  0.00    -0.313 N 
HETATM   17  H   UNK N   1      26.706  21.343  -9.388  0.00  0.00     0.172 HD
BRANCH  16  18
HETATM   18  S   UNK N   1      25.539  23.288  -8.307  0.00  0.00     0.258 S 
HETATM   19  O   UNK N   1      24.313  22.380  -8.147  0.00  0.00    -0.201 OA
HETATM   20  O   UNK N   1      25.141  24.106  -9.549  0.00  0.00    -0.201 OA
BRANCH  18  21
HETATM   21  C   UNK N   1      25.724  24.316  -6.849  0.00  0.00     0.080 A 
HETATM   22  C   UNK N   1      25.754  23.705  -5.589  0.00  0.00     0.026 A 
HETATM   23  C   UNK N   1      25.970  24.463  -4.437  0.00  0.00     0.014 A 
HETATM   24  C   UNK N   1      26.167  25.840  -4.536  0.00  0.00    -0.026 A 
HETATM   25  C   UNK N   1      26.409  26.598  -3.387  0.00  0.00     0.012 A 
HETATM   26  C   UNK N   1      26.130  26.467  -5.804  0.00  0.00    -0.025 A 
HETATM   27  C   UNK N   1      26.616  27.977  -3.491  0.00  0.00     0.001 A 
HETATM   28  C   UNK N   1      26.574  28.600  -4.744  0.00  0.00     0.001 A 
HETATM   29  C   UNK N   1      26.331  27.848  -5.898  0.00  0.00     0.012 A 
HETATM   30  C   UNK N   1      25.910  25.701  -6.957  0.00  0.00     0.037 A 
ENDBRANCH  18  21
ENDBRANCH  16  18
ENDBRANCH   1  16
TORSDOF 9
ENDMDL
MODEL 6
REMARK VINA RESULT:      -7.5     21.336     23.814
REMARK  9 active torsions:
REMARK  status: ('A' for Active; 'I' for Inactive)
REMARK    1  A    between atoms: C_2  and  N_1 
REMARK    2  A    between atoms: C_2  and  C_3 
REMARK    3  A    between atoms: C_2  and  C_10 
REMARK    4  A    between atoms: C_3  and  C_4 
REMARK    5  A    between atoms: C_10  and  O_11 
REMARK    6  A    between atoms: C_10  and  C_12 
REMARK    7  A    between atoms: C_12  and  N_13 
REMARK    8  A    between atoms: N_13  and  S_14 
REMARK    9  A    between atoms: S_14  and  C_17 
ROOT
HETATM    1  C   UNK N   1      26.407  23.106  -9.181  0.00  0.00     0.166 C 
ENDROOT
BRANCH   1   2
HETATM    2  C   UNK N   1      25.192  22.327  -8.669  0.00  0.00     0.159 C 
BRANCH   2   3
HETATM    3  C   UNK N   1      25.272  22.061  -7.153  0.00  0.00     0.108 C 
BRANCH   3   4
HETATM    4  N   UNK N   1      24.145  21.245  -6.732  0.00  0.00    -0.423 N 
HETATM    5  H   UNK N   1      23.132  21.119  -6.762  0.00  0.00     0.150 HD
HETATM    6  H   UNK N   1      24.523  20.480  -6.173  0.00  0.00     0.150 HD
ENDBRANCH   3   4
BRANCH   3   7
HETATM    7  C   UNK N   1      25.220  23.376  -6.364  0.00  0.00     0.065 C 
BRANCH   7   8
HETATM    8  C   UNK N   1      26.378  23.613  -5.448  0.00  0.00    -0.056 A 
HETATM    9  C   UNK N   1      26.182  24.160  -4.172  0.00  0.00     0.007 A 
HETATM   10  C   UNK N   1      27.278  24.420  -3.345  0.00  0.00     0.001 A 
HETATM   11  C   UNK N   1      28.573  24.150  -3.796  0.00  0.00     0.000 A 
HETATM   12  C   UNK N   1      28.773  23.616  -5.072  0.00  0.00     0.001 A 
HETATM   13  C   UNK N   1      27.676  23.347  -5.898  0.00  0.00     0.007 A 
ENDBRANCH   7   8
ENDBRANCH   3   7
ENDBRANCH   2   3
BRANCH   2  14
HETATM   14  O   UNK N   1      25.140  21.117  -9.365  0.00  0.00    -0.392 OA
HETATM   15  H   UNK N   1      25.120  20.849 -10.298  0.00  0.00     0.210 HD
ENDBRANCH   2  14
ENDBRANCH   1   2
BRANCH   1  16
HETATM   16  N   UNK N   1      26.037  24.324  -9.891  0.00  0.00    -0.313 N 
HETATM   17  H   UNK N   1      25.309  24.398 -10.600  0.00  0.00     0.172 HD
BRANCH  16  18
HETATM   18  S   UNK N   1      27.061  25.662  -9.318  0.00  0.00     0.258 S 
HETATM   19  O   UNK N   1      26.971  26.697 -10.448  0.00  0.00    -0.201 OA
HETATM   20  O   UNK N   1      28.526  25.209  -9.449  0.00  0.00    -0.201 OA
BRANCH  18  21
HETATM   21  C   UNK N   1      26.736  26.458  -7.744  0.00  0.00     0.080 A 
HETATM   22  C   UNK N   1      25.408  26.620  -7.329  0.00  0.00     0.026 A 
HETATM   23  C   UNK N   1      25.117  27.167  -6.078  0.00  0.00     0.014 A 
HETATM   24  C   UNK N   1      26.154  27.549  -5.226  0.00  0.00    -0.026 A 
HETATM   25  C   UNK N   1      25.866  28.073  -3.963  0.00  0.00     0.012 A 
HETATM   26  C   UNK N   1      27.498  27.396  -5.641  0.00  0.00    -0.025 A 
HETATM   27  C   UNK N   1      26.908  28.446  -3.107  0.00  0.00     0.001 A 
HETATM   28  C   UNK N   1      28.238  28.300  -3.517  0.00  0.00     0.001 A 
HETATM   29  C   UNK N   1      28.534  27.777  -4.781  0.00  0.00     0.012 A 
HETATM   30  C   UNK N   1      27.784  26.848  -6.899  0.00  0.00     0.037 A 
ENDBRANCH  18  21
ENDBRANCH  16  18
ENDBRANCH   1  16
TORSDOF 9
ENDMDL
MODEL 7
REMARK VINA RESULT:      -7.3      1.638     10.023
REMARK  9 active torsions:
REMARK  status: ('A' for Active; 'I' for Inactive)
REMARK    1  A    between atoms: C_2  and  N_1 
REMARK    2  A    between atoms: C_2  and  C_3 
REMARK    3  A    between atoms: C_2  and  C_10 
REMARK    4  A    between atoms: C_3  and  C_4 
REMARK    5  A    between atoms: C_10  and  O_11 
REMARK    6  A    between atoms: C_10  and  C_12 
REMARK    7  A    between atoms: C_12  and  N_13 
REMARK    8  A    between atoms: N_13  and  S_14 
REMARK    9  A    between atoms: S_14  and  C_17 
ROOT
HETATM    1  C   UNK N   1      35.928  13.722  10.085  0.00  0.00     0.166 C 
ENDROOT
BRANCH   1   2
HETATM    2  C   UNK N   1      36.730  13.806  11.388  0.00  0.00     0.159 C 
BRANCH   2   3
HETATM    3  C   UNK N   1      36.072  13.000  12.525  0.00  0.00     0.108 C 
BRANCH   3   4
HETATM    4  N   UNK N   1      34.630  12.972  12.345  0.00  0.00    -0.423 N 
HETATM    5  H   UNK N   1      33.749  13.465  12.493  0.00  0.00     0.150 HD
HETATM    6  H   UNK N   1      34.405  12.094  11.876  0.00  0.00     0.150 HD
ENDBRANCH   3   4
BRANCH   3   7
HETATM    7  C   UNK N   1      36.362  13.641  13.888  0.00  0.00     0.065 C 
BRANCH   7   8
HETATM    8  C   UNK N   1      36.124  12.756  15.070  0.00  0.00    -0.056 A 
HETATM    9  C   UNK N   1      35.359  13.202  16.157  0.00  0.00     0.007 A 
HETATM   10  C   UNK N   1      35.183  12.382  17.274  0.00  0.00     0.001 A 
HETATM   11  C   UNK N   1      35.784  11.120  17.317  0.00  0.00     0.000 A 
HETATM   12  C   UNK N   1      36.558  10.677  16.240  0.00  0.00     0.001 A 
HETATM   13  C   UNK N   1      36.727  11.494  15.117  0.00  0.00     0.007 A 
ENDBRANCH   7   8
ENDBRANCH   3   7
ENDBRANCH   2   3
BRANCH   2  14
HETATM   14  O   UNK N   1      36.818  15.154  11.745  0.00  0.00    -0.392 OA
HETATM   15  H   UNK N   1      37.469  15.715  12.196  0.00  0.00     0.210 HD
ENDBRANCH   2  14
ENDBRANCH   1   2
BRANCH   1  16
HETATM   16  N   UNK N   1      36.113  14.891   9.234  0.00  0.00    -0.313 N 
HETATM   17  H   UNK N   1      36.905  15.052   8.613  0.00  0.00     0.172 HD
BRANCH  16  18
HETATM   18  S   UNK N   1      34.731  15.990   9.452  0.00  0.00     0.258 S 
HETATM   19  O   UNK N   1      35.346  17.210  10.152  0.00  0.00    -0.201 OA
HETATM   20  O   UNK N   1      33.857  15.412  10.580  0.00  0.00    -0.201 OA
BRANCH  18  21
HETATM   21  C   UNK N   1      33.755  16.529   8.047  0.00  0.00     0.080 A 
HETATM   22  C   UNK N   1      34.401  16.776   6.829  0.00  0.00     0.026 A 
HETATM   23  C   UNK N   1      33.667  17.124   5.694  0.00  0.00     0.014 A 
HETATM   24  C   UNK N   1      32.277  17.221   5.765  0.00  0.00    -0.026 A 
HETATM   25  C   UNK N   1      31.538  17.545   4.625  0.00  0.00     0.012 A 
HETATM   26  C   UNK N   1      31.617  16.982   6.994  0.00  0.00    -0.025 A 
HETATM   27  C   UNK N   1      30.144  17.632   4.698  0.00  0.00     0.001 A 
HETATM   28  C   UNK N   1      29.489  17.401   5.913  0.00  0.00     0.001 A 
HETATM   29  C   UNK N   1      30.223  17.077   7.059  0.00  0.00     0.012 A 
HETATM   30  C   UNK N   1      32.360  16.634   8.131  0.00  0.00     0.037 A 
ENDBRANCH  18  21
ENDBRANCH  16  18
ENDBRANCH   1  16
TORSDOF 9
ENDMDL
MODEL 8
REMARK VINA RESULT:      -7.2     19.758     22.030
REMARK  9 active torsions:
REMARK  status: ('A' for Active; 'I' for Inactive)
REMARK    1  A    between atoms: C_2  and  N_1 
REMARK    2  A    between atoms: C_2  and  C_3 
REMARK    3  A    between atoms: C_2  and  C_10 
REMARK    4  A    between atoms: C_3  and  C_4 
REMARK    5  A    between atoms: C_10  and  O_11 
REMARK    6  A    between atoms: C_10  and  C_12 
REMARK    7  A    between atoms: C_12  and  N_13 
REMARK    8  A    between atoms: N_13  and  S_14 
REMARK    9  A    between atoms: S_14  and  C_17 
ROOT
HETATM    1  C   UNK N   1      26.327  25.523  -8.032  0.00  0.00     0.166 C 
ENDROOT
BRANCH   1   2
HETATM    2  C   UNK N   1      25.914  24.071  -7.769  0.00  0.00     0.159 C 
BRANCH   2   3
HETATM    3  C   UNK N   1      27.073  23.086  -8.016  0.00  0.00     0.108 C 
BRANCH   3   4
HETATM    4  N   UNK N   1      26.602  21.947  -8.787  0.00  0.00    -0.423 N 
HETATM    5  H   UNK N   1      25.875  21.586  -9.405  0.00  0.00     0.150 HD
HETATM    6  H   UNK N   1      27.280  21.196  -8.655  0.00  0.00     0.150 HD
ENDBRANCH   3   4
BRANCH   3   7
HETATM    7  C   UNK N   1      27.633  22.555  -6.690  0.00  0.00     0.065 C 
BRANCH   7   8
HETATM    8  C   UNK N   1      29.119  22.397  -6.645  0.00  0.00    -0.056 A 
HETATM    9  C   UNK N   1      29.708  21.377  -5.884  0.00  0.00     0.007 A 
HETATM   10  C   UNK N   1      31.099  21.270  -5.815  0.00  0.00     0.001 A 
HETATM   11  C   UNK N   1      31.906  22.189  -6.491  0.00  0.00     0.000 A 
HETATM   12  C   UNK N   1      31.322  23.214  -7.240  0.00  0.00     0.001 A 
HETATM   13  C   UNK N   1      29.930  23.318  -7.318  0.00  0.00     0.007 A 
ENDBRANCH   7   8
ENDBRANCH   3   7
ENDBRANCH   2   3
BRANCH   2  14
HETATM   14  O   UNK N   1      24.844  23.774  -8.618  0.00  0.00    -0.392 OA
HETATM   15  H   UNK N   1      23.881  23.696  -8.524  0.00  0.00     0.210 HD
ENDBRANCH   2  14
ENDBRANCH   1   2
BRANCH   1  16
HETATM   16  N   UNK N   1      25.444  26.485  -7.385  0.00  0.00    -0.313 N 
HETATM   17  H   UNK N   1      24.538  26.789  -7.739  0.00  0.00     0.172 HD
BRANCH  16  18
HETATM   18  S   UNK N   1      26.203  27.041  -5.874  0.00  0.00     0.258 S 
HETATM   19  O   UNK N   1      25.036  27.656  -5.088  0.00  0.00    -0.201 OA
HETATM   20  O   UNK N   1      27.027  28.298  -6.209  0.00  0.00    -0.201 OA
BRANCH  18  21
HETATM   21  C   UNK N   1      27.103  25.900  -4.824  0.00  0.00     0.080 A 
HETATM   22  C   UNK N   1      26.385  24.965  -4.069  0.00  0.00     0.026 A 
HETATM   23  C   UNK N   1      27.053  24.011  -3.298  0.00  0.00     0.014 A 
HETATM   24  C   UNK N   1      28.448  23.981  -3.282  0.00  0.00    -0.026 A 
HETATM   25  C   UNK N   1      29.119  23.013  -2.531  0.00  0.00     0.012 A 
HETATM   26  C   UNK N   1      29.181  24.929  -4.035  0.00  0.00    -0.025 A 
HETATM   27  C   UNK N   1      30.517  22.979  -2.525  0.00  0.00     0.001 A 
HETATM   28  C   UNK N   1      31.245  23.918  -3.265  0.00  0.00     0.001 A 
HETATM   29  C   UNK N   1      30.579  24.891  -4.018  0.00  0.00     0.012 A 
HETATM   30  C   UNK N   1      28.504  25.884  -4.806  0.00  0.00     0.037 A 
ENDBRANCH  18  21
ENDBRANCH  16  18
ENDBRANCH   1  16
TORSDOF 9
ENDMDL
MODEL 9
REMARK VINA RESULT:      -7.0     22.006     23.849
REMARK  9 active torsions:
REMARK  status: ('A' for Active; 'I' for Inactive)
REMARK    1  A    between atoms: C_2  and  N_1 
REMARK    2  A    between atoms: C_2  and  C_3 
REMARK    3  A    between atoms: C_2  and  C_10 
REMARK    4  A    between atoms: C_3  and  C_4 
REMARK    5  A    between atoms: C_10  and  O_11 
REMARK    6  A    between atoms: C_10  and  C_12 
REMARK    7  A    between atoms: C_12  and  N_13 
REMARK    8  A    between atoms: N_13  and  S_14 
REMARK    9  A    between atoms: S_14  and  C_17 
ROOT
HETATM    1  C   UNK N   1      28.385  24.014  -9.055  0.00  0.00     0.166 C 
ENDROOT
BRANCH   1   2
HETATM    2  C   UNK N   1      28.473  25.301  -9.880  0.00  0.00     0.159 C 
BRANCH   2   3
HETATM    3  C   UNK N   1      29.025  26.480  -9.056  0.00  0.00     0.108 C 
BRANCH   3   4
HETATM    4  N   UNK N   1      30.389  26.777  -9.466  0.00  0.00    -0.423 N 
HETATM    5  H   UNK N   1      31.300  27.136  -9.177  0.00  0.00     0.150 HD
HETATM    6  H   UNK N   1      30.467  26.522 -10.450  0.00  0.00     0.150 HD
ENDBRANCH   3   4
BRANCH   3   7
HETATM    7  C   UNK N   1      29.049  26.139  -7.560  0.00  0.00     0.065 C 
BRANCH   7   8
HETATM    8  C   UNK N   1      28.878  27.305  -6.640  0.00  0.00    -0.056 A 
HETATM    9  C   UNK N   1      28.174  28.445  -7.051  0.00  0.00     0.007 A 
HETATM   10  C   UNK N   1      28.061  29.545  -6.197  0.00  0.00     0.001 A 
HETATM   11  C   UNK N   1      28.665  29.517  -4.937  0.00  0.00     0.000 A 
HETATM   12  C   UNK N   1      29.378  28.386  -4.528  0.00  0.00     0.001 A 
HETATM   13  C   UNK N   1      29.484  27.281  -5.379  0.00  0.00     0.007 A 
ENDBRANCH   7   8
ENDBRANCH   3   7
ENDBRANCH   2   3
BRANCH   2  14
HETATM   14  O   UNK N   1      27.187  25.599 -10.339  0.00  0.00    -0.392 OA
HETATM   15  H   UNK N   1      26.802  25.944 -11.160  0.00  0.00     0.210 HD
ENDBRANCH   2  14
ENDBRANCH   1   2
BRANCH   1  16
HETATM   16  N   UNK N   1      27.354  23.104  -9.538  0.00  0.00    -0.313 N 
HETATM   17  H   UNK N   1      27.336  22.662 -10.457  0.00  0.00     0.172 HD
BRANCH  16  18
HETATM   18  S   UNK N   1      26.129  22.889  -8.265  0.00  0.00     0.258 S 
HETATM   19  O   UNK N   1      26.264  21.410  -7.880  0.00  0.00    -0.201 OA
HETATM   20  O   UNK N   1      24.750  22.892  -8.948  0.00  0.00    -0.201 OA
BRANCH  18  21
HETATM   21  C   UNK N   1      26.155  23.903  -6.786  0.00  0.00     0.080 A 
HETATM   22  C   UNK N   1      26.844  23.439  -5.659  0.00  0.00     0.026 A 
HETATM   23  C   UNK N   1      26.950  24.232  -4.515  0.00  0.00     0.014 A 
HETATM   24  C   UNK N   1      26.372  25.501  -4.491  0.00  0.00    -0.026 A 
HETATM   25  C   UNK N   1      26.497  26.307  -3.356  0.00  0.00     0.012 A 
HETATM   26  C   UNK N   1      25.665  25.974  -5.622  0.00  0.00    -0.025 A 
HETATM   27  C   UNK N   1      25.925  27.583  -3.339  0.00  0.00     0.001 A 
HETATM   28  C   UNK N   1      25.222  28.051  -4.454  0.00  0.00     0.001 A 
HETATM   29  C   UNK N   1      25.091  27.249  -5.594  0.00  0.00     0.012 A 
HETATM   30  C   UNK N   1      25.562  25.172  -6.767  0.00  0.00     0.037 A 
ENDBRANCH  18  21
ENDBRANCH  16  18
ENDBRANCH   1  16
TORSDOF 9
ENDMDL
