REMARK  2 active torsions:
REMARK  status: ('A' for Active; 'I' for Inactive)
REMARK    1  A    between atoms: N_1  and  C_2 
REMARK    2  A    between atoms: N_1  and  C_8 
ROOT
HETATM    1  C   UNK N   1       0.319  -0.457  -0.000  0.00  0.00     0.062 A 
HETATM    2  C   UNK N   1      -0.437  -1.629  -0.000  0.00  0.00     0.120 A 
HETATM    3  C   UNK N   1       1.629  -0.831  -0.000  0.00  0.00     0.036 A 
HETATM    4  C   UNK N   1       2.802  -0.091  -0.000  0.00  0.00     0.019 A 
HETATM    5  C   UNK N   1       1.641  -2.191   0.000  0.00  0.00     0.117 A 
HETATM    6  N   UNK N   1       0.398  -2.701  -0.000  0.00  0.00    -0.349 N 
HETATM    7  N   UNK N   1       2.797  -2.901   0.000  0.00  0.00    -0.352 N 
ATOM      8  HN  UNK N   1       2.780  -3.921   0.000  1.00  0.00     0.166 HD
HETATM    9  C   UNK N   1       3.986  -2.224   0.000  0.00  0.00     0.090 A 
HETATM   10  C   UNK N   1       4.009  -0.809   0.000  0.00  0.00     0.018 A 
HETATM   11  H   UNK N   1       0.145  -3.653   0.000  0.00  0.00     0.167 HD
ENDROOT
BRANCH   1  12
HETATM   12  N   UNK N   1      -0.137   0.887  -0.000  0.00  0.00    -0.354 N 
HETATM   13  H   UNK N   1       0.544   1.598  -0.000  0.00  0.00     0.166 HD
BRANCH  12  14
HETATM   14  C   UNK N   1      -1.497   1.286  -0.000  0.00  0.00     0.032 A 
HETATM   15  C   UNK N   1      -2.540   0.348   0.000  0.00  0.00     0.029 A 
HETATM   16  C   UNK N   1      -3.870   0.769   0.000  0.00  0.00     0.002 A 
HETATM   17  C   UNK N   1      -4.166   2.134   0.000  0.00  0.00     0.000 A 
HETATM   18  C   UNK N   1      -3.132   3.075   0.000  0.00  0.00     0.002 A 
HETATM   19  C   UNK N   1      -1.801   2.651  -0.000  0.00  0.00     0.029 A 
ENDBRANCH  12  14
ENDBRANCH   1  12
TORSDOF 2
