MODEL 1
REMARK VINA RESULT:      -6.3      0.000      0.000
REMARK  2 active torsions:
REMARK  status: ('A' for Active; 'I' for Inactive)
REMARK    1  A    between atoms: N_1  and  C_2 
REMARK    2  A    between atoms: N_1  and  C_8 
ROOT
HETATM    1  C   UNK N   1      28.952  17.882   7.455  0.00  0.00     0.062 A 
HETATM    2  C   UNK N   1      28.381  18.163   8.696  0.00  0.00     0.120 A 
HETATM    3  C   UNK N   1      28.353  18.704   6.549  0.00  0.00     0.036 A 
HETATM    4  C   UNK N   1      28.526  18.856   5.181  0.00  0.00     0.019 A 
HETATM    5  C   UNK N   1      27.451  19.449   7.243  0.00  0.00     0.117 A 
HETATM    6  N   UNK N   1      27.448  19.140   8.550  0.00  0.00    -0.349 N 
HETATM    7  N   UNK N   1      26.671  20.381   6.640  0.00  0.00    -0.352 N 
ATOM      8  HN  UNK N   1      26.001  20.928   7.182  1.00  0.00     0.166 HD
HETATM    9  C   UNK N   1      26.798  20.574   5.291  0.00  0.00     0.090 A 
HETATM   10  C   UNK N   1      27.727  19.816   4.540  0.00  0.00     0.018 A 
HETATM   11  H   UNK N   1      26.887  19.538   9.255  0.00  0.00     0.167 HD
ENDROOT
BRANCH   1  12
HETATM   12  N   UNK N   1      29.963  16.936   7.142  0.00  0.00    -0.354 N 
HETATM   13  H   UNK N   1      29.677  16.016   6.942  0.00  0.00     0.166 HD
BRANCH  12  14
HETATM   14  C   UNK N   1      31.352  17.214   7.095  0.00  0.00     0.032 A 
HETATM   15  C   UNK N   1      32.080  17.132   5.899  0.00  0.00     0.029 A 
HETATM   16  C   UNK N   1      33.447  17.410   5.881  0.00  0.00     0.002 A 
HETATM   17  C   UNK N   1      34.096  17.773   7.063  0.00  0.00     0.000 A 
HETATM   18  C   UNK N   1      33.378  17.857   8.260  0.00  0.00     0.002 A 
HETATM   19  C   UNK N   1      32.009  17.578   8.275  0.00  0.00     0.029 A 
ENDBRANCH  12  14
ENDBRANCH   1  12
TORSDOF 2
ENDMDL
MODEL 2
REMARK VINA RESULT:      -6.2      7.954     10.647
REMARK  2 active torsions:
REMARK  status: ('A' for Active; 'I' for Inactive)
REMARK    1  A    between atoms: N_1  and  C_2 
REMARK    2  A    between atoms: N_1  and  C_8 
ROOT
HETATM    1  C   UNK N   1      36.032  13.126  13.234  0.00  0.00     0.062 A 
HETATM    2  C   UNK N   1      35.368  11.937  12.934  0.00  0.00     0.120 A 
HETATM    3  C   UNK N   1      35.604  14.056  12.335  0.00  0.00     0.036 A 
HETATM    4  C   UNK N   1      35.927  15.394  12.164  0.00  0.00     0.019 A 
HETATM    5  C   UNK N   1      34.710  13.426  11.527  0.00  0.00     0.117 A 
HETATM    6  N   UNK N   1      34.548  12.137  11.870  0.00  0.00    -0.349 N 
HETATM    7  N   UNK N   1      34.083  14.068  10.509  0.00  0.00    -0.352 N 
ATOM      8  HN  UNK N   1      33.416  13.574   9.916  1.00  0.00     0.166 HD
HETATM    9  C   UNK N   1      34.362  15.390  10.292  0.00  0.00     0.090 A 
HETATM   10  C   UNK N   1      35.288  16.075  11.115  0.00  0.00     0.018 A 
HETATM   11  H   UNK N   1      33.958  11.476  11.439  0.00  0.00     0.167 HD
ENDROOT
BRANCH   1  12
HETATM   12  N   UNK N   1      36.978  13.373  14.263  0.00  0.00    -0.354 N 
HETATM   13  H   UNK N   1      37.907  13.090  14.103  0.00  0.00     0.166 HD
BRANCH  12  14
HETATM   14  C   UNK N   1      36.689  13.995  15.503  0.00  0.00     0.032 A 
HETATM   15  C   UNK N   1      35.781  13.436  16.415  0.00  0.00     0.029 A 
HETATM   16  C   UNK N   1      35.516  14.070  17.628  0.00  0.00     0.002 A 
HETATM   17  C   UNK N   1      36.158  15.271  17.939  0.00  0.00     0.000 A 
HETATM   18  C   UNK N   1      37.064  15.835  17.036  0.00  0.00     0.002 A 
HETATM   19  C   UNK N   1      37.328  15.198  15.821  0.00  0.00     0.029 A 
ENDBRANCH  12  14
ENDBRANCH   1  12
TORSDOF 2
ENDMDL
MODEL 3
REMARK VINA RESULT:      -6.2      1.517      5.194
REMARK  2 active torsions:
REMARK  status: ('A' for Active; 'I' for Inactive)
REMARK    1  A    between atoms: N_1  and  C_2 
REMARK    2  A    between atoms: N_1  and  C_8 
ROOT
HETATM    1  C   UNK N   1      28.728  17.905   8.042  0.00  0.00     0.062 A 
HETATM    2  C   UNK N   1      28.740  18.333   9.369  0.00  0.00     0.120 A 
HETATM    3  C   UNK N   1      30.016  17.610   7.710  0.00  0.00     0.036 A 
HETATM    4  C   UNK N   1      30.585  17.146   6.533  0.00  0.00     0.019 A 
HETATM    5  C   UNK N   1      30.766  17.859   8.817  0.00  0.00     0.117 A 
HETATM    6  N   UNK N   1      30.014  18.299   9.840  0.00  0.00    -0.349 N 
HETATM    7  N   UNK N   1      32.109  17.669   8.836  0.00  0.00    -0.352 N 
ATOM      8  HN  UNK N   1      32.649  17.863   9.679  1.00  0.00     0.166 HD
HETATM    9  C   UNK N   1      32.725  17.212   7.703  0.00  0.00     0.090 A 
HETATM   10  C   UNK N   1      31.975  16.943   6.533  0.00  0.00     0.018 A 
HETATM   11  H   UNK N   1      30.322  18.546  10.742  0.00  0.00     0.167 HD
ENDROOT
BRANCH   1  12
HETATM   12  N   UNK N   1      27.620  17.783   7.164  0.00  0.00    -0.354 N 
HETATM   13  H   UNK N   1      27.014  17.019   7.300  0.00  0.00     0.166 HD
BRANCH  12  14
HETATM   14  C   UNK N   1      27.317  18.675   6.105  0.00  0.00     0.032 A 
HETATM   15  C   UNK N   1      26.932  18.211   4.838  0.00  0.00     0.029 A 
HETATM   16  C   UNK N   1      26.639  19.112   3.814  0.00  0.00     0.002 A 
HETATM   17  C   UNK N   1      26.731  20.485   4.050  0.00  0.00     0.000 A 
HETATM   18  C   UNK N   1      27.114  20.955   5.310  0.00  0.00     0.002 A 
HETATM   19  C   UNK N   1      27.407  20.051   6.334  0.00  0.00     0.029 A 
ENDBRANCH  12  14
ENDBRANCH   1  12
TORSDOF 2
ENDMDL
MODEL 4
REMARK VINA RESULT:      -5.8      7.790     10.302
REMARK  2 active torsions:
REMARK  status: ('A' for Active; 'I' for Inactive)
REMARK    1  A    between atoms: N_1  and  C_2 
REMARK    2  A    between atoms: N_1  and  C_8 
ROOT
HETATM    1  C   UNK N   1      23.364  13.274   8.951  0.00  0.00     0.062 A 
HETATM    2  C   UNK N   1      24.752  13.394   9.020  0.00  0.00     0.120 A 
HETATM    3  C   UNK N   1      22.950  12.779  10.151  0.00  0.00     0.036 A 
HETATM    4  C   UNK N   1      21.690  12.464  10.636  0.00  0.00     0.019 A 
HETATM    5  C   UNK N   1      24.069  12.612  10.905  0.00  0.00     0.117 A 
HETATM    6  N   UNK N   1      25.178  12.979  10.241  0.00  0.00    -0.349 N 
HETATM    7  N   UNK N   1      24.018  12.129  12.172  0.00  0.00    -0.352 N 
ATOM      8  HN  UNK N   1      24.872  12.013  12.718  1.00  0.00     0.166 HD
HETATM    9  C   UNK N   1      22.801  11.801  12.704  0.00  0.00     0.090 A 
HETATM   10  C   UNK N   1      21.617  11.962  11.946  0.00  0.00     0.018 A 
HETATM   11  H   UNK N   1      26.106  12.952  10.571  0.00  0.00     0.167 HD
ENDROOT
BRANCH   1  12
HETATM   12  N   UNK N   1      22.504  13.592   7.868  0.00  0.00    -0.354 N 
HETATM   13  H   UNK N   1      22.292  12.873   7.230  0.00  0.00     0.166 HD
BRANCH  12  14
HETATM   14  C   UNK N   1      21.925  14.864   7.634  0.00  0.00     0.032 A 
HETATM   15  C   UNK N   1      20.896  15.366   8.444  0.00  0.00     0.029 A 
HETATM   16  C   UNK N   1      20.344  16.622   8.190  0.00  0.00     0.002 A 
HETATM   17  C   UNK N   1      20.820  17.386   7.121  0.00  0.00     0.000 A 
HETATM   18  C   UNK N   1      21.845  16.892   6.309  0.00  0.00     0.002 A 
HETATM   19  C   UNK N   1      22.396  15.635   6.566  0.00  0.00     0.029 A 
ENDBRANCH  12  14
ENDBRANCH   1  12
TORSDOF 2
ENDMDL
MODEL 5
REMARK VINA RESULT:      -5.7      1.401      2.161
REMARK  2 active torsions:
REMARK  status: ('A' for Active; 'I' for Inactive)
REMARK    1  A    between atoms: N_1  and  C_2 
REMARK    2  A    between atoms: N_1  and  C_8 
ROOT
HETATM    1  C   UNK N   1      29.068  17.594   5.528  0.00  0.00     0.062 A 
HETATM    2  C   UNK N   1      28.915  17.290   4.176  0.00  0.00     0.120 A 
HETATM    3  C   UNK N   1      28.291  18.684   5.780  0.00  0.00     0.036 A 
HETATM    4  C   UNK N   1      28.062  19.409   6.940  0.00  0.00     0.019 A 
HETATM    5  C   UNK N   1      27.697  19.013   4.602  0.00  0.00     0.117 A 
HETATM    6  N   UNK N   1      28.059  18.182   3.611  0.00  0.00    -0.349 N 
HETATM    7  N   UNK N   1      26.847  20.065   4.493  0.00  0.00    -0.352 N 
ATOM      8  HN  UNK N   1      26.413  20.292   3.598  1.00  0.00     0.166 HD
HETATM    9  C   UNK N   1      26.583  20.817   5.606  0.00  0.00     0.090 A 
HETATM   10  C   UNK N   1      27.185  20.502   6.847  0.00  0.00     0.018 A 
HETATM   11  H   UNK N   1      27.765  18.212   2.671  0.00  0.00     0.167 HD
ENDROOT
BRANCH   1  12
HETATM   12  N   UNK N   1      29.864  16.929   6.497  0.00  0.00    -0.354 N 
HETATM   13  H   UNK N   1      29.441  16.204   7.013  0.00  0.00     0.166 HD
BRANCH  12  14
HETATM   14  C   UNK N   1      31.220  17.226   6.780  0.00  0.00     0.032 A 
HETATM   15  C   UNK N   1      32.210  17.167   5.788  0.00  0.00     0.029 A 
HETATM   16  C   UNK N   1      33.538  17.465   6.095  0.00  0.00     0.002 A 
HETATM   17  C   UNK N   1      33.885  17.825   7.399  0.00  0.00     0.000 A 
HETATM   18  C   UNK N   1      32.904  17.886   8.393  0.00  0.00     0.002 A 
HETATM   19  C   UNK N   1      31.575  17.587   8.084  0.00  0.00     0.029 A 
ENDBRANCH  12  14
ENDBRANCH   1  12
TORSDOF 2
ENDMDL
MODEL 6
REMARK VINA RESULT:      -5.7      2.896      6.684
REMARK  2 active torsions:
REMARK  status: ('A' for Active; 'I' for Inactive)
REMARK    1  A    between atoms: N_1  and  C_2 
REMARK    2  A    between atoms: N_1  and  C_8 
ROOT
HETATM    1  C   UNK N   1      33.066  17.185   8.188  0.00  0.00     0.062 A 
HETATM    2  C   UNK N   1      33.844  18.315   7.935  0.00  0.00     0.120 A 
HETATM    3  C   UNK N   1      33.666  16.512   9.208  0.00  0.00     0.036 A 
HETATM    4  C   UNK N   1      33.333  15.334   9.862  0.00  0.00     0.019 A 
HETATM    5  C   UNK N   1      34.771  17.230   9.547  0.00  0.00     0.117 A 
HETATM    6  N   UNK N   1      34.902  18.331   8.788  0.00  0.00    -0.349 N 
HETATM    7  N   UNK N   1      35.608  16.838  10.539  0.00  0.00    -0.352 N 
ATOM      8  HN  UNK N   1      36.431  17.394  10.775  1.00  0.00     0.166 HD
HETATM    9  C   UNK N   1      35.330  15.684  11.219  0.00  0.00     0.090 A 
HETATM   10  C   UNK N   1      34.189  14.913  10.893  0.00  0.00     0.018 A 
HETATM   11  H   UNK N   1      35.616  19.007   8.839  0.00  0.00     0.167 HD
ENDROOT
BRANCH   1  12
HETATM   12  N   UNK N   1      31.874  16.772   7.538  0.00  0.00    -0.354 N 
HETATM   13  H   UNK N   1      31.951  16.076   6.846  0.00  0.00     0.166 HD
BRANCH  12  14
HETATM   14  C   UNK N   1      30.580  17.282   7.808  0.00  0.00     0.032 A 
HETATM   15  C   UNK N   1      29.523  17.131   6.898  0.00  0.00     0.029 A 
HETATM   16  C   UNK N   1      28.259  17.643   7.190  0.00  0.00     0.002 A 
HETATM   17  C   UNK N   1      28.043  18.313   8.397  0.00  0.00     0.000 A 
HETATM   18  C   UNK N   1      29.091  18.468   9.309  0.00  0.00     0.002 A 
HETATM   19  C   UNK N   1      30.356  17.954   9.015  0.00  0.00     0.029 A 
ENDBRANCH  12  14
ENDBRANCH   1  12
TORSDOF 2
ENDMDL
MODEL 7
REMARK VINA RESULT:      -5.6     10.992     14.159
REMARK  2 active torsions:
REMARK  status: ('A' for Active; 'I' for Inactive)
REMARK    1  A    between atoms: N_1  and  C_2 
REMARK    2  A    between atoms: N_1  and  C_8 
ROOT
HETATM    1  C   UNK N   1      27.959  23.642  -5.088  0.00  0.00     0.062 A 
HETATM    2  C   UNK N   1      28.502  23.498  -6.365  0.00  0.00     0.120 A 
HETATM    3  C   UNK N   1      28.950  23.349  -4.201  0.00  0.00     0.036 A 
HETATM    4  C   UNK N   1      28.974  23.330  -2.814  0.00  0.00     0.019 A 
HETATM    5  C   UNK N   1      30.049  23.040  -4.940  0.00  0.00     0.117 A 
HETATM    6  N   UNK N   1      29.804  23.123  -6.258  0.00  0.00    -0.349 N 
HETATM    7  N   UNK N   1      31.229  22.696  -4.366  0.00  0.00    -0.352 N 
ATOM      8  HN  UNK N   1      32.040  22.468  -4.941  1.00  0.00     0.166 HD
HETATM    9  C   UNK N   1      31.312  22.659  -3.000  0.00  0.00     0.090 A 
HETATM   10  C   UNK N   1      30.187  22.975  -2.202  0.00  0.00     0.018 A 
HETATM   11  H   UNK N   1      30.435  22.948  -6.993  0.00  0.00     0.167 HD
ENDROOT
BRANCH   1  12
HETATM   12  N   UNK N   1      26.638  24.018  -4.729  0.00  0.00    -0.354 N 
HETATM   13  H   UNK N   1      26.001  23.297  -4.520  0.00  0.00     0.166 HD
BRANCH  12  14
HETATM   14  C   UNK N   1      26.164  25.352  -4.648  0.00  0.00     0.032 A 
HETATM   15  C   UNK N   1      25.374  25.916  -5.660  0.00  0.00     0.029 A 
HETATM   16  C   UNK N   1      24.921  27.231  -5.555  0.00  0.00     0.002 A 
HETATM   17  C   UNK N   1      25.257  27.992  -4.433  0.00  0.00     0.000 A 
HETATM   18  C   UNK N   1      26.044  27.437  -3.419  0.00  0.00     0.002 A 
HETATM   19  C   UNK N   1      26.496  26.120  -3.528  0.00  0.00     0.029 A 
ENDBRANCH  12  14
ENDBRANCH   1  12
TORSDOF 2
ENDMDL
MODEL 8
REMARK VINA RESULT:      -5.6      1.711      5.924
REMARK  2 active torsions:
REMARK  status: ('A' for Active; 'I' for Inactive)
REMARK    1  A    between atoms: N_1  and  C_2 
REMARK    2  A    between atoms: N_1  and  C_8 
ROOT
HETATM    1  C   UNK N   1      30.714  17.193   5.417  0.00  0.00     0.062 A 
HETATM    2  C   UNK N   1      31.368  17.012   4.198  0.00  0.00     0.120 A 
HETATM    3  C   UNK N   1      31.681  17.331   6.367  0.00  0.00     0.036 A 
HETATM    4  C   UNK N   1      31.608  17.532   7.737  0.00  0.00     0.019 A 
HETATM    5  C   UNK N   1      32.873  17.232   5.721  0.00  0.00     0.117 A 
HETATM    6  N   UNK N   1      32.711  17.039   4.401  0.00  0.00    -0.349 N 
HETATM    7  N   UNK N   1      34.057  17.326   6.376  0.00  0.00    -0.352 N 
ATOM      8  HN  UNK N   1      34.939  17.249   5.868  1.00  0.00     0.166 HD
HETATM    9  C   UNK N   1      34.048  17.525   7.729  0.00  0.00     0.090 A 
HETATM   10  C   UNK N   1      32.824  17.632   8.433  0.00  0.00     0.018 A 
HETATM   11  H   UNK N   1      33.418  16.937   3.723  0.00  0.00     0.167 HD
ENDROOT
BRANCH   1  12
HETATM   12  N   UNK N   1      29.319  17.235   5.672  0.00  0.00    -0.354 N 
HETATM   13  H   UNK N   1      28.864  16.380   5.851  0.00  0.00     0.166 HD
BRANCH  12  14
HETATM   14  C   UNK N   1      28.528  18.411   5.690  0.00  0.00     0.032 A 
HETATM   15  C   UNK N   1      28.156  19.030   6.892  0.00  0.00     0.029 A 
HETATM   16  C   UNK N   1      27.377  20.187   6.880  0.00  0.00     0.002 A 
HETATM   17  C   UNK N   1      26.964  20.734   5.662  0.00  0.00     0.000 A 
HETATM   18  C   UNK N   1      27.331  20.122   4.460  0.00  0.00     0.002 A 
HETATM   19  C   UNK N   1      28.111  18.963   4.475  0.00  0.00     0.029 A 
ENDBRANCH  12  14
ENDBRANCH   1  12
TORSDOF 2
ENDMDL
MODEL 9
REMARK VINA RESULT:      -5.6      9.085     11.794
REMARK  2 active torsions:
REMARK  status: ('A' for Active; 'I' for Inactive)
REMARK    1  A    between atoms: N_1  and  C_2 
REMARK    2  A    between atoms: N_1  and  C_8 
ROOT
HETATM    1  C   UNK N   1      35.965  12.377  13.554  0.00  0.00     0.062 A 
HETATM    2  C   UNK N   1      37.213  11.759  13.470  0.00  0.00     0.120 A 
HETATM    3  C   UNK N   1      35.924  13.319  12.570  0.00  0.00     0.036 A 
HETATM    4  C   UNK N   1      34.939  14.220  12.193  0.00  0.00     0.019 A 
HETATM    5  C   UNK N   1      37.119  13.255  11.925  0.00  0.00     0.117 A 
HETATM    6  N   UNK N   1      37.921  12.315  12.453  0.00  0.00    -0.349 N 
HETATM    7  N   UNK N   1      37.418  14.066  10.879  0.00  0.00    -0.352 N 
ATOM      8  HN  UNK N   1      38.322  13.998  10.411  1.00  0.00     0.166 HD
HETATM    9  C   UNK N   1      36.484  14.975  10.463  0.00  0.00     0.090 A 
HETATM   10  C   UNK N   1      35.230  15.068  11.112  0.00  0.00     0.018 A 
HETATM   11  H   UNK N   1      38.832  12.078  12.162  0.00  0.00     0.167 HD
ENDROOT
BRANCH   1  12
HETATM   12  N   UNK N   1      34.910  12.115  14.465  0.00  0.00    -0.354 N 
HETATM   13  H   UNK N   1      34.023  11.912  14.088  0.00  0.00     0.166 HD
BRANCH  12  14
HETATM   14  C   UNK N   1      35.032  12.122  15.877  0.00  0.00     0.032 A 
HETATM   15  C   UNK N   1      35.012  13.316  16.612  0.00  0.00     0.029 A 
HETATM   16  C   UNK N   1      35.134  13.293  18.002  0.00  0.00     0.002 A 
HETATM   17  C   UNK N   1      35.277  12.073  18.666  0.00  0.00     0.000 A 
HETATM   18  C   UNK N   1      35.297  10.878  17.940  0.00  0.00     0.002 A 
HETATM   19  C   UNK N   1      35.175  10.904  16.549  0.00  0.00     0.029 A 
ENDBRANCH  12  14
ENDBRANCH   1  12
TORSDOF 2
ENDMDL
