MODEL 1
REMARK VINA RESULT:      -7.0      0.000      0.000
REMARK  3 active torsions:
REMARK  status: ('A' for Active; 'I' for Inactive)
REMARK    1  A    between atoms: O_2  and  C_3 
REMARK    2  A    between atoms: C_8  and  C_9 
REMARK    3  A    between atoms: C_9  and  C_10 
ROOT
HETATM    1  C   UNK N   1      28.860  17.649   7.094  0.00  0.00    -0.025 A 
HETATM    2  C   UNK N   1      28.223  18.670   6.449  0.00  0.00     0.016 A 
HETATM    3  C   UNK N   1      28.594  17.821   8.456  0.00  0.00     0.098 A 
HETATM    4  N   UNK N   1      27.813  18.921   8.630  0.00  0.00    -0.351 N 
HETATM    5  C   UNK N   1      27.604  19.416   7.398  0.00  0.00     0.115 A 
HETATM    6  N   UNK N   1      26.874  20.518   7.089  0.00  0.00    -0.352 N 
ATOM      7  HN  UNK N   1      26.419  21.061   7.823  1.00  0.00     0.166 HD
HETATM    8  C   UNK N   1      26.760  20.888   5.775  0.00  0.00     0.089 A 
HETATM    9  C   UNK N   1      27.392  20.134   4.759  0.00  0.00     0.018 A 
HETATM   10  C   UNK N   1      28.142  18.997   5.100  0.00  0.00     0.017 A 
HETATM   11  H   UNK N   1      27.473  19.279   9.481  0.00  0.00     0.166 HD
ENDROOT
BRANCH   1  12
HETATM   12  C   UNK N   1      29.663  16.600   6.383  0.00  0.00     0.079 C 
BRANCH  12  13
HETATM   13  C   UNK N   1      30.930  16.956   5.669  0.00  0.00    -0.051 A 
HETATM   14  C   UNK N   1      31.039  17.042   4.274  0.00  0.00     0.007 A 
HETATM   15  C   UNK N   1      32.263  17.382   3.686  0.00  0.00     0.003 A 
HETATM   16  C   UNK N   1      33.379  17.635   4.491  0.00  0.00     0.037 A 
HETATM   17  C   UNK N   1      33.274  17.549   5.890  0.00  0.00     0.068 A 
HETATM   18  C   UNK N   1      32.050  17.210   6.463  0.00  0.00     0.044 A 
BRANCH  17  19
HETATM   19  O   UNK N   1      34.328  17.785   6.706  0.00  0.00    -0.356 OA
HETATM   20  C   UNK N   1      34.197  18.233   8.001  0.00  0.00     0.210 C 
ENDBRANCH  17  19
ENDBRANCH  12  13
ENDBRANCH   1  12
TORSDOF 3
ENDMDL
MODEL 2
REMARK VINA RESULT:      -6.5      1.296      2.083
REMARK  3 active torsions:
REMARK  status: ('A' for Active; 'I' for Inactive)
REMARK    1  A    between atoms: O_2  and  C_3 
REMARK    2  A    between atoms: C_8  and  C_9 
REMARK    3  A    between atoms: C_9  and  C_10 
ROOT
HETATM    1  C   UNK N   1      29.062  17.783   7.432  0.00  0.00    -0.025 A 
HETATM    2  C   UNK N   1      28.444  18.629   6.555  0.00  0.00     0.016 A 
HETATM    3  C   UNK N   1      28.506  18.048   8.687  0.00  0.00     0.098 A 
HETATM    4  N   UNK N   1      27.574  19.032   8.572  0.00  0.00    -0.351 N 
HETATM    5  C   UNK N   1      27.556  19.365   7.270  0.00  0.00     0.115 A 
HETATM    6  N   UNK N   1      26.771  20.310   6.694  0.00  0.00    -0.352 N 
ATOM      7  HN  UNK N   1      26.111  20.850   7.255  1.00  0.00     0.166 HD
HETATM    8  C   UNK N   1      26.879  20.526   5.345  0.00  0.00     0.089 A 
HETATM    9  C   UNK N   1      27.793  19.777   4.568  0.00  0.00     0.018 A 
HETATM   10  C   UNK N   1      28.596  18.804   5.184  0.00  0.00     0.017 A 
HETATM   11  H   UNK N   1      27.026  19.419   9.293  0.00  0.00     0.166 HD
ENDROOT
BRANCH   1  12
HETATM   12  C   UNK N   1      30.117  16.800   7.021  0.00  0.00     0.079 C 
BRANCH  12  13
HETATM   13  C   UNK N   1      31.570  17.110   7.212  0.00  0.00    -0.051 A 
HETATM   14  C   UNK N   1      32.062  17.941   8.229  0.00  0.00     0.007 A 
HETATM   15  C   UNK N   1      33.437  18.178   8.336  0.00  0.00     0.003 A 
HETATM   16  C   UNK N   1      34.322  17.586   7.428  0.00  0.00     0.037 A 
HETATM   17  C   UNK N   1      33.833  16.753   6.407  0.00  0.00     0.068 A 
HETATM   18  C   UNK N   1      32.462  16.525   6.311  0.00  0.00     0.044 A 
BRANCH  17  19
HETATM   19  O   UNK N   1      34.653  16.161   5.508  0.00  0.00    -0.356 OA
HETATM   20  C   UNK N   1      35.434  15.067   5.801  0.00  0.00     0.210 C 
ENDBRANCH  17  19
ENDBRANCH  12  13
ENDBRANCH   1  12
TORSDOF 3
ENDMDL
MODEL 3
REMARK VINA RESULT:      -6.4      8.659     11.044
REMARK  3 active torsions:
REMARK  status: ('A' for Active; 'I' for Inactive)
REMARK    1  A    between atoms: O_2  and  C_3 
REMARK    2  A    between atoms: C_8  and  C_9 
REMARK    3  A    between atoms: C_9  and  C_10 
ROOT
HETATM    1  C   UNK N   1      23.412  13.161   8.946  0.00  0.00    -0.025 A 
HETATM    2  C   UNK N   1      23.016  12.695  10.167  0.00  0.00     0.016 A 
HETATM    3  C   UNK N   1      24.793  13.357   9.032  0.00  0.00     0.098 A 
HETATM    4  N   UNK N   1      25.224  13.016  10.276  0.00  0.00    -0.351 N 
HETATM    5  C   UNK N   1      24.126  12.619  10.943  0.00  0.00     0.115 A 
HETATM    6  N   UNK N   1      24.081  12.188  12.230  0.00  0.00    -0.352 N 
ATOM      7  HN  UNK N   1      24.931  12.141  12.791  1.00  0.00     0.166 HD
HETATM    8  C   UNK N   1      22.873  11.818  12.760  0.00  0.00     0.089 A 
HETATM    9  C   UNK N   1      21.695  11.884  11.981  0.00  0.00     0.018 A 
HETATM   10  C   UNK N   1      21.764  12.333  10.652  0.00  0.00     0.017 A 
HETATM   11  H   UNK N   1      26.146  13.054  10.617  0.00  0.00     0.166 HD
ENDROOT
BRANCH   1  12
HETATM   12  C   UNK N   1      22.465  13.384   7.804  0.00  0.00     0.079 C 
BRANCH  12  13
HETATM   13  C   UNK N   1      21.744  14.687   7.647  0.00  0.00    -0.051 A 
HETATM   14  C   UNK N   1      22.202  15.737   6.837  0.00  0.00     0.007 A 
HETATM   15  C   UNK N   1      21.466  16.924   6.746  0.00  0.00     0.003 A 
HETATM   16  C   UNK N   1      20.273  17.064   7.464  0.00  0.00     0.037 A 
HETATM   17  C   UNK N   1      19.811  16.014   8.277  0.00  0.00     0.068 A 
HETATM   18  C   UNK N   1      20.553  14.838   8.358  0.00  0.00     0.044 A 
BRANCH  17  19
HETATM   19  O   UNK N   1      18.663  16.107   8.988  0.00  0.00    -0.356 OA
HETATM   20  C   UNK N   1      18.089  17.306   9.344  0.00  0.00     0.210 C 
ENDBRANCH  17  19
ENDBRANCH  12  13
ENDBRANCH   1  12
TORSDOF 3
ENDMDL
MODEL 4
REMARK VINA RESULT:      -6.3      2.868      5.909
REMARK  3 active torsions:
REMARK  status: ('A' for Active; 'I' for Inactive)
REMARK    1  A    between atoms: O_2  and  C_3 
REMARK    2  A    between atoms: C_8  and  C_9 
REMARK    3  A    between atoms: C_9  and  C_10 
ROOT
HETATM    1  C   UNK N   1      30.040  17.326   7.305  0.00  0.00    -0.025 A 
HETATM    2  C   UNK N   1      31.266  17.302   6.702  0.00  0.00     0.016 A 
HETATM    3  C   UNK N   1      30.282  17.303   8.682  0.00  0.00     0.098 A 
HETATM    4  N   UNK N   1      31.623  17.266   8.907  0.00  0.00    -0.351 N 
HETATM    5  C   UNK N   1      32.195  17.266   7.690  0.00  0.00     0.115 A 
HETATM    6  N   UNK N   1      33.527  17.235   7.429  0.00  0.00    -0.352 N 
ATOM      7  HN  UNK N   1      34.204  17.208   8.191  1.00  0.00     0.166 HD
HETATM    8  C   UNK N   1      33.944  17.240   6.124  0.00  0.00     0.089 A 
HETATM    9  C   UNK N   1      33.004  17.277   5.068  0.00  0.00     0.018 A 
HETATM   10  C   UNK N   1      31.631  17.309   5.361  0.00  0.00     0.017 A 
HETATM   11  H   UNK N   1      32.079  17.244   9.778  0.00  0.00     0.166 HD
ENDROOT
BRANCH   1  12
HETATM   12  C   UNK N   1      28.749  17.369   6.543  0.00  0.00     0.079 C 
BRANCH  12  13
HETATM   13  C   UNK N   1      28.088  18.674   6.225  0.00  0.00    -0.051 A 
HETATM   14  C   UNK N   1      27.809  19.659   7.184  0.00  0.00     0.007 A 
HETATM   15  C   UNK N   1      27.187  20.853   6.802  0.00  0.00     0.003 A 
HETATM   16  C   UNK N   1      26.843  21.065   5.462  0.00  0.00     0.037 A 
HETATM   17  C   UNK N   1      27.121  20.080   4.498  0.00  0.00     0.068 A 
HETATM   18  C   UNK N   1      27.740  18.896   4.892  0.00  0.00     0.044 A 
BRANCH  17  19
HETATM   19  O   UNK N   1      26.805  20.243   3.192  0.00  0.00    -0.356 OA
HETATM   20  C   UNK N   1      25.523  20.471   2.746  0.00  0.00     0.210 C 
ENDBRANCH  17  19
ENDBRANCH  12  13
ENDBRANCH   1  12
TORSDOF 3
ENDMDL
MODEL 5
REMARK VINA RESULT:      -6.2      8.198     10.705
REMARK  3 active torsions:
REMARK  status: ('A' for Active; 'I' for Inactive)
REMARK    1  A    between atoms: O_2  and  C_3 
REMARK    2  A    between atoms: C_8  and  C_9 
REMARK    3  A    between atoms: C_9  and  C_10 
ROOT
HETATM    1  C   UNK N   1      22.882  13.357   8.546  0.00  0.00    -0.025 A 
HETATM    2  C   UNK N   1      22.855  12.866   9.820  0.00  0.00     0.016 A 
HETATM    3  C   UNK N   1      24.230  13.446   8.190  0.00  0.00     0.098 A 
HETATM    4  N   UNK N   1      25.003  13.019   9.225  0.00  0.00    -0.351 N 
HETATM    5  C   UNK N   1      24.143  12.673  10.199  0.00  0.00     0.115 A 
HETATM    6  N   UNK N   1      24.471  12.189  11.424  0.00  0.00    -0.352 N 
ATOM      7  HN  UNK N   1      25.449  12.053  11.684  1.00  0.00     0.166 HD
HETATM    8  C   UNK N   1      23.467  11.885  12.305  0.00  0.00     0.089 A 
HETATM    9  C   UNK N   1      22.113  12.073  11.944  0.00  0.00     0.018 A 
HETATM   10  C   UNK N   1      21.795  12.576  10.672  0.00  0.00     0.017 A 
HETATM   11  H   UNK N   1      25.985  12.972   9.253  0.00  0.00     0.166 HD
ENDROOT
BRANCH   1  12
HETATM   12  C   UNK N   1      21.645  13.701   7.770  0.00  0.00     0.079 C 
BRANCH  12  13
HETATM   13  C   UNK N   1      20.992  15.041   7.920  0.00  0.00    -0.051 A 
HETATM   14  C   UNK N   1      20.012  15.325   8.881  0.00  0.00     0.007 A 
HETATM   15  C   UNK N   1      19.452  16.606   8.954  0.00  0.00     0.003 A 
HETATM   16  C   UNK N   1      19.871  17.604   8.066  0.00  0.00     0.037 A 
HETATM   17  C   UNK N   1      20.853  17.322   7.101  0.00  0.00     0.068 A 
HETATM   18  C   UNK N   1      21.403  16.043   7.040  0.00  0.00     0.044 A 
BRANCH  17  19
HETATM   19  O   UNK N   1      21.288  18.257   6.223  0.00  0.00    -0.356 OA
HETATM   20  C   UNK N   1      22.474  18.154   5.534  0.00  0.00     0.210 C 
ENDBRANCH  17  19
ENDBRANCH  12  13
ENDBRANCH   1  12
TORSDOF 3
ENDMDL
MODEL 6
REMARK VINA RESULT:      -6.1     11.375     13.904
REMARK  3 active torsions:
REMARK  status: ('A' for Active; 'I' for Inactive)
REMARK    1  A    between atoms: O_2  and  C_3 
REMARK    2  A    between atoms: C_8  and  C_9 
REMARK    3  A    between atoms: C_9  and  C_10 
ROOT
HETATM    1  C   UNK N   1      27.904  23.570  -5.061  0.00  0.00    -0.025 A 
HETATM    2  C   UNK N   1      29.010  23.343  -4.292  0.00  0.00     0.016 A 
HETATM    3  C   UNK N   1      28.298  23.350  -6.384  0.00  0.00     0.098 A 
HETATM    4  N   UNK N   1      29.612  22.999  -6.415  0.00  0.00    -0.351 N 
HETATM    5  C   UNK N   1      30.018  23.003  -5.133  0.00  0.00     0.115 A 
HETATM    6  N   UNK N   1      31.265  22.710  -4.686  0.00  0.00    -0.352 N 
ATOM      7  HN  UNK N   1      32.005  22.457  -5.341  1.00  0.00     0.166 HD
HETATM    8  C   UNK N   1      31.513  22.762  -3.340  0.00  0.00     0.089 A 
HETATM    9  C   UNK N   1      30.486  23.113  -2.433  0.00  0.00     0.018 A 
HETATM   10  C   UNK N   1      29.203  23.412  -2.917  0.00  0.00     0.017 A 
HETATM   11  H   UNK N   1      30.152  22.786  -7.210  0.00  0.00     0.166 HD
ENDROOT
BRANCH   1  12
HETATM   12  C   UNK N   1      26.575  23.972  -4.494  0.00  0.00     0.079 C 
BRANCH  12  13
HETATM   13  C   UNK N   1      26.125  25.400  -4.531  0.00  0.00    -0.051 A 
HETATM   14  C   UNK N   1      25.298  25.929  -5.533  0.00  0.00     0.007 A 
HETATM   15  C   UNK N   1      24.923  27.277  -5.493  0.00  0.00     0.003 A 
HETATM   16  C   UNK N   1      25.374  28.097  -4.452  0.00  0.00     0.037 A 
HETATM   17  C   UNK N   1      26.202  27.570  -3.446  0.00  0.00     0.068 A 
HETATM   18  C   UNK N   1      26.568  26.227  -3.498  0.00  0.00     0.044 A 
BRANCH  17  19
HETATM   19  O   UNK N   1      26.660  28.327  -2.421  0.00  0.00    -0.356 OA
HETATM   20  C   UNK N   1      27.593  29.326  -2.577  0.00  0.00     0.210 C 
ENDBRANCH  17  19
ENDBRANCH  12  13
ENDBRANCH   1  12
TORSDOF 3
ENDMDL
MODEL 7
REMARK VINA RESULT:      -6.1      9.383     10.710
REMARK  3 active torsions:
REMARK  status: ('A' for Active; 'I' for Inactive)
REMARK    1  A    between atoms: O_2  and  C_3 
REMARK    2  A    between atoms: C_8  and  C_9 
REMARK    3  A    between atoms: C_9  and  C_10 
ROOT
HETATM    1  C   UNK N   1      20.909  17.476   4.310  0.00  0.00    -0.025 A 
HETATM    2  C   UNK N   1      21.117  18.566   3.513  0.00  0.00     0.016 A 
HETATM    3  C   UNK N   1      19.717  16.893   3.870  0.00  0.00     0.098 A 
HETATM    4  N   UNK N   1      19.216  17.612   2.830  0.00  0.00    -0.351 N 
HETATM    5  C   UNK N   1      20.084  18.620   2.635  0.00  0.00     0.115 A 
HETATM    6  N   UNK N   1      19.985  19.594   1.694  0.00  0.00    -0.352 N 
ATOM      7  HN  UNK N   1      19.197  19.611   1.046  1.00  0.00     0.166 HD
HETATM    8  C   UNK N   1      20.962  20.552   1.630  0.00  0.00     0.089 A 
HETATM    9  C   UNK N   1      22.054  20.527   2.529  0.00  0.00     0.018 A 
HETATM   10  C   UNK N   1      22.136  19.511   3.495  0.00  0.00     0.017 A 
HETATM   11  H   UNK N   1      18.390  17.432   2.326  0.00  0.00     0.166 HD
ENDROOT
BRANCH   1  12
HETATM   12  C   UNK N   1      21.840  17.075   5.414  0.00  0.00     0.079 C 
BRANCH  12  13
HETATM   13  C   UNK N   1      21.317  16.460   6.675  0.00  0.00    -0.051 A 
HETATM   14  C   UNK N   1      21.659  15.172   7.112  0.00  0.00     0.007 A 
HETATM   15  C   UNK N   1      21.124  14.672   8.305  0.00  0.00     0.003 A 
HETATM   16  C   UNK N   1      20.247  15.458   9.062  0.00  0.00     0.037 A 
HETATM   17  C   UNK N   1      19.903  16.749   8.627  0.00  0.00     0.068 A 
HETATM   18  C   UNK N   1      20.442  17.235   7.438  0.00  0.00     0.044 A 
BRANCH  17  19
HETATM   19  O   UNK N   1      19.059  17.543   9.328  0.00  0.00    -0.356 OA
HETATM   20  C   UNK N   1      17.711  17.296   9.446  0.00  0.00     0.210 C 
ENDBRANCH  17  19
ENDBRANCH  12  13
ENDBRANCH   1  12
TORSDOF 3
ENDMDL
MODEL 8
REMARK VINA RESULT:      -6.0     13.462     14.993
REMARK  3 active torsions:
REMARK  status: ('A' for Active; 'I' for Inactive)
REMARK    1  A    between atoms: O_2  and  C_3 
REMARK    2  A    between atoms: C_8  and  C_9 
REMARK    3  A    between atoms: C_9  and  C_10 
ROOT
HETATM    1  C   UNK N   1      27.305  23.394  -5.769  0.00  0.00    -0.025 A 
HETATM    2  C   UNK N   1      26.663  22.664  -6.728  0.00  0.00     0.016 A 
HETATM    3  C   UNK N   1      28.655  23.414  -6.132  0.00  0.00     0.098 A 
HETATM    4  N   UNK N   1      28.826  22.711  -7.285  0.00  0.00    -0.351 N 
HETATM    5  C   UNK N   1      27.603  22.268  -7.623  0.00  0.00     0.115 A 
HETATM    6  N   UNK N   1      27.294  21.518  -8.712  0.00  0.00    -0.352 N 
ATOM      7  HN  UNK N   1      28.021  21.234  -9.369  1.00  0.00     0.166 HD
HETATM    8  C   UNK N   1      25.990  21.149  -8.911  0.00  0.00     0.089 A 
HETATM    9  C   UNK N   1      24.984  21.543  -7.999  0.00  0.00     0.018 A 
HETATM   10  C   UNK N   1      25.325  22.319  -6.879  0.00  0.00     0.017 A 
HETATM   11  H   UNK N   1      29.669  22.560  -7.769  0.00  0.00     0.166 HD
ENDROOT
BRANCH   1  12
HETATM   12  C   UNK N   1      26.603  24.010  -4.596  0.00  0.00     0.079 C 
BRANCH  12  13
HETATM   13  C   UNK N   1      26.117  25.426  -4.650  0.00  0.00    -0.051 A 
HETATM   14  C   UNK N   1      25.234  25.909  -5.626  0.00  0.00     0.007 A 
HETATM   15  C   UNK N   1      24.829  27.248  -5.604  0.00  0.00     0.003 A 
HETATM   16  C   UNK N   1      25.304  28.106  -4.605  0.00  0.00     0.037 A 
HETATM   17  C   UNK N   1      26.190  27.625  -3.625  0.00  0.00     0.068 A 
HETATM   18  C   UNK N   1      26.585  26.290  -3.659  0.00  0.00     0.044 A 
BRANCH  17  19
HETATM   19  O   UNK N   1      26.674  28.420  -2.642  0.00  0.00    -0.356 OA
HETATM   20  C   UNK N   1      27.223  29.661  -2.873  0.00  0.00     0.210 C 
ENDBRANCH  17  19
ENDBRANCH  12  13
ENDBRANCH   1  12
TORSDOF 3
ENDMDL
MODEL 9
REMARK VINA RESULT:      -6.0      1.798      2.839
REMARK  3 active torsions:
REMARK  status: ('A' for Active; 'I' for Inactive)
REMARK    1  A    between atoms: O_2  and  C_3 
REMARK    2  A    between atoms: C_8  and  C_9 
REMARK    3  A    between atoms: C_9  and  C_10 
ROOT
HETATM    1  C   UNK N   1      29.175  17.506   5.733  0.00  0.00    -0.025 A 
HETATM    2  C   UNK N   1      28.390  18.614   5.882  0.00  0.00     0.016 A 
HETATM    3  C   UNK N   1      29.126  17.173   4.376  0.00  0.00     0.098 A 
HETATM    4  N   UNK N   1      28.330  18.059   3.719  0.00  0.00    -0.351 N 
HETATM    5  C   UNK N   1      27.897  18.921   4.656  0.00  0.00     0.115 A 
HETATM    6  N   UNK N   1      27.072  19.979   4.453  0.00  0.00    -0.352 N 
ATOM      7  HN  UNK N   1      26.715  20.187   3.520  1.00  0.00     0.166 HD
HETATM    8  C   UNK N   1      26.726  20.761   5.522  0.00  0.00     0.089 A 
HETATM    9  C   UNK N   1      27.221  20.472   6.815  0.00  0.00     0.018 A 
HETATM   10  C   UNK N   1      28.073  19.372   7.003  0.00  0.00     0.017 A 
HETATM   11  H   UNK N   1      28.116  18.067   2.759  0.00  0.00     0.166 HD
ENDROOT
BRANCH   1  12
HETATM   12  C   UNK N   1      29.903  16.854   6.870  0.00  0.00     0.079 C 
BRANCH  12  13
HETATM   13  C   UNK N   1      31.328  17.204   7.171  0.00  0.00    -0.051 A 
HETATM   14  C   UNK N   1      31.721  17.993   8.262  0.00  0.00     0.007 A 
HETATM   15  C   UNK N   1      33.076  18.273   8.472  0.00  0.00     0.003 A 
HETATM   16  C   UNK N   1      34.040  17.766   7.593  0.00  0.00     0.037 A 
HETATM   17  C   UNK N   1      33.649  16.975   6.498  0.00  0.00     0.068 A 
HETATM   18  C   UNK N   1      32.297  16.703   6.301  0.00  0.00     0.044 A 
BRANCH  17  19
HETATM   19  O   UNK N   1      34.548  16.464   5.624  0.00  0.00    -0.356 OA
HETATM   20  C   UNK N   1      34.316  15.333   4.875  0.00  0.00     0.210 C 
ENDBRANCH  17  19
ENDBRANCH  12  13
ENDBRANCH   1  12
TORSDOF 3
ENDMDL
