REMARK  3 active torsions:
REMARK  status: ('A' for Active; 'I' for Inactive)
REMARK    1  A    between atoms: O_2  and  C_3 
REMARK    2  A    between atoms: C_8  and  C_9 
REMARK    3  A    between atoms: C_9  and  C_10 
ROOT
HETATM    1  C   UNK N   1       1.207   0.991   0.000  0.00  0.00    -0.025 A 
HETATM    2  C   UNK N   1       2.530   1.331   0.000  0.00  0.00     0.016 A 
HETATM    3  C   UNK N   1       0.495   2.194  -0.000  0.00  0.00     0.098 A 
HETATM    4  N   UNK N   1       1.367   3.238  -0.000  0.00  0.00    -0.351 N 
HETATM    5  C   UNK N   1       2.593   2.686  -0.000  0.00  0.00     0.115 A 
HETATM    6  N   UNK N   1       3.774   3.355  -0.000  0.00  0.00    -0.352 N 
ATOM      7  HN  UNK N   1       3.793   4.375  -0.000  1.00  0.00     0.166 HD
HETATM    8  C   UNK N   1       4.940   2.636  -0.000  0.00  0.00     0.089 A 
HETATM    9  C   UNK N   1       4.913   1.222   0.000  0.00  0.00     0.018 A 
HETATM   10  C   UNK N   1       3.680   0.550   0.000  0.00  0.00     0.017 A 
HETATM   11  H   UNK N   1       1.146   4.197  -0.000  0.00  0.00     0.166 HD
ENDROOT
BRANCH   1  12
HETATM   12  C   UNK N   1       0.722  -0.428   0.000  0.00  0.00     0.079 C 
BRANCH  12  13
HETATM   13  C   UNK N   1      -0.743  -0.739   0.000  0.00  0.00    -0.051 A 
HETATM   14  C   UNK N   1      -1.746   0.241   0.000  0.00  0.00     0.007 A 
HETATM   15  C   UNK N   1      -3.094  -0.136   0.000  0.00  0.00     0.003 A 
HETATM   16  C   UNK N   1      -3.441  -1.492   0.000  0.00  0.00     0.037 A 
HETATM   17  C   UNK N   1      -2.438  -2.477  -0.000  0.00  0.00     0.068 A 
HETATM   18  C   UNK N   1      -1.100  -2.088  -0.000  0.00  0.00     0.044 A 
BRANCH  17  19
HETATM   19  O   UNK N   1      -2.729  -3.799  -0.000  0.00  0.00    -0.356 OA
HETATM   20  C   UNK N   1      -4.014  -4.291  -0.000  0.00  0.00     0.210 C 
ENDBRANCH  17  19
ENDBRANCH  12  13
ENDBRANCH   1  12
TORSDOF 3
