MODEL 1
REMARK VINA RESULT:      -6.9      0.000      0.000
REMARK  11 active torsions:
REMARK  status: ('A' for Active; 'I' for Inactive)
REMARK    1  A    between atoms: C_3  and  N_4 
REMARK    2  A    between atoms: C_11  and  S_14 
REMARK    3  A    between atoms: S_14  and  N_15 
REMARK    4  A    between atoms: N_15  and  C_16 
REMARK    5  A    between atoms: C_16  and  C_17 
REMARK    6  A    between atoms: C_17  and  C_18 
REMARK    7  A    between atoms: C_18  and  C_19 
REMARK    8  A    between atoms: C_19  and  N_20 
REMARK       I    between atoms: N_20  and  C_21 
REMARK    9  A    between atoms: C_21  and  C_23 
REMARK   10  A    between atoms: C_23  and  C_24 
REMARK   11  A    between atoms: C_24  and  S_25 
ROOT
HETATM    1  S   UNK N   1      35.511  13.103  13.923  0.00  0.00     0.259 S 
HETATM    2  O   UNK N   1      36.495  12.082  13.336  0.00  0.00    -0.201 OA
HETATM    3  O   UNK N   1      34.474  12.694  12.864  0.00  0.00    -0.201 OA
ENDROOT
BRANCH   1   4
HETATM    4  C   UNK N   1      35.615  11.848  15.237  0.00  0.00     0.090 A 
HETATM    5  C   UNK N   1      35.512  12.180  16.624  0.00  0.00    -0.000 A 
HETATM    6  C   UNK N   1      35.574  11.164  17.614  0.00  0.00     0.002 A 
HETATM    7  C   UNK N   1      35.324  13.514  17.021  0.00  0.00     0.014 A 
HETATM    8  C   UNK N   1      35.767   9.840  17.191  0.00  0.00     0.014 A 
HETATM    9  C   UNK N   1      35.429  11.513  18.998  0.00  0.00     0.040 A 
HETATM   10  C   UNK N   1      35.890   9.520  15.838  0.00  0.00     0.003 A 
HETATM   11  C   UNK N   1      35.809  10.516  14.868  0.00  0.00     0.026 A 
HETATM   12  C   UNK N   1      35.228  12.868  19.326  0.00  0.00     0.030 A 
HETATM   13  C   UNK N   1      35.181  13.854  18.354  0.00  0.00     0.003 A 
BRANCH   9  14
HETATM   14  N   UNK N   1      35.467  10.560  20.077  0.00  0.00    -0.389 N 
HETATM   15  C   UNK N   1      36.723  10.239  20.711  0.00  0.00     0.149 C 
HETATM   16  C   UNK N   1      34.297   9.879  20.569  0.00  0.00     0.149 C 
ENDBRANCH   9  14
ENDBRANCH   1   4
BRANCH   1  17
HETATM   17  N   UNK N   1      36.674  14.182  13.109  0.00  0.00    -0.315 N 
HETATM   18  H   UNK N   1      37.123  14.988  13.545  0.00  0.00     0.172 HD
BRANCH  17  19
HETATM   19  C   UNK N   1      36.895  13.744  11.724  0.00  0.00     0.132 C 
BRANCH  19  20
HETATM   20  C   UNK N   1      36.442  14.788  10.690  0.00  0.00     0.022 C 
BRANCH  20  21
HETATM   21  C   UNK N   1      35.394  15.737  11.265  0.00  0.00     0.021 C 
BRANCH  21  22
HETATM   22  C   UNK N   1      35.401  17.096  10.600  0.00  0.00     0.122 C 
BRANCH  22  23
HETATM   23  N   UNK N   1      34.429  17.125   9.533  0.00  0.00    -0.361 N 
HETATM   24  C   UNK N   1      34.452  18.067   8.560  0.00  0.00     0.218 C 
HETATM   25  O   UNK N   1      35.309  18.938   8.553  0.00  0.00    -0.274 OA
HETATM   26  H   UNK N   1      33.726  16.436   9.512  0.00  0.00     0.162 HD
BRANCH  24  27
HETATM   27  C   UNK N   1      33.441  18.012   7.464  0.00  0.00     0.112 C 
BRANCH  27  28
HETATM   28  C   UNK N   1      32.855  16.613   7.357  0.00  0.00     0.080 C 
BRANCH  28  29
HETATM   29  S   UNK N   1      31.062  16.655   7.664  0.00  0.00    -0.182 SA
HETATM   30  H   UNK N   1      29.981  16.314   6.913  0.00  0.00     0.101 HD
ENDBRANCH  28  29
ENDBRANCH  27  28
ENDBRANCH  24  27
ENDBRANCH  22  23
ENDBRANCH  21  22
ENDBRANCH  20  21
ENDBRANCH  19  20
ENDBRANCH  17  19
ENDBRANCH   1  17
TORSDOF 11
ENDMDL
MODEL 2
REMARK VINA RESULT:      -6.8      3.328     11.075
REMARK  11 active torsions:
REMARK  status: ('A' for Active; 'I' for Inactive)
REMARK    1  A    between atoms: C_3  and  N_4 
REMARK    2  A    between atoms: C_11  and  S_14 
REMARK    3  A    between atoms: S_14  and  N_15 
REMARK    4  A    between atoms: N_15  and  C_16 
REMARK    5  A    between atoms: C_16  and  C_17 
REMARK    6  A    between atoms: C_17  and  C_18 
REMARK    7  A    between atoms: C_18  and  C_19 
REMARK    8  A    between atoms: C_19  and  N_20 
REMARK       I    between atoms: N_20  and  C_21 
REMARK    9  A    between atoms: C_21  and  C_23 
REMARK   10  A    between atoms: C_23  and  C_24 
REMARK   11  A    between atoms: C_24  and  S_25 
ROOT
HETATM    1  S   UNK N   1      33.659  17.863   8.393  0.00  0.00     0.259 S 
HETATM    2  O   UNK N   1      34.090  16.477   7.893  0.00  0.00    -0.201 OA
HETATM    3  O   UNK N   1      34.765  18.501   7.535  0.00  0.00    -0.201 OA
ENDROOT
BRANCH   1   4
HETATM    4  C   UNK N   1      32.253  17.358   7.352  0.00  0.00     0.090 A 
HETATM    5  C   UNK N   1      30.895  17.601   7.730  0.00  0.00    -0.000 A 
HETATM    6  C   UNK N   1      29.830  17.212   6.875  0.00  0.00     0.002 A 
HETATM    7  C   UNK N   1      30.601  18.251   8.939  0.00  0.00     0.014 A 
HETATM    8  C   UNK N   1      30.151  16.560   5.673  0.00  0.00     0.014 A 
HETATM    9  C   UNK N   1      28.477  17.501   7.252  0.00  0.00     0.040 A 
HETATM   10  C   UNK N   1      31.476  16.304   5.318  0.00  0.00     0.003 A 
HETATM   11  C   UNK N   1      32.520  16.704   6.149  0.00  0.00     0.026 A 
HETATM   12  C   UNK N   1      28.253  18.168   8.472  0.00  0.00     0.030 A 
HETATM   13  C   UNK N   1      29.298  18.534   9.305  0.00  0.00     0.003 A 
BRANCH   9  14
HETATM   14  N   UNK N   1      27.327  17.157   6.454  0.00  0.00    -0.389 N 
HETATM   15  C   UNK N   1      26.640  15.909   6.680  0.00  0.00     0.149 C 
HETATM   16  C   UNK N   1      26.814  18.003   5.407  0.00  0.00     0.149 C 
ENDBRANCH   9  14
ENDBRANCH   1   4
BRANCH   1  17
HETATM   17  N   UNK N   1      34.454  17.210   9.849  0.00  0.00    -0.315 N 
HETATM   18  H   UNK N   1      34.887  17.777  10.579  0.00  0.00     0.172 HD
BRANCH  17  19
HETATM   19  C   UNK N   1      34.396  15.741   9.848  0.00  0.00     0.132 C 
BRANCH  19  20
HETATM   20  C   UNK N   1      34.642  15.135  11.239  0.00  0.00     0.022 C 
BRANCH  20  21
HETATM   21  C   UNK N   1      36.131  14.968  11.530  0.00  0.00     0.021 C 
BRANCH  21  22
HETATM   22  C   UNK N   1      36.470  13.609  12.103  0.00  0.00     0.122 C 
BRANCH  22  23
HETATM   23  N   UNK N   1      36.705  13.721  13.522  0.00  0.00    -0.361 N 
HETATM   24  C   UNK N   1      35.761  13.400  14.439  0.00  0.00     0.218 C 
HETATM   25  O   UNK N   1      34.660  13.001  14.088  0.00  0.00    -0.274 OA
HETATM   26  H   UNK N   1      37.583  14.039  13.835  0.00  0.00     0.162 HD
BRANCH  24  27
HETATM   27  C   UNK N   1      36.086  13.499  15.891  0.00  0.00     0.112 C 
BRANCH  27  28
HETATM   28  C   UNK N   1      34.877  13.112  16.729  0.00  0.00     0.080 C 
BRANCH  28  29
HETATM   29  S   UNK N   1      35.339  11.849  17.955  0.00  0.00    -0.182 SA
HETATM   30  H   UNK N   1      35.358  10.490  17.929  0.00  0.00     0.101 HD
ENDBRANCH  28  29
ENDBRANCH  27  28
ENDBRANCH  24  27
ENDBRANCH  22  23
ENDBRANCH  21  22
ENDBRANCH  20  21
ENDBRANCH  19  20
ENDBRANCH  17  19
ENDBRANCH   1  17
TORSDOF 11
ENDMDL
MODEL 3
REMARK VINA RESULT:      -6.5      1.459      2.543
REMARK  11 active torsions:
REMARK  status: ('A' for Active; 'I' for Inactive)
REMARK    1  A    between atoms: C_3  and  N_4 
REMARK    2  A    between atoms: C_11  and  S_14 
REMARK    3  A    between atoms: S_14  and  N_15 
REMARK    4  A    between atoms: N_15  and  C_16 
REMARK    5  A    between atoms: C_16  and  C_17 
REMARK    6  A    between atoms: C_17  and  C_18 
REMARK    7  A    between atoms: C_18  and  C_19 
REMARK    8  A    between atoms: C_19  and  N_20 
REMARK       I    between atoms: N_20  and  C_21 
REMARK    9  A    between atoms: C_21  and  C_23 
REMARK   10  A    between atoms: C_23  and  C_24 
REMARK   11  A    between atoms: C_24  and  S_25 
ROOT
HETATM    1  S   UNK N   1      36.118  13.023  14.456  0.00  0.00     0.259 S 
HETATM    2  O   UNK N   1      34.633  13.399  14.544  0.00  0.00    -0.201 OA
HETATM    3  O   UNK N   1      36.472  14.510  14.286  0.00  0.00    -0.201 OA
ENDROOT
BRANCH   1   4
HETATM    4  C   UNK N   1      35.715  12.656  16.193  0.00  0.00     0.090 A 
HETATM    5  C   UNK N   1      35.534  11.321  16.672  0.00  0.00    -0.000 A 
HETATM    6  C   UNK N   1      35.244  11.080  18.041  0.00  0.00     0.002 A 
HETATM    7  C   UNK N   1      35.665  10.230  15.797  0.00  0.00     0.014 A 
HETATM    8  C   UNK N   1      35.114  12.187  18.894  0.00  0.00     0.014 A 
HETATM    9  C   UNK N   1      35.106   9.731  18.510  0.00  0.00     0.040 A 
HETATM   10  C   UNK N   1      35.269  13.491  18.420  0.00  0.00     0.003 A 
HETATM   11  C   UNK N   1      35.573  13.724  17.080  0.00  0.00     0.026 A 
HETATM   12  C   UNK N   1      35.264   8.684  17.582  0.00  0.00     0.030 A 
HETATM   13  C   UNK N   1      35.535   8.929  16.245  0.00  0.00     0.003 A 
BRANCH   9  14
HETATM   14  N   UNK N   1      34.822   9.379  19.878  0.00  0.00    -0.389 N 
HETATM   15  C   UNK N   1      35.905   9.165  20.807  0.00  0.00     0.149 C 
HETATM   16  C   UNK N   1      33.485   9.212  20.386  0.00  0.00     0.149 C 
ENDBRANCH   9  14
ENDBRANCH   1   4
BRANCH   1  17
HETATM   17  N   UNK N   1      35.530  12.452  12.873  0.00  0.00    -0.315 N 
HETATM   18  H   UNK N   1      35.446  11.471  12.603  0.00  0.00     0.172 HD
BRANCH  17  19
HETATM   19  C   UNK N   1      35.183  13.593  12.015  0.00  0.00     0.132 C 
BRANCH  19  20
HETATM   20  C   UNK N   1      36.225  13.848  10.913  0.00  0.00     0.022 C 
BRANCH  20  21
HETATM   21  C   UNK N   1      36.424  15.340  10.656  0.00  0.00     0.021 C 
BRANCH  21  22
HETATM   22  C   UNK N   1      35.289  16.187  11.189  0.00  0.00     0.122 C 
BRANCH  22  23
HETATM   23  N   UNK N   1      34.868  17.132  10.182  0.00  0.00    -0.361 N 
HETATM   24  C   UNK N   1      33.881  16.854   9.297  0.00  0.00     0.218 C 
HETATM   25  O   UNK N   1      33.307  15.776   9.320  0.00  0.00    -0.274 OA
HETATM   26  H   UNK N   1      35.313  18.009  10.139  0.00  0.00     0.162 HD
BRANCH  24  27
HETATM   27  C   UNK N   1      33.468  17.893   8.310  0.00  0.00     0.112 C 
BRANCH  27  28
HETATM   28  C   UNK N   1      34.039  17.573   6.938  0.00  0.00     0.080 C 
BRANCH  28  29
HETATM   29  S   UNK N   1      32.705  17.107   5.792  0.00  0.00    -0.182 SA
HETATM   30  H   UNK N   1      32.242  15.910   5.340  0.00  0.00     0.101 HD
ENDBRANCH  28  29
ENDBRANCH  27  28
ENDBRANCH  24  27
ENDBRANCH  22  23
ENDBRANCH  21  22
ENDBRANCH  20  21
ENDBRANCH  19  20
ENDBRANCH  17  19
ENDBRANCH   1  17
TORSDOF 11
ENDMDL
MODEL 4
REMARK VINA RESULT:      -6.1      4.968     10.872
REMARK  11 active torsions:
REMARK  status: ('A' for Active; 'I' for Inactive)
REMARK    1  A    between atoms: C_3  and  N_4 
REMARK    2  A    between atoms: C_11  and  S_14 
REMARK    3  A    between atoms: S_14  and  N_15 
REMARK    4  A    between atoms: N_15  and  C_16 
REMARK    5  A    between atoms: C_16  and  C_17 
REMARK    6  A    between atoms: C_17  and  C_18 
REMARK    7  A    between atoms: C_18  and  C_19 
REMARK    8  A    between atoms: C_19  and  N_20 
REMARK       I    between atoms: N_20  and  C_21 
REMARK    9  A    between atoms: C_21  and  C_23 
REMARK   10  A    between atoms: C_23  and  C_24 
REMARK   11  A    between atoms: C_24  and  S_25 
ROOT
HETATM    1  S   UNK N   1      33.462  17.827   8.113  0.00  0.00     0.259 S 
HETATM    2  O   UNK N   1      33.677  16.331   7.847  0.00  0.00    -0.201 OA
HETATM    3  O   UNK N   1      34.723  18.141   7.291  0.00  0.00    -0.201 OA
ENDROOT
BRANCH   1   4
HETATM    4  C   UNK N   1      32.069  17.412   7.016  0.00  0.00     0.090 A 
HETATM    5  C   UNK N   1      30.713  17.410   7.468  0.00  0.00    -0.000 A 
HETATM    6  C   UNK N   1      29.656  17.104   6.571  0.00  0.00     0.002 A 
HETATM    7  C   UNK N   1      30.409  17.736   8.799  0.00  0.00     0.014 A 
HETATM    8  C   UNK N   1      29.986  16.777   5.246  0.00  0.00     0.014 A 
HETATM    9  C   UNK N   1      28.298  17.147   7.033  0.00  0.00     0.040 A 
HETATM   10  C   UNK N   1      31.313  16.758   4.813  0.00  0.00     0.003 A 
HETATM   11  C   UNK N   1      32.347  17.078   5.690  0.00  0.00     0.026 A 
HETATM   12  C   UNK N   1      28.063  17.495   8.377  0.00  0.00     0.030 A 
HETATM   13  C   UNK N   1      29.102  17.781   9.249  0.00  0.00     0.003 A 
BRANCH   9  14
HETATM   14  N   UNK N   1      27.155  16.862   6.203  0.00  0.00    -0.389 N 
HETATM   15  C   UNK N   1      26.601  17.895   5.361  0.00  0.00     0.149 C 
HETATM   16  C   UNK N   1      26.506  15.577   6.171  0.00  0.00     0.149 C 
ENDBRANCH   9  14
ENDBRANCH   1   4
BRANCH   1  17
HETATM   17  N   UNK N   1      34.019  17.275   9.714  0.00  0.00    -0.315 N 
HETATM   18  H   UNK N   1      33.626  17.582  10.605  0.00  0.00     0.172 HD
BRANCH  17  19
HETATM   19  C   UNK N   1      35.123  16.315   9.568  0.00  0.00     0.132 C 
BRANCH  19  20
HETATM   20  C   UNK N   1      35.869  16.061  10.888  0.00  0.00     0.022 C 
BRANCH  20  21
HETATM   21  C   UNK N   1      35.108  15.093  11.792  0.00  0.00     0.021 C 
BRANCH  21  22
HETATM   22  C   UNK N   1      35.996  14.021  12.386  0.00  0.00     0.122 C 
BRANCH  22  23
HETATM   23  N   UNK N   1      37.260  13.991  11.691  0.00  0.00    -0.361 N 
HETATM   24  C   UNK N   1      37.640  12.940  10.925  0.00  0.00     0.218 C 
HETATM   25  O   UNK N   1      36.912  11.967  10.796  0.00  0.00    -0.274 OA
HETATM   26  H   UNK N   1      37.868  14.761  11.776  0.00  0.00     0.162 HD
BRANCH  24  27
HETATM   27  C   UNK N   1      38.942  12.993  10.201  0.00  0.00     0.112 C 
BRANCH  27  28
HETATM   28  C   UNK N   1      38.808  12.357   8.827  0.00  0.00     0.080 C 
BRANCH  28  29
HETATM   29  S   UNK N   1      38.061  13.533   7.657  0.00  0.00    -0.182 SA
HETATM   30  H   UNK N   1      37.269  14.627   7.816  0.00  0.00     0.101 HD
ENDBRANCH  28  29
ENDBRANCH  27  28
ENDBRANCH  24  27
ENDBRANCH  22  23
ENDBRANCH  21  22
ENDBRANCH  20  21
ENDBRANCH  19  20
ENDBRANCH  17  19
ENDBRANCH   1  17
TORSDOF 11
ENDMDL
MODEL 5
REMARK VINA RESULT:      -5.9     21.411     23.529
REMARK  11 active torsions:
REMARK  status: ('A' for Active; 'I' for Inactive)
REMARK    1  A    between atoms: C_3  and  N_4 
REMARK    2  A    between atoms: C_11  and  S_14 
REMARK    3  A    between atoms: S_14  and  N_15 
REMARK    4  A    between atoms: N_15  and  C_16 
REMARK    5  A    between atoms: C_16  and  C_17 
REMARK    6  A    between atoms: C_17  and  C_18 
REMARK    7  A    between atoms: C_18  and  C_19 
REMARK    8  A    between atoms: C_19  and  N_20 
REMARK       I    between atoms: N_20  and  C_21 
REMARK    9  A    between atoms: C_21  and  C_23 
REMARK   10  A    between atoms: C_23  and  C_24 
REMARK   11  A    between atoms: C_24  and  S_25 
ROOT
HETATM    1  S   UNK N   1      31.013  22.266  -3.429  0.00  0.00     0.259 S 
HETATM    2  O   UNK N   1      32.362  22.771  -3.959  0.00  0.00    -0.201 OA
HETATM    3  O   UNK N   1      31.606  22.208  -2.011  0.00  0.00    -0.201 OA
ENDROOT
BRANCH   1   4
HETATM    4  C   UNK N   1      30.640  23.986  -3.897  0.00  0.00     0.090 A 
HETATM    5  C   UNK N   1      29.320  24.529  -3.827  0.00  0.00    -0.000 A 
HETATM    6  C   UNK N   1      29.080  25.884  -4.179  0.00  0.00     0.002 A 
HETATM    7  C   UNK N   1      28.249  23.736  -3.386  0.00  0.00     0.014 A 
HETATM    8  C   UNK N   1      30.166  26.655  -4.621  0.00  0.00     0.014 A 
HETATM    9  C   UNK N   1      27.755  26.422  -4.064  0.00  0.00     0.040 A 
HETATM   10  C   UNK N   1      31.451  26.116  -4.710  0.00  0.00     0.003 A 
HETATM   11  C   UNK N   1      31.687  24.793  -4.345  0.00  0.00     0.026 A 
HETATM   12  C   UNK N   1      26.729  25.576  -3.602  0.00  0.00     0.030 A 
HETATM   13  C   UNK N   1      26.971  24.251  -3.272  0.00  0.00     0.003 A 
BRANCH   9  14
HETATM   14  N   UNK N   1      27.408  27.783  -4.386  0.00  0.00    -0.389 N 
HETATM   15  C   UNK N   1      26.976  28.120  -5.721  0.00  0.00     0.149 C 
HETATM   16  C   UNK N   1      27.478  28.860  -3.433  0.00  0.00     0.149 C 
ENDBRANCH   9  14
ENDBRANCH   1   4
BRANCH   1  17
HETATM   17  N   UNK N   1      31.602  20.820  -4.290  0.00  0.00    -0.315 N 
HETATM   18  H   UNK N   1      32.059  20.024  -3.845  0.00  0.00     0.172 HD
BRANCH  17  19
HETATM   19  C   UNK N   1      31.333  20.939  -5.731  0.00  0.00     0.132 C 
BRANCH  19  20
HETATM   20  C   UNK N   1      29.835  21.075  -6.047  0.00  0.00     0.022 C 
BRANCH  20  21
HETATM   21  C   UNK N   1      29.435  20.246  -7.266  0.00  0.00     0.021 C 
BRANCH  21  22
HETATM   22  C   UNK N   1      28.576  21.015  -8.245  0.00  0.00     0.122 C 
BRANCH  22  23
HETATM   23  N   UNK N   1      27.887  22.082  -7.560  0.00  0.00    -0.361 N 
HETATM   24  C   UNK N   1      26.537  22.126  -7.462  0.00  0.00     0.218 C 
HETATM   25  O   UNK N   1      25.846  21.249  -7.960  0.00  0.00    -0.274 OA
HETATM   26  H   UNK N   1      28.417  22.803  -7.148  0.00  0.00     0.162 HD
BRANCH  24  27
HETATM   27  C   UNK N   1      25.892  23.236  -6.703  0.00  0.00     0.112 C 
BRANCH  27  28
HETATM   28  C   UNK N   1      26.459  24.576  -7.146  0.00  0.00     0.080 C 
BRANCH  28  29
HETATM   29  S   UNK N   1      25.844  25.003  -8.805  0.00  0.00    -0.182 SA
HETATM   30  H   UNK N   1      26.296  24.743 -10.061  0.00  0.00     0.101 HD
ENDBRANCH  28  29
ENDBRANCH  27  28
ENDBRANCH  24  27
ENDBRANCH  22  23
ENDBRANCH  21  22
ENDBRANCH  20  21
ENDBRANCH  19  20
ENDBRANCH  17  19
ENDBRANCH   1  17
TORSDOF 11
ENDMDL
MODEL 6
REMARK VINA RESULT:      -5.8      3.903     11.323
REMARK  11 active torsions:
REMARK  status: ('A' for Active; 'I' for Inactive)
REMARK    1  A    between atoms: C_3  and  N_4 
REMARK    2  A    between atoms: C_11  and  S_14 
REMARK    3  A    between atoms: S_14  and  N_15 
REMARK    4  A    between atoms: N_15  and  C_16 
REMARK    5  A    between atoms: C_16  and  C_17 
REMARK    6  A    between atoms: C_17  and  C_18 
REMARK    7  A    between atoms: C_18  and  C_19 
REMARK    8  A    between atoms: C_19  and  N_20 
REMARK       I    between atoms: N_20  and  C_21 
REMARK    9  A    between atoms: C_21  and  C_23 
REMARK   10  A    between atoms: C_23  and  C_24 
REMARK   11  A    between atoms: C_24  and  S_25 
ROOT
HETATM    1  S   UNK N   1      34.139  16.887   8.572  0.00  0.00     0.259 S 
HETATM    2  O   UNK N   1      33.390  15.933   9.514  0.00  0.00    -0.201 OA
HETATM    3  O   UNK N   1      34.865  15.682   7.951  0.00  0.00    -0.201 OA
ENDROOT
BRANCH   1   4
HETATM    4  C   UNK N   1      32.426  16.985   7.962  0.00  0.00     0.090 A 
HETATM    5  C   UNK N   1      32.116  17.191   6.581  0.00  0.00    -0.000 A 
HETATM    6  C   UNK N   1      30.765  17.237   6.146  0.00  0.00     0.002 A 
HETATM    7  C   UNK N   1      33.145  17.324   5.636  0.00  0.00     0.014 A 
HETATM    8  C   UNK N   1      29.754  17.104   7.112  0.00  0.00     0.014 A 
HETATM    9  C   UNK N   1      30.474  17.403   4.751  0.00  0.00     0.040 A 
HETATM   10  C   UNK N   1      30.059  16.926   8.462  0.00  0.00     0.003 A 
HETATM   11  C   UNK N   1      31.386  16.862   8.884  0.00  0.00     0.026 A 
HETATM   12  C   UNK N   1      31.554  17.517   3.855  0.00  0.00     0.030 A 
HETATM   13  C   UNK N   1      32.870  17.483   4.290  0.00  0.00     0.003 A 
BRANCH   9  14
HETATM   14  N   UNK N   1      29.142  17.453   4.206  0.00  0.00    -0.389 N 
HETATM   15  C   UNK N   1      28.314  18.614   4.431  0.00  0.00     0.149 C 
HETATM   16  C   UNK N   1      28.564  16.380   3.439  0.00  0.00     0.149 C 
ENDBRANCH   9  14
ENDBRANCH   1   4
BRANCH   1  17
HETATM   17  N   UNK N   1      34.951  17.232  10.121  0.00  0.00    -0.315 N 
HETATM   18  H   UNK N   1      35.334  18.140  10.387  0.00  0.00     0.172 HD
BRANCH  17  19
HETATM   19  C   UNK N   1      34.989  16.025  10.959  0.00  0.00     0.132 C 
BRANCH  19  20
HETATM   20  C   UNK N   1      36.400  15.425  11.074  0.00  0.00     0.022 C 
BRANCH  20  21
HETATM   21  C   UNK N   1      36.363  13.981  11.570  0.00  0.00     0.021 C 
BRANCH  21  22
HETATM   22  C   UNK N   1      35.579  13.819  12.854  0.00  0.00     0.122 C 
BRANCH  22  23
HETATM   23  N   UNK N   1      34.704  12.676  12.754  0.00  0.00    -0.361 N 
HETATM   24  C   UNK N   1      34.869  11.570  13.517  0.00  0.00     0.218 C 
HETATM   25  O   UNK N   1      35.781  11.501  14.328  0.00  0.00    -0.274 OA
HETATM   26  H   UNK N   1      33.960  12.702  12.109  0.00  0.00     0.162 HD
BRANCH  24  27
HETATM   27  C   UNK N   1      33.902  10.441  13.391  0.00  0.00     0.112 C 
BRANCH  27  28
HETATM   28  C   UNK N   1      33.712  10.071  11.928  0.00  0.00     0.080 C 
BRANCH  28  29
HETATM   29  S   UNK N   1      35.147   9.128  11.325  0.00  0.00    -0.182 SA
HETATM   30  H   UNK N   1      35.442   8.544  10.133  0.00  0.00     0.101 HD
ENDBRANCH  28  29
ENDBRANCH  27  28
ENDBRANCH  24  27
ENDBRANCH  22  23
ENDBRANCH  21  22
ENDBRANCH  20  21
ENDBRANCH  19  20
ENDBRANCH  17  19
ENDBRANCH   1  17
TORSDOF 11
ENDMDL
MODEL 7
REMARK VINA RESULT:      -5.7      9.275     13.710
REMARK  11 active torsions:
REMARK  status: ('A' for Active; 'I' for Inactive)
REMARK    1  A    between atoms: C_3  and  N_4 
REMARK    2  A    between atoms: C_11  and  S_14 
REMARK    3  A    between atoms: S_14  and  N_15 
REMARK    4  A    between atoms: N_15  and  C_16 
REMARK    5  A    between atoms: C_16  and  C_17 
REMARK    6  A    between atoms: C_17  and  C_18 
REMARK    7  A    between atoms: C_18  and  C_19 
REMARK    8  A    between atoms: C_19  and  N_20 
REMARK       I    between atoms: N_20  and  C_21 
REMARK    9  A    between atoms: C_21  and  C_23 
REMARK   10  A    between atoms: C_23  and  C_24 
REMARK   11  A    between atoms: C_24  and  S_25 
ROOT
HETATM    1  S   UNK N   1      27.955  17.508   4.973  0.00  0.00     0.259 S 
HETATM    2  O   UNK N   1      27.224  17.967   6.241  0.00  0.00    -0.201 OA
HETATM    3  O   UNK N   1      27.862  18.938   4.416  0.00  0.00    -0.201 OA
ENDROOT
BRANCH   1   4
HETATM    4  C   UNK N   1      29.254  17.399   6.244  0.00  0.00     0.090 A 
HETATM    5  C   UNK N   1      30.645  17.371   5.917  0.00  0.00    -0.000 A 
HETATM    6  C   UNK N   1      31.625  17.310   6.943  0.00  0.00     0.002 A 
HETATM    7  C   UNK N   1      31.060  17.429   4.577  0.00  0.00     0.014 A 
HETATM    8  C   UNK N   1      31.185  17.249   8.275  0.00  0.00     0.014 A 
HETATM    9  C   UNK N   1      33.017  17.324   6.596  0.00  0.00     0.040 A 
HETATM   10  C   UNK N   1      29.825  17.254   8.591  0.00  0.00     0.003 A 
HETATM   11  C   UNK N   1      28.866  17.333   7.583  0.00  0.00     0.026 A 
HETATM   12  C   UNK N   1      33.364  17.397   5.234  0.00  0.00     0.030 A 
HETATM   13  C   UNK N   1      32.400  17.444   4.238  0.00  0.00     0.003 A 
BRANCH   9  14
HETATM   14  N   UNK N   1      34.087  17.275   7.559  0.00  0.00    -0.389 N 
HETATM   15  C   UNK N   1      34.634  16.003   7.966  0.00  0.00     0.149 C 
HETATM   16  C   UNK N   1      34.654  18.451   8.168  0.00  0.00     0.149 C 
ENDBRANCH   9  14
ENDBRANCH   1   4
BRANCH   1  17
HETATM   17  N   UNK N   1      26.355  16.759   4.731  0.00  0.00    -0.315 N 
HETATM   18  H   UNK N   1      26.030  15.916   5.205  0.00  0.00     0.172 HD
BRANCH  17  19
HETATM   19  C   UNK N   1      25.573  17.529   3.754  0.00  0.00     0.132 C 
BRANCH  19  20
HETATM   20  C   UNK N   1      24.340  18.204   4.378  0.00  0.00     0.022 C 
BRANCH  20  21
HETATM   21  C   UNK N   1      23.492  17.212   5.172  0.00  0.00     0.021 C 
BRANCH  21  22
HETATM   22  C   UNK N   1      22.550  16.412   4.300  0.00  0.00     0.122 C 
BRANCH  22  23
HETATM   23  N   UNK N   1      21.740  17.304   3.505  0.00  0.00    -0.361 N 
HETATM   24  C   UNK N   1      20.397  17.394   3.662  0.00  0.00     0.218 C 
HETATM   25  O   UNK N   1      19.818  16.710   4.492  0.00  0.00    -0.274 OA
HETATM   26  H   UNK N   1      22.178  17.868   2.828  0.00  0.00     0.162 HD
BRANCH  24  27
HETATM   27  C   UNK N   1      19.627  18.368   2.836  0.00  0.00     0.112 C 
BRANCH  27  28
HETATM   28  C   UNK N   1      20.541  19.036   1.820  0.00  0.00     0.080 C 
BRANCH  28  29
HETATM   29  S   UNK N   1      20.983  20.711   2.377  0.00  0.00    -0.182 SA
HETATM   30  H   UNK N   1      21.512  21.199   3.531  0.00  0.00     0.101 HD
ENDBRANCH  28  29
ENDBRANCH  27  28
ENDBRANCH  24  27
ENDBRANCH  22  23
ENDBRANCH  21  22
ENDBRANCH  20  21
ENDBRANCH  19  20
ENDBRANCH  17  19
ENDBRANCH   1  17
TORSDOF 11
ENDMDL
MODEL 8
REMARK VINA RESULT:      -5.7     23.013     26.309
REMARK  11 active torsions:
REMARK  status: ('A' for Active; 'I' for Inactive)
REMARK    1  A    between atoms: C_3  and  N_4 
REMARK    2  A    between atoms: C_11  and  S_14 
REMARK    3  A    between atoms: S_14  and  N_15 
REMARK    4  A    between atoms: N_15  and  C_16 
REMARK    5  A    between atoms: C_16  and  C_17 
REMARK    6  A    between atoms: C_17  and  C_18 
REMARK    7  A    between atoms: C_18  and  C_19 
REMARK    8  A    between atoms: C_19  and  N_20 
REMARK       I    between atoms: N_20  and  C_21 
REMARK    9  A    between atoms: C_21  and  C_23 
REMARK   10  A    between atoms: C_23  and  C_24 
REMARK   11  A    between atoms: C_24  and  S_25 
ROOT
HETATM    1  S   UNK N   1      27.178  25.862  -8.858  0.00  0.00     0.259 S 
HETATM    2  O   UNK N   1      27.220  27.071  -9.803  0.00  0.00    -0.201 OA
HETATM    3  O   UNK N   1      28.448  25.311  -9.527  0.00  0.00    -0.201 OA
ENDROOT
BRANCH   1   4
HETATM    4  C   UNK N   1      27.589  27.233  -7.734  0.00  0.00     0.090 A 
HETATM    5  C   UNK N   1      26.871  27.470  -6.520  0.00  0.00    -0.000 A 
HETATM    6  C   UNK N   1      27.243  28.537  -5.660  0.00  0.00     0.002 A 
HETATM    7  C   UNK N   1      25.807  26.632  -6.151  0.00  0.00     0.014 A 
HETATM    8  C   UNK N   1      28.309  29.362  -6.053  0.00  0.00     0.014 A 
HETATM    9  C   UNK N   1      26.537  28.733  -4.427  0.00  0.00     0.040 A 
HETATM   10  C   UNK N   1      28.993  29.144  -7.250  0.00  0.00     0.003 A 
HETATM   11  C   UNK N   1      28.639  28.084  -8.082  0.00  0.00     0.026 A 
HETATM   12  C   UNK N   1      25.488  27.848  -4.112  0.00  0.00     0.030 A 
HETATM   13  C   UNK N   1      25.125  26.816  -4.963  0.00  0.00     0.003 A 
BRANCH   9  14
HETATM   14  N   UNK N   1      26.840  29.778  -3.482  0.00  0.00    -0.389 N 
HETATM   15  C   UNK N   1      26.189  31.061  -3.594  0.00  0.00     0.149 C 
HETATM   16  C   UNK N   1      27.788  29.620  -2.410  0.00  0.00     0.149 C 
ENDBRANCH   9  14
ENDBRANCH   1   4
BRANCH   1  17
HETATM   17  N   UNK N   1      25.820  25.486  -9.951  0.00  0.00    -0.315 N 
HETATM   18  H   UNK N   1      25.327  26.172 -10.524  0.00  0.00     0.172 HD
BRANCH  17  19
HETATM   19  C   UNK N   1      25.514  24.049  -9.910  0.00  0.00     0.132 C 
BRANCH  19  20
HETATM   20  C   UNK N   1      25.276  23.532  -8.482  0.00  0.00     0.022 C 
BRANCH  20  21
HETATM   21  C   UNK N   1      25.994  22.208  -8.231  0.00  0.00     0.021 C 
BRANCH  21  22
HETATM   22  C   UNK N   1      27.375  22.390  -7.641  0.00  0.00     0.122 C 
BRANCH  22  23
HETATM   23  N   UNK N   1      27.268  22.865  -6.282  0.00  0.00    -0.361 N 
HETATM   24  C   UNK N   1      28.136  23.765  -5.760  0.00  0.00     0.218 C 
HETATM   25  O   UNK N   1      29.053  24.210  -6.433  0.00  0.00    -0.274 OA
HETATM   26  H   UNK N   1      26.539  22.524  -5.715  0.00  0.00     0.162 HD
BRANCH  24  27
HETATM   27  C   UNK N   1      27.942  24.243  -4.361  0.00  0.00     0.112 C 
BRANCH  27  28
HETATM   28  C   UNK N   1      29.160  25.029  -3.899  0.00  0.00     0.080 C 
BRANCH  28  29
HETATM   29  S   UNK N   1      30.405  23.904  -3.194  0.00  0.00    -0.182 SA
HETATM   30  H   UNK N   1      31.749  24.001  -3.012  0.00  0.00     0.101 HD
ENDBRANCH  28  29
ENDBRANCH  27  28
ENDBRANCH  24  27
ENDBRANCH  22  23
ENDBRANCH  21  22
ENDBRANCH  20  21
ENDBRANCH  19  20
ENDBRANCH  17  19
ENDBRANCH   1  17
TORSDOF 11
ENDMDL
MODEL 9
REMARK VINA RESULT:      -5.5      5.685      8.844
REMARK  11 active torsions:
REMARK  status: ('A' for Active; 'I' for Inactive)
REMARK    1  A    between atoms: C_3  and  N_4 
REMARK    2  A    between atoms: C_11  and  S_14 
REMARK    3  A    between atoms: S_14  and  N_15 
REMARK    4  A    between atoms: N_15  and  C_16 
REMARK    5  A    between atoms: C_16  and  C_17 
REMARK    6  A    between atoms: C_17  and  C_18 
REMARK    7  A    between atoms: C_18  and  C_19 
REMARK    8  A    between atoms: C_19  and  N_20 
REMARK       I    between atoms: N_20  and  C_21 
REMARK    9  A    between atoms: C_21  and  C_23 
REMARK   10  A    between atoms: C_23  and  C_24 
REMARK   11  A    between atoms: C_24  and  S_25 
ROOT
HETATM    1  S   UNK N   1      33.417  16.798   6.922  0.00  0.00     0.259 S 
HETATM    2  O   UNK N   1      33.007  17.774   8.033  0.00  0.00    -0.201 OA
HETATM    3  O   UNK N   1      34.102  17.955   6.176  0.00  0.00    -0.201 OA
ENDROOT
BRANCH   1   4
HETATM    4  C   UNK N   1      34.434  16.252   8.330  0.00  0.00     0.090 A 
HETATM    5  C   UNK N   1      35.077  14.975   8.361  0.00  0.00    -0.000 A 
HETATM    6  C   UNK N   1      35.882  14.601   9.469  0.00  0.00     0.002 A 
HETATM    7  C   UNK N   1      34.940  14.087   7.283  0.00  0.00     0.014 A 
HETATM    8  C   UNK N   1      36.000  15.507  10.536  0.00  0.00     0.014 A 
HETATM    9  C   UNK N   1      36.551  13.333   9.464  0.00  0.00     0.040 A 
HETATM   10  C   UNK N   1      35.353  16.744  10.514  0.00  0.00     0.003 A 
HETATM   11  C   UNK N   1      34.580  17.116   9.416  0.00  0.00     0.026 A 
HETATM   12  C   UNK N   1      36.381  12.495   8.345  0.00  0.00     0.030 A 
HETATM   13  C   UNK N   1      35.584  12.864   7.272  0.00  0.00     0.003 A 
BRANCH   9  14
HETATM   14  N   UNK N   1      37.395  12.863  10.532  0.00  0.00    -0.389 N 
HETATM   15  C   UNK N   1      38.825  13.037  10.451  0.00  0.00     0.149 C 
HETATM   16  C   UNK N   1      36.886  12.200  11.705  0.00  0.00     0.149 C 
ENDBRANCH   9  14
ENDBRANCH   1   4
BRANCH   1  17
HETATM   17  N   UNK N   1      31.669  16.952   6.609  0.00  0.00    -0.315 N 
HETATM   18  H   UNK N   1      31.208  16.685   5.739  0.00  0.00     0.172 HD
BRANCH  17  19
HETATM   19  C   UNK N   1      30.987  17.516   7.783  0.00  0.00     0.132 C 
BRANCH  19  20
HETATM   20  C   UNK N   1      29.456  17.487   7.653  0.00  0.00     0.022 C 
BRANCH  20  21
HETATM   21  C   UNK N   1      28.798  18.618   8.440  0.00  0.00     0.021 C 
BRANCH  21  22
HETATM   22  C   UNK N   1      27.820  19.421   7.612  0.00  0.00     0.122 C 
BRANCH  22  23
HETATM   23  N   UNK N   1      27.429  18.666   6.445  0.00  0.00    -0.361 N 
HETATM   24  C   UNK N   1      27.623  19.127   5.187  0.00  0.00     0.218 C 
HETATM   25  O   UNK N   1      28.142  20.217   4.994  0.00  0.00    -0.274 OA
HETATM   26  H   UNK N   1      27.009  17.784   6.569  0.00  0.00     0.162 HD
BRANCH  24  27
HETATM   27  C   UNK N   1      27.233  18.276   4.026  0.00  0.00     0.112 C 
BRANCH  27  28
HETATM   28  C   UNK N   1      25.722  18.118   3.973  0.00  0.00     0.080 C 
BRANCH  28  29
HETATM   29  S   UNK N   1      24.924  19.742   3.787  0.00  0.00    -0.182 SA
HETATM   30  H   UNK N   1      24.385  20.621   4.674  0.00  0.00     0.101 HD
ENDBRANCH  28  29
ENDBRANCH  27  28
ENDBRANCH  24  27
ENDBRANCH  22  23
ENDBRANCH  21  22
ENDBRANCH  20  21
ENDBRANCH  19  20
ENDBRANCH  17  19
ENDBRANCH   1  17
TORSDOF 11
ENDMDL
