MODEL 1
REMARK VINA RESULT:      -7.6      0.000      0.000
REMARK  10 active torsions:
REMARK  status: ('A' for Active; 'I' for Inactive)
REMARK    1  A    between atoms: O_2  and  C_3 
REMARK    2  A    between atoms: C_7  and  S_12 
REMARK    3  A    between atoms: S_12  and  N_15 
REMARK    4  A    between atoms: N_15  and  C_16 
REMARK    5  A    between atoms: C_16  and  C_17 
REMARK    6  A    between atoms: C_17  and  O_18 
REMARK    7  A    between atoms: C_17  and  C_19 
REMARK    8  A    between atoms: C_19  and  N_20 
REMARK    9  A    between atoms: C_19  and  C_21 
REMARK   10  A    between atoms: C_21  and  C_22 
ROOT
HETATM    1  N   UNK N   1      34.695  15.100  11.470  0.00  0.00    -0.313 N 
HETATM    2  H   UNK N   1      33.739  14.753  11.538  0.00  0.00     0.172 HD
ENDROOT
BRANCH   1   3
HETATM    3  S   UNK N   1      35.343  16.006  10.091  0.00  0.00     0.259 S 
HETATM    4  O   UNK N   1      36.811  15.562  10.136  0.00  0.00    -0.200 OA
HETATM    5  O   UNK N   1      35.484  17.486  10.484  0.00  0.00    -0.200 OA
BRANCH   3   6
HETATM    6  C   UNK N   1      34.771  15.671   8.396  0.00  0.00     0.092 A 
HETATM    7  C   UNK N   1      34.684  14.336   7.964  0.00  0.00    -0.035 A 
HETATM    8  C   UNK N   1      34.144  14.034   6.720  0.00  0.00     0.045 A 
HETATM    9  C   UNK N   1      35.137  13.204   8.822  0.00  0.00     0.050 C 
HETATM   10  C   UNK N   1      33.679  15.027   5.864  0.00  0.00     0.075 A 
HETATM   11  C   UNK N   1      33.804  16.391   6.256  0.00  0.00    -0.021 A 
HETATM   12  C   UNK N   1      34.355  16.705   7.526  0.00  0.00    -0.029 A 
HETATM   13  C   UNK N   1      33.352  17.508   5.367  0.00  0.00     0.052 C 
HETATM   14  C   UNK N   1      34.471  18.137   7.944  0.00  0.00     0.050 C 
BRANCH  10  15
HETATM   15  O   UNK N   1      33.117  14.607   4.696  0.00  0.00    -0.355 OA
HETATM   16  C   UNK N   1      31.790  14.328   4.474  0.00  0.00     0.210 C 
ENDBRANCH  10  15
ENDBRANCH   3   6
ENDBRANCH   1   3
BRANCH   1  17
HETATM   17  C   UNK N   1      35.716  14.918  12.497  0.00  0.00     0.166 C 
BRANCH  17  18
HETATM   18  C   UNK N   1      35.669  13.494  13.045  0.00  0.00     0.159 C 
BRANCH  18  19
HETATM   19  O   UNK N   1      34.415  12.939  12.774  0.00  0.00    -0.392 OA
HETATM   20  H   UNK N   1      34.287  11.983  12.670  0.00  0.00     0.210 HD
ENDBRANCH  18  19
BRANCH  18  21
HETATM   21  C   UNK N   1      35.948  13.448  14.557  0.00  0.00     0.108 C 
BRANCH  21  22
HETATM   22  N   UNK N   1      37.307  12.964  14.773  0.00  0.00    -0.423 N 
HETATM   23  H   UNK N   1      38.017  12.237  14.690  0.00  0.00     0.150 HD
HETATM   24  H   UNK N   1      37.784  13.737  15.237  0.00  0.00     0.150 HD
ENDBRANCH  21  22
BRANCH  21  25
HETATM   25  C   UNK N   1      34.889  12.581  15.269  0.00  0.00     0.065 C 
BRANCH  25  26
HETATM   26  C   UNK N   1      35.097  12.430  16.738  0.00  0.00    -0.056 A 
HETATM   27  C   UNK N   1      35.055  13.567  17.549  0.00  0.00     0.007 A 
HETATM   28  C   UNK N   1      35.195  13.443  18.933  0.00  0.00     0.001 A 
HETATM   29  C   UNK N   1      35.380  12.181  19.506  0.00  0.00     0.000 A 
HETATM   30  C   UNK N   1      35.431  11.044  18.694  0.00  0.00     0.001 A 
HETATM   31  C   UNK N   1      35.288  11.166  17.310  0.00  0.00     0.007 A 
ENDBRANCH  25  26
ENDBRANCH  21  25
ENDBRANCH  18  21
ENDBRANCH  17  18
ENDBRANCH   1  17
TORSDOF 10
ENDMDL
MODEL 2
REMARK VINA RESULT:      -7.6      0.966      2.073
REMARK  10 active torsions:
REMARK  status: ('A' for Active; 'I' for Inactive)
REMARK    1  A    between atoms: O_2  and  C_3 
REMARK    2  A    between atoms: C_7  and  S_12 
REMARK    3  A    between atoms: S_12  and  N_15 
REMARK    4  A    between atoms: N_15  and  C_16 
REMARK    5  A    between atoms: C_16  and  C_17 
REMARK    6  A    between atoms: C_17  and  O_18 
REMARK    7  A    between atoms: C_17  and  C_19 
REMARK    8  A    between atoms: C_19  and  N_20 
REMARK    9  A    between atoms: C_19  and  C_21 
REMARK   10  A    between atoms: C_21  and  C_22 
ROOT
HETATM    1  N   UNK N   1      34.469  15.130  11.319  0.00  0.00    -0.313 N 
HETATM    2  H   UNK N   1      33.519  14.782  11.446  0.00  0.00     0.172 HD
ENDROOT
BRANCH   1   3
HETATM    3  S   UNK N   1      35.025  16.047   9.908  0.00  0.00     0.259 S 
HETATM    4  O   UNK N   1      36.262  15.227   9.518  0.00  0.00    -0.200 OA
HETATM    5  O   UNK N   1      35.691  17.349  10.386  0.00  0.00    -0.200 OA
BRANCH   3   6
HETATM    6  C   UNK N   1      34.009  16.165   8.404  0.00  0.00     0.092 A 
HETATM    7  C   UNK N   1      33.967  17.387   7.711  0.00  0.00    -0.035 A 
HETATM    8  C   UNK N   1      33.297  17.485   6.497  0.00  0.00     0.045 A 
HETATM    9  C   UNK N   1      34.654  18.605   8.230  0.00  0.00     0.050 C 
HETATM   10  C   UNK N   1      32.647  16.394   5.932  0.00  0.00     0.075 A 
HETATM   11  C   UNK N   1      32.629  15.158   6.639  0.00  0.00    -0.021 A 
HETATM   12  C   UNK N   1      33.312  15.051   7.879  0.00  0.00    -0.029 A 
HETATM   13  C   UNK N   1      31.920  13.953   6.099  0.00  0.00     0.052 C 
HETATM   14  C   UNK N   1      33.308  13.749   8.613  0.00  0.00     0.050 C 
BRANCH  10  15
HETATM   15  O   UNK N   1      32.073  16.595   4.712  0.00  0.00    -0.355 OA
HETATM   16  C   UNK N   1      32.651  17.199   3.621  0.00  0.00     0.210 C 
ENDBRANCH  10  15
ENDBRANCH   3   6
ENDBRANCH   1   3
BRANCH   1  17
HETATM   17  C   UNK N   1      35.555  14.940  12.275  0.00  0.00     0.166 C 
BRANCH  17  18
HETATM   18  C   UNK N   1      35.498  13.534  12.869  0.00  0.00     0.159 C 
BRANCH  18  19
HETATM   19  O   UNK N   1      34.239  12.980  12.618  0.00  0.00    -0.392 OA
HETATM   20  H   UNK N   1      34.100  12.307  11.934  0.00  0.00     0.210 HD
ENDBRANCH  18  19
BRANCH  18  21
HETATM   21  C   UNK N   1      35.780  13.535  14.381  0.00  0.00     0.108 C 
BRANCH  21  22
HETATM   22  N   UNK N   1      37.219  13.431  14.594  0.00  0.00    -0.423 N 
HETATM   23  H   UNK N   1      38.030  13.438  15.211  0.00  0.00     0.150 HD
HETATM   24  H   UNK N   1      37.605  13.272  13.663  0.00  0.00     0.150 HD
ENDBRANCH  21  22
BRANCH  21  25
HETATM   25  C   UNK N   1      34.995  12.400  15.071  0.00  0.00     0.065 C 
BRANCH  25  26
HETATM   26  C   UNK N   1      35.163  12.341  16.551  0.00  0.00    -0.056 A 
HETATM   27  C   UNK N   1      35.014  13.512  17.299  0.00  0.00     0.007 A 
HETATM   28  C   UNK N   1      35.115  13.470  18.690  0.00  0.00     0.001 A 
HETATM   29  C   UNK N   1      35.368  12.256  19.336  0.00  0.00     0.000 A 
HETATM   30  C   UNK N   1      35.526  11.085  18.589  0.00  0.00     0.001 A 
HETATM   31  C   UNK N   1      35.421  11.124  17.196  0.00  0.00     0.007 A 
ENDBRANCH  25  26
ENDBRANCH  21  25
ENDBRANCH  18  21
ENDBRANCH  17  18
ENDBRANCH   1  17
TORSDOF 10
ENDMDL
MODEL 3
REMARK VINA RESULT:      -7.4      2.755      3.956
REMARK  10 active torsions:
REMARK  status: ('A' for Active; 'I' for Inactive)
REMARK    1  A    between atoms: O_2  and  C_3 
REMARK    2  A    between atoms: C_7  and  S_12 
REMARK    3  A    between atoms: S_12  and  N_15 
REMARK    4  A    between atoms: N_15  and  C_16 
REMARK    5  A    between atoms: C_16  and  C_17 
REMARK    6  A    between atoms: C_17  and  O_18 
REMARK    7  A    between atoms: C_17  and  C_19 
REMARK    8  A    between atoms: C_19  and  N_20 
REMARK    9  A    between atoms: C_19  and  C_21 
REMARK   10  A    between atoms: C_21  and  C_22 
ROOT
HETATM    1  N   UNK N   1      33.742  16.754   9.303  0.00  0.00    -0.313 N 
HETATM    2  H   UNK N   1      33.144  17.134  10.037  0.00  0.00     0.172 HD
ENDROOT
BRANCH   1   3
HETATM    3  S   UNK N   1      33.672  17.232   7.598  0.00  0.00     0.259 S 
HETATM    4  O   UNK N   1      34.445  16.073   6.956  0.00  0.00    -0.200 OA
HETATM    5  O   UNK N   1      34.657  18.391   7.361  0.00  0.00    -0.200 OA
BRANCH   3   6
HETATM    6  C   UNK N   1      32.086  17.327   6.713  0.00  0.00     0.092 A 
HETATM    7  C   UNK N   1      32.099  17.387   5.309  0.00  0.00    -0.035 A 
HETATM    8  C   UNK N   1      30.908  17.344   4.593  0.00  0.00     0.045 A 
HETATM    9  C   UNK N   1      33.374  17.473   4.540  0.00  0.00     0.050 C 
HETATM   10  C   UNK N   1      29.676  17.244   5.229  0.00  0.00     0.075 A 
HETATM   11  C   UNK N   1      29.632  17.235   6.652  0.00  0.00    -0.021 A 
HETATM   12  C   UNK N   1      30.844  17.279   7.389  0.00  0.00    -0.029 A 
HETATM   13  C   UNK N   1      28.334  17.161   7.398  0.00  0.00     0.052 C 
HETATM   14  C   UNK N   1      30.799  17.251   8.884  0.00  0.00     0.050 C 
BRANCH  10  15
HETATM   15  O   UNK N   1      28.582  17.151   4.421  0.00  0.00    -0.355 OA
HETATM   16  C   UNK N   1      28.319  16.162   3.503  0.00  0.00     0.210 C 
ENDBRANCH  10  15
ENDBRANCH   3   6
ENDBRANCH   1   3
BRANCH   1  17
HETATM   17  C   UNK N   1      34.771  15.741   9.517  0.00  0.00     0.166 C 
BRANCH  17  18
HETATM   18  C   UNK N   1      34.341  14.772  10.616  0.00  0.00     0.159 C 
BRANCH  18  19
HETATM   19  O   UNK N   1      33.042  15.090  11.026  0.00  0.00    -0.392 OA
HETATM   20  H   UNK N   1      32.603  15.910  10.753  0.00  0.00     0.210 HD
ENDBRANCH  18  19
BRANCH  18  21
HETATM   21  C   UNK N   1      35.296  14.808  11.822  0.00  0.00     0.108 C 
BRANCH  21  22
HETATM   22  N   UNK N   1      36.420  15.682  11.509  0.00  0.00    -0.423 N 
HETATM   23  H   UNK N   1      36.840  16.430  10.959  0.00  0.00     0.150 HD
HETATM   24  H   UNK N   1      37.149  15.409  12.169  0.00  0.00     0.150 HD
ENDBRANCH  21  22
BRANCH  21  25
HETATM   25  C   UNK N   1      35.740  13.378  12.193  0.00  0.00     0.065 C 
BRANCH  25  26
HETATM   26  C   UNK N   1      35.491  13.000  13.614  0.00  0.00    -0.056 A 
HETATM   27  C   UNK N   1      36.190  13.665  14.625  0.00  0.00     0.007 A 
HETATM   28  C   UNK N   1      35.935  13.364  15.964  0.00  0.00     0.001 A 
HETATM   29  C   UNK N   1      34.982  12.395  16.293  0.00  0.00     0.000 A 
HETATM   30  C   UNK N   1      34.289  11.723  15.281  0.00  0.00     0.001 A 
HETATM   31  C   UNK N   1      34.540  12.025  13.941  0.00  0.00     0.007 A 
ENDBRANCH  25  26
ENDBRANCH  21  25
ENDBRANCH  18  21
ENDBRANCH  17  18
ENDBRANCH   1  17
TORSDOF 10
ENDMDL
MODEL 4
REMARK VINA RESULT:      -7.1      2.870      9.656
REMARK  10 active torsions:
REMARK  status: ('A' for Active; 'I' for Inactive)
REMARK    1  A    between atoms: O_2  and  C_3 
REMARK    2  A    between atoms: C_7  and  S_12 
REMARK    3  A    between atoms: S_12  and  N_15 
REMARK    4  A    between atoms: N_15  and  C_16 
REMARK    5  A    between atoms: C_16  and  C_17 
REMARK    6  A    between atoms: C_17  and  O_18 
REMARK    7  A    between atoms: C_17  and  C_19 
REMARK    8  A    between atoms: C_19  and  N_20 
REMARK    9  A    between atoms: C_19  and  C_21 
REMARK   10  A    between atoms: C_21  and  C_22 
ROOT
HETATM    1  N   UNK N   1      36.256  11.788  12.868  0.00  0.00    -0.313 N 
HETATM    2  H   UNK N   1      36.863  10.973  12.780  0.00  0.00     0.172 HD
ENDROOT
BRANCH   1   3
HETATM    3  S   UNK N   1      35.903  12.620  14.393  0.00  0.00     0.259 S 
HETATM    4  O   UNK N   1      34.640  13.396  13.996  0.00  0.00    -0.200 OA
HETATM    5  O   UNK N   1      36.899  13.778  14.575  0.00  0.00    -0.200 OA
BRANCH   3   6
HETATM    6  C   UNK N   1      35.466  11.687  15.893  0.00  0.00     0.092 A 
HETATM    7  C   UNK N   1      35.204  10.311  15.780  0.00  0.00    -0.035 A 
HETATM    8  C   UNK N   1      34.981   9.542  16.916  0.00  0.00     0.045 A 
HETATM    9  C   UNK N   1      35.182   9.624  14.456  0.00  0.00     0.050 C 
HETATM   10  C   UNK N   1      35.003  10.098  18.190  0.00  0.00     0.075 A 
HETATM   11  C   UNK N   1      35.213  11.500  18.329  0.00  0.00    -0.021 A 
HETATM   12  C   UNK N   1      35.442  12.290  17.172  0.00  0.00    -0.029 A 
HETATM   13  C   UNK N   1      35.217  12.165  19.671  0.00  0.00     0.052 C 
HETATM   14  C   UNK N   1      35.680  13.759  17.319  0.00  0.00     0.050 C 
BRANCH  10  15
HETATM   15  O   UNK N   1      34.828   9.236  19.231  0.00  0.00    -0.355 OA
HETATM   16  C   UNK N   1      35.374   7.981  19.361  0.00  0.00     0.210 C 
ENDBRANCH  10  15
ENDBRANCH   3   6
ENDBRANCH   1   3
BRANCH   1  17
HETATM   17  C   UNK N   1      35.560  12.426  11.756  0.00  0.00     0.166 C 
BRANCH  17  18
HETATM   18  C   UNK N   1      36.501  13.375  11.016  0.00  0.00     0.159 C 
BRANCH  18  19
HETATM   19  O   UNK N   1      37.759  13.340  11.623  0.00  0.00    -0.392 OA
HETATM   20  H   UNK N   1      38.204  12.505  11.838  0.00  0.00     0.210 HD
ENDBRANCH  18  19
BRANCH  18  21
HETATM   21  C   UNK N   1      35.967  14.817  10.996  0.00  0.00     0.108 C 
BRANCH  21  22
HETATM   22  N   UNK N   1      36.308  15.465  12.257  0.00  0.00    -0.423 N 
HETATM   23  H   UNK N   1      36.039  15.981  13.095  0.00  0.00     0.150 HD
HETATM   24  H   UNK N   1      37.316  15.338  12.346  0.00  0.00     0.150 HD
ENDBRANCH  21  22
BRANCH  21  25
HETATM   25  C   UNK N   1      34.449  14.821  10.719  0.00  0.00     0.065 C 
BRANCH  25  26
HETATM   26  C   UNK N   1      34.007  15.816   9.700  0.00  0.00    -0.056 A 
HETATM   27  C   UNK N   1      34.800  16.941   9.462  0.00  0.00     0.007 A 
HETATM   28  C   UNK N   1      34.433  17.859   8.476  0.00  0.00     0.001 A 
HETATM   29  C   UNK N   1      33.269  17.652   7.729  0.00  0.00     0.000 A 
HETATM   30  C   UNK N   1      32.470  16.531   7.972  0.00  0.00     0.001 A 
HETATM   31  C   UNK N   1      32.838  15.610   8.956  0.00  0.00     0.007 A 
ENDBRANCH  25  26
ENDBRANCH  21  25
ENDBRANCH  18  21
ENDBRANCH  17  18
ENDBRANCH   1  17
TORSDOF 10
ENDMDL
MODEL 5
REMARK VINA RESULT:      -7.0      2.489      9.756
REMARK  10 active torsions:
REMARK  status: ('A' for Active; 'I' for Inactive)
REMARK    1  A    between atoms: O_2  and  C_3 
REMARK    2  A    between atoms: C_7  and  S_12 
REMARK    3  A    between atoms: S_12  and  N_15 
REMARK    4  A    between atoms: N_15  and  C_16 
REMARK    5  A    between atoms: C_16  and  C_17 
REMARK    6  A    between atoms: C_17  and  O_18 
REMARK    7  A    between atoms: C_17  and  C_19 
REMARK    8  A    between atoms: C_19  and  N_20 
REMARK    9  A    between atoms: C_19  and  C_21 
REMARK   10  A    between atoms: C_21  and  C_22 
ROOT
HETATM    1  N   UNK N   1      37.198  13.443  12.354  0.00  0.00    -0.313 N 
HETATM    2  H   UNK N   1      38.203  13.368  12.198  0.00  0.00     0.172 HD
ENDROOT
BRANCH   1   3
HETATM    3  S   UNK N   1      36.429  13.521  13.949  0.00  0.00     0.259 S 
HETATM    4  O   UNK N   1      34.967  13.738  13.539  0.00  0.00    -0.200 OA
HETATM    5  O   UNK N   1      36.745  14.882  14.593  0.00  0.00    -0.200 OA
BRANCH   3   6
HETATM    6  C   UNK N   1      36.428  12.082  15.063  0.00  0.00     0.092 A 
HETATM    7  C   UNK N   1      37.138  10.931  14.679  0.00  0.00    -0.035 A 
HETATM    8  C   UNK N   1      37.257   9.856  15.552  0.00  0.00     0.045 A 
HETATM    9  C   UNK N   1      37.805  10.829  13.349  0.00  0.00     0.050 C 
HETATM   10  C   UNK N   1      36.684   9.875  16.818  0.00  0.00     0.075 A 
HETATM   11  C   UNK N   1      35.914  11.008  17.211  0.00  0.00    -0.021 A 
HETATM   12  C   UNK N   1      35.789  12.109  16.324  0.00  0.00    -0.029 A 
HETATM   13  C   UNK N   1      35.245  11.077  18.549  0.00  0.00     0.052 C 
HETATM   14  C   UNK N   1      34.996  13.306  16.743  0.00  0.00     0.050 C 
BRANCH  10  15
HETATM   15  O   UNK N   1      36.916   8.788  17.607  0.00  0.00    -0.355 OA
HETATM   16  C   UNK N   1      37.938   7.878  17.473  0.00  0.00     0.210 C 
ENDBRANCH  10  15
ENDBRANCH   3   6
ENDBRANCH   1   3
BRANCH   1  17
HETATM   17  C   UNK N   1      36.198  13.500  11.292  0.00  0.00     0.166 C 
BRANCH  17  18
HETATM   18  C   UNK N   1      36.203  14.877  10.633  0.00  0.00     0.159 C 
BRANCH  18  19
HETATM   19  O   UNK N   1      36.708  15.817  11.535  0.00  0.00    -0.392 OA
HETATM   20  H   UNK N   1      37.504  15.648  12.062  0.00  0.00     0.210 HD
ENDBRANCH  18  19
BRANCH  18  21
HETATM   21  C   UNK N   1      34.798  15.298  10.166  0.00  0.00     0.108 C 
BRANCH  21  22
HETATM   22  N   UNK N   1      33.832  14.948  11.201  0.00  0.00    -0.423 N 
HETATM   23  H   UNK N   1      33.560  14.889  12.182  0.00  0.00     0.150 HD
HETATM   24  H   UNK N   1      33.029  14.581  10.689  0.00  0.00     0.150 HD
ENDBRANCH  21  22
BRANCH  21  25
HETATM   25  C   UNK N   1      34.471  14.649   8.805  0.00  0.00     0.065 C 
BRANCH  25  26
HETATM   26  C   UNK N   1      33.932  15.591   7.783  0.00  0.00    -0.056 A 
HETATM   27  C   UNK N   1      32.838  16.395   8.112  0.00  0.00     0.007 A 
HETATM   28  C   UNK N   1      32.349  17.321   7.188  0.00  0.00     0.001 A 
HETATM   29  C   UNK N   1      32.954  17.442   5.933  0.00  0.00     0.000 A 
HETATM   30  C   UNK N   1      34.044  16.632   5.600  0.00  0.00     0.001 A 
HETATM   31  C   UNK N   1      34.536  15.707   6.524  0.00  0.00     0.007 A 
ENDBRANCH  25  26
ENDBRANCH  21  25
ENDBRANCH  18  21
ENDBRANCH  17  18
ENDBRANCH   1  17
TORSDOF 10
ENDMDL
MODEL 6
REMARK VINA RESULT:      -6.9      2.477      9.838
REMARK  10 active torsions:
REMARK  status: ('A' for Active; 'I' for Inactive)
REMARK    1  A    between atoms: O_2  and  C_3 
REMARK    2  A    between atoms: C_7  and  S_12 
REMARK    3  A    between atoms: S_12  and  N_15 
REMARK    4  A    between atoms: N_15  and  C_16 
REMARK    5  A    between atoms: C_16  and  C_17 
REMARK    6  A    between atoms: C_17  and  O_18 
REMARK    7  A    between atoms: C_17  and  C_19 
REMARK    8  A    between atoms: C_19  and  N_20 
REMARK    9  A    between atoms: C_19  and  C_21 
REMARK   10  A    between atoms: C_21  and  C_22 
ROOT
HETATM    1  N   UNK N   1      37.126  13.515  12.460  0.00  0.00    -0.313 N 
HETATM    2  H   UNK N   1      38.125  13.451  12.262  0.00  0.00     0.172 HD
ENDROOT
BRANCH   1   3
HETATM    3  S   UNK N   1      36.427  13.616  14.085  0.00  0.00     0.259 S 
HETATM    4  O   UNK N   1      34.943  13.785  13.736  0.00  0.00    -0.200 OA
HETATM    5  O   UNK N   1      36.735  15.001  14.679  0.00  0.00    -0.200 OA
BRANCH   3   6
HETATM    6  C   UNK N   1      36.513  12.207  15.234  0.00  0.00     0.092 A 
HETATM    7  C   UNK N   1      35.747  12.250  16.413  0.00  0.00    -0.035 A 
HETATM    8  C   UNK N   1      35.696  11.147  17.257  0.00  0.00     0.045 A 
HETATM    9  C   UNK N   1      34.950  13.454  16.786  0.00  0.00     0.050 C 
HETATM   10  C   UNK N   1      36.392   9.977  16.975  0.00  0.00     0.075 A 
HETATM   11  C   UNK N   1      37.217   9.927  15.815  0.00  0.00    -0.021 A 
HETATM   12  C   UNK N   1      37.274  11.050  14.948  0.00  0.00    -0.029 A 
HETATM   13  C   UNK N   1      38.018   8.708  15.472  0.00  0.00     0.052 C 
HETATM   14  C   UNK N   1      38.126  10.991  13.721  0.00  0.00     0.050 C 
BRANCH  10  15
HETATM   15  O   UNK N   1      36.220   8.943  17.846  0.00  0.00    -0.355 OA
HETATM   16  C   UNK N   1      35.184   8.039  17.855  0.00  0.00     0.210 C 
ENDBRANCH  10  15
ENDBRANCH   3   6
ENDBRANCH   1   3
BRANCH   1  17
HETATM   17  C   UNK N   1      36.080  13.534  11.443  0.00  0.00     0.166 C 
BRANCH  17  18
HETATM   18  C   UNK N   1      36.223  14.770  10.558  0.00  0.00     0.159 C 
BRANCH  18  19
HETATM   19  O   UNK N   1      36.820  15.797  11.297  0.00  0.00    -0.392 OA
HETATM   20  H   UNK N   1      37.782  15.912  11.332  0.00  0.00     0.210 HD
ENDBRANCH  18  19
BRANCH  18  21
HETATM   21  C   UNK N   1      34.869  15.242  10.002  0.00  0.00     0.108 C 
BRANCH  21  22
HETATM   22  N   UNK N   1      33.823  14.915  10.964  0.00  0.00    -0.423 N 
HETATM   23  H   UNK N   1      32.945  14.454  11.204  0.00  0.00     0.150 HD
HETATM   24  H   UNK N   1      34.114  15.378  11.826  0.00  0.00     0.150 HD
ENDBRANCH  21  22
BRANCH  21  25
HETATM   25  C   UNK N   1      34.615  14.616   8.615  0.00  0.00     0.065 C 
BRANCH  25  26
HETATM   26  C   UNK N   1      34.200  15.589   7.563  0.00  0.00    -0.056 A 
HETATM   27  C   UNK N   1      33.923  16.908   7.930  0.00  0.00     0.007 A 
HETATM   28  C   UNK N   1      33.583  17.847   6.954  0.00  0.00     0.001 A 
HETATM   29  C   UNK N   1      33.518  17.467   5.611  0.00  0.00     0.000 A 
HETATM   30  C   UNK N   1      33.787  16.145   5.243  0.00  0.00     0.001 A 
HETATM   31  C   UNK N   1      34.130  15.204   6.218  0.00  0.00     0.007 A 
ENDBRANCH  25  26
ENDBRANCH  21  25
ENDBRANCH  18  21
ENDBRANCH  17  18
ENDBRANCH   1  17
TORSDOF 10
ENDMDL
MODEL 7
REMARK VINA RESULT:      -6.9      2.664      3.910
REMARK  10 active torsions:
REMARK  status: ('A' for Active; 'I' for Inactive)
REMARK    1  A    between atoms: O_2  and  C_3 
REMARK    2  A    between atoms: C_7  and  S_12 
REMARK    3  A    between atoms: S_12  and  N_15 
REMARK    4  A    between atoms: N_15  and  C_16 
REMARK    5  A    between atoms: C_16  and  C_17 
REMARK    6  A    between atoms: C_17  and  O_18 
REMARK    7  A    between atoms: C_17  and  C_19 
REMARK    8  A    between atoms: C_19  and  N_20 
REMARK    9  A    between atoms: C_19  and  C_21 
REMARK   10  A    between atoms: C_21  and  C_22 
ROOT
HETATM    1  N   UNK N   1      33.764  16.558   9.373  0.00  0.00    -0.313 N 
HETATM    2  H   UNK N   1      33.111  16.740  10.136  0.00  0.00     0.172 HD
ENDROOT
BRANCH   1   3
HETATM    3  S   UNK N   1      33.712  17.356   7.792  0.00  0.00     0.259 S 
HETATM    4  O   UNK N   1      34.831  16.599   7.065  0.00  0.00    -0.200 OA
HETATM    5  O   UNK N   1      34.349  18.752   7.912  0.00  0.00    -0.200 OA
BRANCH   3   6
HETATM    6  C   UNK N   1      32.245  17.229   6.722  0.00  0.00     0.092 A 
HETATM    7  C   UNK N   1      30.975  17.419   7.293  0.00  0.00    -0.035 A 
HETATM    8  C   UNK N   1      29.841  17.444   6.490  0.00  0.00     0.045 A 
HETATM    9  C   UNK N   1      30.798  17.625   8.759  0.00  0.00     0.050 C 
HETATM   10  C   UNK N   1      29.917  17.280   5.112  0.00  0.00     0.075 A 
HETATM   11  C   UNK N   1      31.186  17.033   4.515  0.00  0.00    -0.021 A 
HETATM   12  C   UNK N   1      32.349  17.006   5.329  0.00  0.00    -0.029 A 
HETATM   13  C   UNK N   1      31.332  16.817   3.039  0.00  0.00     0.052 C 
HETATM   14  C   UNK N   1      33.684  16.764   4.700  0.00  0.00     0.050 C 
BRANCH  10  15
HETATM   15  O   UNK N   1      28.745  17.381   4.422  0.00  0.00    -0.355 OA
HETATM   16  C   UNK N   1      27.871  16.361   4.132  0.00  0.00     0.210 C 
ENDBRANCH  10  15
ENDBRANCH   3   6
ENDBRANCH   1   3
BRANCH   1  17
HETATM   17  C   UNK N   1      34.865  15.604   9.437  0.00  0.00     0.166 C 
BRANCH  17  18
HETATM   18  C   UNK N   1      34.685  14.665  10.628  0.00  0.00     0.159 C 
BRANCH  18  19
HETATM   19  O   UNK N   1      33.469  14.949  11.257  0.00  0.00    -0.392 OA
HETATM   20  H   UNK N   1      32.881  14.248  11.579  0.00  0.00     0.210 HD
ENDBRANCH  18  19
BRANCH  18  21
HETATM   21  C   UNK N   1      35.840  14.787  11.638  0.00  0.00     0.108 C 
BRANCH  21  22
HETATM   22  N   UNK N   1      36.770  15.809  11.172  0.00  0.00    -0.423 N 
HETATM   23  H   UNK N   1      36.979  16.774  10.916  0.00  0.00     0.150 HD
HETATM   24  H   UNK N   1      37.649  15.310  11.031  0.00  0.00     0.150 HD
ENDBRANCH  21  22
BRANCH  21  25
HETATM   25  C   UNK N   1      36.517  13.417  11.843  0.00  0.00     0.065 C 
BRANCH  25  26
HETATM   26  C   UNK N   1      36.483  12.912  13.246  0.00  0.00    -0.056 A 
HETATM   27  C   UNK N   1      35.790  13.644  14.214  0.00  0.00     0.007 A 
HETATM   28  C   UNK N   1      35.702  13.163  15.522  0.00  0.00     0.001 A 
HETATM   29  C   UNK N   1      36.309  11.951  15.863  0.00  0.00     0.000 A 
HETATM   30  C   UNK N   1      37.010  11.222  14.897  0.00  0.00     0.001 A 
HETATM   31  C   UNK N   1      37.097  11.700  13.587  0.00  0.00     0.007 A 
ENDBRANCH  25  26
ENDBRANCH  21  25
ENDBRANCH  18  21
ENDBRANCH  17  18
ENDBRANCH   1  17
TORSDOF 10
ENDMDL
MODEL 8
REMARK VINA RESULT:      -6.8      3.885      8.500
REMARK  10 active torsions:
REMARK  status: ('A' for Active; 'I' for Inactive)
REMARK    1  A    between atoms: O_2  and  C_3 
REMARK    2  A    between atoms: C_7  and  S_12 
REMARK    3  A    between atoms: S_12  and  N_15 
REMARK    4  A    between atoms: N_15  and  C_16 
REMARK    5  A    between atoms: C_16  and  C_17 
REMARK    6  A    between atoms: C_17  and  O_18 
REMARK    7  A    between atoms: C_17  and  C_19 
REMARK    8  A    between atoms: C_19  and  N_20 
REMARK    9  A    between atoms: C_19  and  C_21 
REMARK   10  A    between atoms: C_21  and  C_22 
ROOT
HETATM    1  N   UNK N   1      36.890  13.768  13.227  0.00  0.00    -0.313 N 
HETATM    2  H   UNK N   1      37.632  13.288  12.717  0.00  0.00     0.172 HD
ENDROOT
BRANCH   1   3
HETATM    3  S   UNK N   1      36.373  13.360  14.872  0.00  0.00     0.259 S 
HETATM    4  O   UNK N   1      34.852  13.499  14.724  0.00  0.00    -0.200 OA
HETATM    5  O   UNK N   1      36.675  14.548  15.802  0.00  0.00    -0.200 OA
BRANCH   3   6
HETATM    6  C   UNK N   1      36.658  11.701  15.562  0.00  0.00     0.092 A 
HETATM    7  C   UNK N   1      36.004  11.344  16.754  0.00  0.00    -0.035 A 
HETATM    8  C   UNK N   1      36.104  10.049  17.251  0.00  0.00     0.045 A 
HETATM    9  C   UNK N   1      35.167  12.319  17.511  0.00  0.00     0.050 C 
HETATM   10  C   UNK N   1      36.848   9.072  16.598  0.00  0.00     0.075 A 
HETATM   11  C   UNK N   1      37.563   9.422  15.417  0.00  0.00    -0.021 A 
HETATM   12  C   UNK N   1      37.465  10.742  14.905  0.00  0.00    -0.029 A 
HETATM   13  C   UNK N   1      38.408   8.424  14.685  0.00  0.00     0.052 C 
HETATM   14  C   UNK N   1      38.201  11.105  13.655  0.00  0.00     0.050 C 
BRANCH  10  15
HETATM   15  O   UNK N   1      36.826   7.825  17.148  0.00  0.00    -0.355 OA
HETATM   16  C   UNK N   1      35.851   6.870  16.982  0.00  0.00     0.210 C 
ENDBRANCH  10  15
ENDBRANCH   3   6
ENDBRANCH   1   3
BRANCH   1  17
HETATM   17  C   UNK N   1      36.109  14.882  12.698  0.00  0.00     0.166 C 
BRANCH  17  18
HETATM   18  C   UNK N   1      35.378  14.461  11.426  0.00  0.00     0.159 C 
BRANCH  18  19
HETATM   19  O   UNK N   1      34.024  14.269  11.716  0.00  0.00    -0.392 OA
HETATM   20  H   UNK N   1      33.601  13.400  11.644  0.00  0.00     0.210 HD
ENDBRANCH  18  19
BRANCH  18  21
HETATM   21  C   UNK N   1      35.971  13.178  10.818  0.00  0.00     0.108 C 
BRANCH  21  22
HETATM   22  N   UNK N   1      36.680  13.521   9.590  0.00  0.00    -0.423 N 
HETATM   23  H   UNK N   1      36.948  14.198   8.876  0.00  0.00     0.150 HD
HETATM   24  H   UNK N   1      37.131  12.652   9.303  0.00  0.00     0.150 HD
ENDBRANCH  21  22
BRANCH  21  25
HETATM   25  C   UNK N   1      34.860  12.132  10.590  0.00  0.00     0.065 C 
BRANCH  25  26
HETATM   26  C   UNK N   1      35.010  10.884  11.392  0.00  0.00    -0.056 A 
HETATM   27  C   UNK N   1      34.391  10.803  12.641  0.00  0.00     0.007 A 
HETATM   28  C   UNK N   1      34.475   9.625  13.387  0.00  0.00     0.001 A 
HETATM   29  C   UNK N   1      35.180   8.528  12.882  0.00  0.00     0.000 A 
HETATM   30  C   UNK N   1      35.807   8.611  11.635  0.00  0.00     0.001 A 
HETATM   31  C   UNK N   1      35.721   9.788  10.887  0.00  0.00     0.007 A 
ENDBRANCH  25  26
ENDBRANCH  21  25
ENDBRANCH  18  21
ENDBRANCH  17  18
ENDBRANCH   1  17
TORSDOF 10
ENDMDL
MODEL 9
REMARK VINA RESULT:      -6.8      1.600      2.124
REMARK  10 active torsions:
REMARK  status: ('A' for Active; 'I' for Inactive)
REMARK    1  A    between atoms: O_2  and  C_3 
REMARK    2  A    between atoms: C_7  and  S_12 
REMARK    3  A    between atoms: S_12  and  N_15 
REMARK    4  A    between atoms: N_15  and  C_16 
REMARK    5  A    between atoms: C_16  and  C_17 
REMARK    6  A    between atoms: C_17  and  O_18 
REMARK    7  A    between atoms: C_17  and  C_19 
REMARK    8  A    between atoms: C_19  and  N_20 
REMARK    9  A    between atoms: C_19  and  C_21 
REMARK   10  A    between atoms: C_21  and  C_22 
ROOT
HETATM    1  N   UNK N   1      36.764  14.348  11.512  0.00  0.00    -0.313 N 
HETATM    2  H   UNK N   1      36.625  15.241  11.987  0.00  0.00     0.172 HD
ENDROOT
BRANCH   1   3
HETATM    3  S   UNK N   1      36.934  14.157   9.759  0.00  0.00     0.259 S 
HETATM    4  O   UNK N   1      36.664  12.653   9.620  0.00  0.00    -0.200 OA
HETATM    5  O   UNK N   1      38.427  14.210   9.390  0.00  0.00    -0.200 OA
BRANCH   3   6
HETATM    6  C   UNK N   1      35.788  14.978   8.609  0.00  0.00     0.092 A 
HETATM    7  C   UNK N   1      35.675  14.482   7.299  0.00  0.00    -0.035 A 
HETATM    8  C   UNK N   1      34.729  15.007   6.427  0.00  0.00     0.045 A 
HETATM    9  C   UNK N   1      36.537  13.369   6.806  0.00  0.00     0.050 C 
HETATM   10  C   UNK N   1      33.872  16.033   6.811  0.00  0.00     0.075 A 
HETATM   11  C   UNK N   1      34.001  16.589   8.115  0.00  0.00    -0.021 A 
HETATM   12  C   UNK N   1      34.966  16.057   9.010  0.00  0.00    -0.029 A 
HETATM   13  C   UNK N   1      33.129  17.717   8.579  0.00  0.00     0.052 C 
HETATM   14  C   UNK N   1      35.090  16.629  10.386  0.00  0.00     0.050 C 
BRANCH  10  15
HETATM   15  O   UNK N   1      32.947  16.427   5.890  0.00  0.00    -0.355 OA
HETATM   16  C   UNK N   1      33.198  16.937   4.638  0.00  0.00     0.210 C 
ENDBRANCH  10  15
ENDBRANCH   3   6
ENDBRANCH   1   3
BRANCH   1  17
HETATM   17  C   UNK N   1      36.850  13.057  12.187  0.00  0.00     0.166 C 
BRANCH  17  18
HETATM   18  C   UNK N   1      35.587  12.801  13.006  0.00  0.00     0.159 C 
BRANCH  18  19
HETATM   19  O   UNK N   1      34.560  13.626  12.536  0.00  0.00    -0.392 OA
HETATM   20  H   UNK N   1      33.976  13.356  11.811  0.00  0.00     0.210 HD
ENDBRANCH  18  19
BRANCH  18  21
HETATM   21  C   UNK N   1      35.813  13.048  14.507  0.00  0.00     0.108 C 
BRANCH  21  22
HETATM   22  N   UNK N   1      37.247  13.076  14.771  0.00  0.00    -0.423 N 
HETATM   23  H   UNK N   1      38.213  12.992  14.454  0.00  0.00     0.150 HD
HETATM   24  H   UNK N   1      37.321  13.282  15.768  0.00  0.00     0.150 HD
ENDBRANCH  21  22
BRANCH  21  25
HETATM   25  C   UNK N   1      35.077  11.979  15.341  0.00  0.00     0.065 C 
BRANCH  25  26
HETATM   26  C   UNK N   1      35.137  12.192  16.815  0.00  0.00    -0.056 A 
HETATM   27  C   UNK N   1      35.361  11.096  17.651  0.00  0.00     0.007 A 
HETATM   28  C   UNK N   1      35.473  11.280  19.031  0.00  0.00     0.001 A 
HETATM   29  C   UNK N   1      35.357  12.563  19.575  0.00  0.00     0.000 A 
HETATM   30  C   UNK N   1      35.125  13.660  18.740  0.00  0.00     0.001 A 
HETATM   31  C   UNK N   1      35.016  13.478  17.360  0.00  0.00     0.007 A 
ENDBRANCH  25  26
ENDBRANCH  21  25
ENDBRANCH  18  21
ENDBRANCH  17  18
ENDBRANCH   1  17
TORSDOF 10
ENDMDL
