REMARK  10 active torsions:
REMARK  status: ('A' for Active; 'I' for Inactive)
REMARK    1  A    between atoms: O_2  and  C_3 
REMARK    2  A    between atoms: C_7  and  S_12 
REMARK    3  A    between atoms: S_12  and  N_15 
REMARK    4  A    between atoms: N_15  and  C_16 
REMARK    5  A    between atoms: C_16  and  C_17 
REMARK    6  A    between atoms: C_17  and  O_18 
REMARK    7  A    between atoms: C_17  and  C_19 
REMARK    8  A    between atoms: C_19  and  N_20 
REMARK    9  A    between atoms: C_19  and  C_21 
REMARK   10  A    between atoms: C_21  and  C_22 
ROOT
HETATM    1  N   UNK N   1      -0.188   1.650  -1.161  0.00  0.00    -0.313 N 
HETATM    2  H   UNK N   1       0.065   0.840  -1.727  0.00  0.00     0.172 HD
ENDROOT
BRANCH   1   3
HETATM    3  S   UNK N   1      -1.831   2.018  -0.608  0.00  0.00     0.259 S 
HETATM    4  O   UNK N   1      -2.372   2.765  -1.834  0.00  0.00    -0.200 OA
HETATM    5  O   UNK N   1      -1.771   3.165   0.416  0.00  0.00    -0.200 OA
BRANCH   3   6
HETATM    6  C   UNK N   1      -3.026   0.690  -0.264  0.00  0.00     0.092 A 
HETATM    7  C   UNK N   1      -4.396   1.004  -0.240  0.00  0.00    -0.035 A 
HETATM    8  C   UNK N   1      -5.345  -0.001  -0.096  0.00  0.00     0.045 A 
HETATM    9  C   UNK N   1      -4.881   2.406  -0.392  0.00  0.00     0.050 C 
HETATM   10  C   UNK N   1      -4.981  -1.337   0.032  0.00  0.00     0.075 A 
HETATM   11  C   UNK N   1      -3.598  -1.676   0.064  0.00  0.00    -0.021 A 
HETATM   12  C   UNK N   1      -2.624  -0.654  -0.083  0.00  0.00    -0.029 A 
HETATM   13  C   UNK N   1      -3.140  -3.093   0.231  0.00  0.00     0.052 C 
HETATM   14  C   UNK N   1      -1.172  -1.012  -0.067  0.00  0.00     0.050 C 
BRANCH  10  15
HETATM   15  O   UNK N   1      -6.000  -2.239   0.109  0.00  0.00    -0.355 OA
HETATM   16  C   UNK N   1      -5.890  -3.609   0.076  0.00  0.00     0.210 C 
ENDBRANCH  10  15
ENDBRANCH   3   6
ENDBRANCH   1   3
BRANCH   1  17
HETATM   17  C   UNK N   1       0.755   2.663  -0.698  0.00  0.00     0.166 C 
BRANCH  17  18
HETATM   18  C   UNK N   1       1.492   2.172   0.546  0.00  0.00     0.159 C 
BRANCH  18  19
HETATM   19  O   UNK N   1       2.491   3.091   0.881  0.00  0.00    -0.392 OA
HETATM   20  H   UNK N   1       3.390   2.811   1.113  0.00  0.00     0.210 HD
ENDBRANCH  18  19
BRANCH  18  21
HETATM   21  C   UNK N   1       2.109   0.778   0.338  0.00  0.00     0.108 C 
BRANCH  21  22
HETATM   22  N   UNK N   1       2.685   0.323   1.598  0.00  0.00    -0.423 N 
HETATM   23  H   UNK N   1       2.611  -0.185   2.479  0.00  0.00     0.150 HD
HETATM   24  H   UNK N   1       3.633   0.700   1.598  0.00  0.00     0.150 HD
ENDBRANCH  21  22
BRANCH  21  25
HETATM   25  C   UNK N   1       3.142   0.817  -0.807  0.00  0.00     0.065 C 
BRANCH  25  26
HETATM   26  C   UNK N   1       4.479   0.259  -0.455  0.00  0.00    -0.056 A 
HETATM   27  C   UNK N   1       5.560   1.131  -0.304  0.00  0.00     0.007 A 
HETATM   28  C   UNK N   1       6.809   0.636   0.076  0.00  0.00     0.001 A 
HETATM   29  C   UNK N   1       6.978  -0.733   0.303  0.00  0.00     0.000 A 
HETATM   30  C   UNK N   1       5.899  -1.608   0.144  0.00  0.00     0.001 A 
HETATM   31  C   UNK N   1       4.648  -1.114  -0.233  0.00  0.00     0.007 A 
ENDBRANCH  25  26
ENDBRANCH  21  25
ENDBRANCH  18  21
ENDBRANCH  17  18
ENDBRANCH   1  17
TORSDOF 10
