MODEL 1
REMARK VINA RESULT:      -8.9      0.000      0.000
REMARK  3 active torsions:
REMARK  status: ('A' for Active; 'I' for Inactive)
REMARK       I    between atoms: C_6  and  N_7 
REMARK    1  A    between atoms: C_14  and  C_13 
REMARK    2  A    between atoms: C_22  and  N_21 
REMARK    3  A    between atoms: C_28  and  C_27 
ROOT
HETATM    1  C   UNK N   1      31.860  16.811   5.874  0.00  0.00     0.049 A 
HETATM    2  C   UNK N   1      30.526  17.309   5.878  0.00  0.00     0.263 A 
HETATM    3  O   UNK N   1      30.037  17.684   6.927  0.00  0.00    -0.267 OA
HETATM    4  C   UNK N   1      32.386  16.366   4.633  0.00  0.00    -0.044 A 
HETATM    5  C   UNK N   1      33.767  15.826   4.481  0.00  0.00     0.049 C 
HETATM    6  C   UNK N   1      31.592  16.415   3.485  0.00  0.00     0.025 A 
HETATM    7  C   UNK N   1      30.300  16.934   3.536  0.00  0.00     0.101 A 
HETATM    8  N   UNK N   1      29.778  17.394   4.707  0.00  0.00    -0.289 N 
ENDROOT
BRANCH   1   9
HETATM    9  C   UNK N   1      32.668  16.840   7.167  0.00  0.00    -0.019 A 
HETATM   10  C   UNK N   1      32.661  15.776   8.090  0.00  0.00     0.027 A 
HETATM   11  C   UNK N   1      33.544  15.781   9.183  0.00  0.00     0.008 A 
HETATM   12  C   UNK N   1      34.437  16.852   9.371  0.00  0.00     0.060 A 
HETATM   13  C   UNK N   1      33.591  14.719  10.081  0.00  0.00     0.120 A 
HETATM   14  N   UNK N   1      35.324  16.827  10.395  0.00  0.00    -0.191 N 
HETATM   15  C   UNK N   1      34.427  17.921   8.494  0.00  0.00     0.032 A 
HETATM   16  C   UNK N   1      35.364  15.774  11.250  0.00  0.00     0.676 A 
ATOM     17  HN  UNK N   1      35.967  17.609  10.525  1.00  0.00     0.184 HD
HETATM   18  N   UNK N   1      34.499  14.734  11.095  0.00  0.00    -0.201 N 
HETATM   19  N   UNK N   1      36.312  15.755  12.290  0.00  0.00    -0.234 N 
ATOM     20  HN  UNK N   1      34.531  13.953  11.750  1.00  0.00     0.183 HD
HETATM   21  H   UNK N   1      36.320  15.037  12.964  0.00  0.00     0.174 HD
HETATM   22  H   UNK N   1      36.982  16.474  12.345  0.00  0.00     0.174 HD
HETATM   23  C   UNK N   1      33.559  17.907   7.413  0.00  0.00     0.015 A 
ENDBRANCH   1   9
BRANCH   8  24
HETATM   24  C   UNK N   1      28.462  18.028   4.708  0.00  0.00     0.042 A 
HETATM   25  C   UNK N   1      28.238  19.166   5.495  0.00  0.00     0.046 A 
HETATM   26  C   UNK N   1      27.029  19.836   5.523  0.00  0.00     0.050 A 
HETATM   27  C   UNK N   1      25.975  19.361   4.735  0.00  0.00     0.016 A 
HETATM   28  C   UNK N   1      26.167  18.232   3.921  0.00  0.00     0.003 A 
HETATM   29  C   UNK N   1      27.409  17.573   3.896  0.00  0.00     0.030 A 
BRANCH  26  30
HETATM   30  C   UNK N   1      26.892  21.057   6.392  0.00  0.00     0.417 C 
HETATM   31  F   UNK N   1      28.058  21.810   6.374  0.00  0.00    -0.166 F 
HETATM   32  F   UNK N   1      26.638  20.678   7.697  0.00  0.00    -0.166 F 
HETATM   33  F   UNK N   1      25.858  21.849   5.932  0.00  0.00    -0.166 F 
ENDBRANCH  26  30
ENDBRANCH   8  24
TORSDOF 3
ENDMDL
MODEL 2
REMARK VINA RESULT:      -8.7      8.177      9.386
REMARK  3 active torsions:
REMARK  status: ('A' for Active; 'I' for Inactive)
REMARK       I    between atoms: C_6  and  N_7 
REMARK    1  A    between atoms: C_14  and  C_13 
REMARK    2  A    between atoms: C_22  and  N_21 
REMARK    3  A    between atoms: C_28  and  C_27 
ROOT
HETATM    1  C   UNK N   1      23.096  14.263   5.822  0.00  0.00     0.049 A 
HETATM    2  C   UNK N   1      23.004  15.637   5.461  0.00  0.00     0.263 A 
HETATM    3  O   UNK N   1      22.963  16.479   6.338  0.00  0.00    -0.267 OA
HETATM    4  C   UNK N   1      23.122  13.313   4.768  0.00  0.00    -0.044 A 
HETATM    5  C   UNK N   1      23.221  11.843   5.001  0.00  0.00     0.049 C 
HETATM    6  C   UNK N   1      23.042  13.743   3.442  0.00  0.00     0.025 A 
HETATM    7  C   UNK N   1      22.977  15.102   3.140  0.00  0.00     0.101 A 
HETATM    8  N   UNK N   1      22.979  16.038   4.128  0.00  0.00    -0.289 N 
ENDROOT
BRANCH   1   9
HETATM    9  C   UNK N   1      23.228  13.889   7.295  0.00  0.00    -0.019 A 
HETATM   10  C   UNK N   1      22.118  13.548   8.093  0.00  0.00     0.027 A 
HETATM   11  C   UNK N   1      22.306  13.056   9.395  0.00  0.00     0.008 A 
HETATM   12  C   UNK N   1      23.604  12.906   9.918  0.00  0.00     0.060 A 
HETATM   13  C   UNK N   1      21.230  12.667  10.185  0.00  0.00     0.120 A 
HETATM   14  N   UNK N   1      23.785  12.381  11.154  0.00  0.00    -0.191 N 
HETATM   15  C   UNK N   1      24.701  13.274   9.160  0.00  0.00     0.032 A 
HETATM   16  C   UNK N   1      22.721  11.992  11.902  0.00  0.00     0.676 A 
ATOM     17  HN  UNK N   1      24.729  12.277  11.526  1.00  0.00     0.184 HD
HETATM   18  N   UNK N   1      21.456  12.142  11.421  0.00  0.00    -0.201 N 
HETATM   19  N   UNK N   1      22.931  11.422  13.172  0.00  0.00    -0.234 N 
ATOM     20  HN  UNK N   1      20.663  11.855  11.996  1.00  0.00     0.183 HD
HETATM   21  H   UNK N   1      22.177  11.193  13.762  0.00  0.00     0.174 HD
HETATM   22  H   UNK N   1      23.851  11.248  13.475  0.00  0.00     0.174 HD
HETATM   23  C   UNK N   1      24.508  13.751   7.872  0.00  0.00     0.015 A 
ENDBRANCH   1   9
BRANCH   8  24
HETATM   24  C   UNK N   1      23.016  17.456   3.777  0.00  0.00     0.042 A 
HETATM   25  C   UNK N   1      21.832  18.115   3.417  0.00  0.00     0.046 A 
HETATM   26  C   UNK N   1      21.786  19.461   3.102  0.00  0.00     0.050 A 
HETATM   27  C   UNK N   1      22.970  20.204   3.140  0.00  0.00     0.016 A 
HETATM   28  C   UNK N   1      24.173  19.582   3.511  0.00  0.00     0.003 A 
HETATM   29  C   UNK N   1      24.197  18.215   3.841  0.00  0.00     0.030 A 
BRANCH  26  30
HETATM   30  C   UNK N   1      20.462  20.079   2.739  0.00  0.00     0.417 C 
HETATM   31  F   UNK N   1      20.557  20.786   1.548  0.00  0.00    -0.166 F 
HETATM   32  F   UNK N   1      20.064  20.951   3.734  0.00  0.00    -0.166 F 
HETATM   33  F   UNK N   1      19.510  19.092   2.581  0.00  0.00    -0.166 F 
ENDBRANCH  26  30
ENDBRANCH   8  24
TORSDOF 3
ENDMDL
MODEL 3
REMARK VINA RESULT:      -8.7      7.612      9.083
REMARK  3 active torsions:
REMARK  status: ('A' for Active; 'I' for Inactive)
REMARK       I    between atoms: C_6  and  N_7 
REMARK    1  A    between atoms: C_14  and  C_13 
REMARK    2  A    between atoms: C_22  and  N_21 
REMARK    3  A    between atoms: C_28  and  C_27 
ROOT
HETATM    1  C   UNK N   1      22.968  14.298   5.861  0.00  0.00     0.049 A 
HETATM    2  C   UNK N   1      22.915  15.677   5.513  0.00  0.00     0.263 A 
HETATM    3  O   UNK N   1      22.916  16.512   6.398  0.00  0.00    -0.267 OA
HETATM    4  C   UNK N   1      22.946  13.356   4.799  0.00  0.00    -0.044 A 
HETATM    5  C   UNK N   1      23.001  11.883   5.017  0.00  0.00     0.049 C 
HETATM    6  C   UNK N   1      22.857  13.801   3.478  0.00  0.00     0.025 A 
HETATM    7  C   UNK N   1      22.832  15.164   3.188  0.00  0.00     0.101 A 
HETATM    8  N   UNK N   1      22.881  16.091   4.184  0.00  0.00    -0.289 N 
ENDROOT
BRANCH   1   9
HETATM    9  C   UNK N   1      23.112  13.906   7.328  0.00  0.00    -0.019 A 
HETATM   10  C   UNK N   1      22.005  13.598   8.143  0.00  0.00     0.027 A 
HETATM   11  C   UNK N   1      22.198  13.088   9.437  0.00  0.00     0.008 A 
HETATM   12  C   UNK N   1      23.499  12.888   9.936  0.00  0.00     0.060 A 
HETATM   13  C   UNK N   1      21.123  12.729  10.243  0.00  0.00     0.120 A 
HETATM   14  N   UNK N   1      23.682  12.346  11.164  0.00  0.00    -0.191 N 
HETATM   15  C   UNK N   1      24.594  13.224   9.162  0.00  0.00     0.032 A 
HETATM   16  C   UNK N   1      22.618  11.988  11.927  0.00  0.00     0.676 A 
ATOM     17  HN  UNK N   1      24.628  12.206  11.519  1.00  0.00     0.184 HD
HETATM   18  N   UNK N   1      21.351  12.186  11.470  0.00  0.00    -0.201 N 
HETATM   19  N   UNK N   1      22.830  11.400  13.189  0.00  0.00    -0.234 N 
ATOM     20  HN  UNK N   1      20.559  11.923  12.057  1.00  0.00     0.183 HD
HETATM   21  H   UNK N   1      22.079  11.192  13.790  0.00  0.00     0.174 HD
HETATM   22  H   UNK N   1      23.748  11.191  13.475  0.00  0.00     0.174 HD
HETATM   23  C   UNK N   1      24.397  13.719   7.881  0.00  0.00     0.015 A 
ENDBRANCH   1   9
BRANCH   8  24
HETATM   24  C   UNK N   1      22.958  17.509   3.844  0.00  0.00     0.042 A 
HETATM   25  C   UNK N   1      24.200  18.158   3.839  0.00  0.00     0.046 A 
HETATM   26  C   UNK N   1      24.354  19.489   3.498  0.00  0.00     0.050 A 
HETATM   27  C   UNK N   1      23.222  20.230   3.143  0.00  0.00     0.016 A 
HETATM   28  C   UNK N   1      21.961  19.610   3.120  0.00  0.00     0.003 A 
HETATM   29  C   UNK N   1      21.828  18.252   3.458  0.00  0.00     0.030 A 
BRANCH  26  30
HETATM   30  C   UNK N   1      25.733  20.091   3.512  0.00  0.00     0.417 C 
HETATM   31  F   UNK N   1      25.935  20.839   4.665  0.00  0.00    -0.166 F 
HETATM   32  F   UNK N   1      25.894  20.921   2.419  0.00  0.00    -0.166 F 
HETATM   33  F   UNK N   1      26.684  19.090   3.475  0.00  0.00    -0.166 F 
ENDBRANCH  26  30
ENDBRANCH   8  24
TORSDOF 3
ENDMDL
MODEL 4
REMARK VINA RESULT:      -8.5      9.746     14.352
REMARK  3 active torsions:
REMARK  status: ('A' for Active; 'I' for Inactive)
REMARK       I    between atoms: C_6  and  N_7 
REMARK    1  A    between atoms: C_14  and  C_13 
REMARK    2  A    between atoms: C_22  and  N_21 
REMARK    3  A    between atoms: C_28  and  C_27 
ROOT
HETATM    1  C   UNK N   1      36.460  10.730  16.129  0.00  0.00     0.049 A 
HETATM    2  C   UNK N   1      35.593  10.740  17.258  0.00  0.00     0.263 A 
HETATM    3  O   UNK N   1      34.838  11.680  17.416  0.00  0.00    -0.267 OA
HETATM    4  C   UNK N   1      37.339   9.623  15.993  0.00  0.00    -0.044 A 
HETATM    5  C   UNK N   1      38.297   9.480  14.859  0.00  0.00     0.049 C 
HETATM    6  C   UNK N   1      37.336   8.611  16.955  0.00  0.00     0.025 A 
HETATM    7  C   UNK N   1      36.450   8.656  18.029  0.00  0.00     0.101 A 
HETATM    8  N   UNK N   1      35.576   9.690  18.172  0.00  0.00    -0.289 N 
ENDROOT
BRANCH   1   9
HETATM    9  C   UNK N   1      36.360  11.855  15.104  0.00  0.00    -0.019 A 
HETATM   10  C   UNK N   1      35.626  11.728  13.908  0.00  0.00     0.027 A 
HETATM   11  C   UNK N   1      35.431  12.843  13.076  0.00  0.00     0.008 A 
HETATM   12  C   UNK N   1      35.974  14.093  13.423  0.00  0.00     0.060 A 
HETATM   13  C   UNK N   1      34.669  12.756  11.916  0.00  0.00     0.120 A 
HETATM   14  N   UNK N   1      35.739  15.178  12.646  0.00  0.00    -0.191 N 
HETATM   15  C   UNK N   1      36.731  14.222  14.574  0.00  0.00     0.032 A 
HETATM   16  C   UNK N   1      34.979  15.074  11.527  0.00  0.00     0.676 A 
ATOM     17  HN  UNK N   1      36.138  16.081  12.904  1.00  0.00     0.184 HD
HETATM   18  N   UNK N   1      34.456  13.870  11.164  0.00  0.00    -0.201 N 
HETATM   19  N   UNK N   1      34.723  16.219  10.748  0.00  0.00    -0.234 N 
ATOM     20  HN  UNK N   1      33.895  13.803  10.315  1.00  0.00     0.183 HD
HETATM   21  H   UNK N   1      34.231  16.160   9.897  0.00  0.00     0.174 HD
HETATM   22  H   UNK N   1      35.041  17.096  11.062  0.00  0.00     0.174 HD
HETATM   23  C   UNK N   1      36.912  13.120  15.396  0.00  0.00     0.015 A 
ENDBRANCH   1   9
BRANCH   8  24
HETATM   24  C   UNK N   1      34.590   9.656  19.249  0.00  0.00     0.042 A 
HETATM   25  C   UNK N   1      33.528   8.743  19.193  0.00  0.00     0.046 A 
HETATM   26  C   UNK N   1      32.576   8.633  20.189  0.00  0.00     0.050 A 
HETATM   27  C   UNK N   1      32.668   9.469  21.306  0.00  0.00     0.016 A 
HETATM   28  C   UNK N   1      33.727  10.386  21.406  0.00  0.00     0.003 A 
HETATM   29  C   UNK N   1      34.693  10.474  20.388  0.00  0.00     0.030 A 
BRANCH  26  30
HETATM   30  C   UNK N   1      31.480   7.611  20.041  0.00  0.00     0.417 C 
HETATM   31  F   UNK N   1      30.330   8.192  19.524  0.00  0.00    -0.166 F 
HETATM   32  F   UNK N   1      31.178   7.065  21.273  0.00  0.00    -0.166 F 
HETATM   33  F   UNK N   1      31.884   6.610  19.179  0.00  0.00    -0.166 F 
ENDBRANCH  26  30
ENDBRANCH   8  24
TORSDOF 3
ENDMDL
MODEL 5
REMARK VINA RESULT:      -8.5      5.853     10.291
REMARK  3 active torsions:
REMARK  status: ('A' for Active; 'I' for Inactive)
REMARK       I    between atoms: C_6  and  N_7 
REMARK    1  A    between atoms: C_14  and  C_13 
REMARK    2  A    between atoms: C_22  and  N_21 
REMARK    3  A    between atoms: C_28  and  C_27 
ROOT
HETATM    1  C   UNK N   1      35.620  14.543   9.783  0.00  0.00     0.049 A 
HETATM    2  C   UNK N   1      35.426  14.331  11.177  0.00  0.00     0.263 A 
HETATM    3  O   UNK N   1      34.456  14.821  11.721  0.00  0.00    -0.267 OA
HETATM    4  C   UNK N   1      36.776  13.969   9.191  0.00  0.00    -0.044 A 
HETATM    5  C   UNK N   1      37.102  14.108   7.743  0.00  0.00     0.049 C 
HETATM    6  C   UNK N   1      37.673  13.244   9.978  0.00  0.00     0.025 A 
HETATM    7  C   UNK N   1      37.425  13.044  11.335  0.00  0.00     0.101 A 
HETATM    8  N   UNK N   1      36.311  13.558  11.925  0.00  0.00    -0.289 N 
ENDROOT
BRANCH   1   9
HETATM    9  C   UNK N   1      34.563  15.308   8.993  0.00  0.00    -0.019 A 
HETATM   10  C   UNK N   1      33.627  14.666   8.159  0.00  0.00     0.027 A 
HETATM   11  C   UNK N   1      32.575  15.396   7.582  0.00  0.00     0.008 A 
HETATM   12  C   UNK N   1      32.451  16.776   7.823  0.00  0.00     0.060 A 
HETATM   13  C   UNK N   1      31.610  14.776   6.794  0.00  0.00     0.120 A 
HETATM   14  N   UNK N   1      31.405  17.467   7.308  0.00  0.00    -0.191 N 
HETATM   15  C   UNK N   1      33.386  17.427   8.607  0.00  0.00     0.032 A 
HETATM   16  C   UNK N   1      30.466  16.839   6.556  0.00  0.00     0.676 A 
ATOM     17  HN  UNK N   1      31.323  18.468   7.486  1.00  0.00     0.184 HD
HETATM   18  N   UNK N   1      30.574  15.507   6.298  0.00  0.00    -0.201 N 
HETATM   19  N   UNK N   1      29.371  17.570   6.054  0.00  0.00    -0.234 N 
ATOM     20  HN  UNK N   1      29.867  15.048   5.723  1.00  0.00     0.183 HD
HETATM   21  H   UNK N   1      28.712  17.155   5.452  0.00  0.00     0.174 HD
HETATM   22  H   UNK N   1      29.263  18.513   6.312  0.00  0.00     0.174 HD
HETATM   23  C   UNK N   1      34.417  16.699   9.182  0.00  0.00     0.015 A 
ENDBRANCH   1   9
BRANCH   8  24
HETATM   24  C   UNK N   1      36.026  13.243  13.322  0.00  0.00     0.042 A 
HETATM   25  C   UNK N   1      35.280  12.100  13.641  0.00  0.00     0.046 A 
HETATM   26  C   UNK N   1      34.998  11.722  14.941  0.00  0.00     0.050 A 
HETATM   27  C   UNK N   1      35.473  12.514  15.992  0.00  0.00     0.016 A 
HETATM   28  C   UNK N   1      36.237  13.659  15.713  0.00  0.00     0.003 A 
HETATM   29  C   UNK N   1      36.525  14.018  14.384  0.00  0.00     0.030 A 
BRANCH  26  30
HETATM   30  C   UNK N   1      34.199  10.469  15.179  0.00  0.00     0.417 C 
HETATM   31  F   UNK N   1      34.792   9.379  14.556  0.00  0.00    -0.166 F 
HETATM   32  F   UNK N   1      32.924  10.622  14.670  0.00  0.00    -0.166 F 
HETATM   33  F   UNK N   1      34.127  10.207  16.533  0.00  0.00    -0.166 F 
ENDBRANCH  26  30
ENDBRANCH   8  24
TORSDOF 3
ENDMDL
MODEL 6
REMARK VINA RESULT:      -8.5      1.832      2.274
REMARK  3 active torsions:
REMARK  status: ('A' for Active; 'I' for Inactive)
REMARK       I    between atoms: C_6  and  N_7 
REMARK    1  A    between atoms: C_14  and  C_13 
REMARK    2  A    between atoms: C_22  and  N_21 
REMARK    3  A    between atoms: C_28  and  C_27 
ROOT
HETATM    1  C   UNK N   1      31.473  16.839   5.796  0.00  0.00     0.049 A 
HETATM    2  C   UNK N   1      30.161  17.394   5.808  0.00  0.00     0.263 A 
HETATM    3  O   UNK N   1      29.705  17.811   6.856  0.00  0.00    -0.267 OA
HETATM    4  C   UNK N   1      31.960  16.347   4.556  0.00  0.00    -0.044 A 
HETATM    5  C   UNK N   1      33.314  15.745   4.397  0.00  0.00     0.049 C 
HETATM    6  C   UNK N   1      31.152  16.405   3.419  0.00  0.00     0.025 A 
HETATM    7  C   UNK N   1      29.884  16.980   3.479  0.00  0.00     0.101 A 
HETATM    8  N   UNK N   1      29.400  17.487   4.646  0.00  0.00    -0.289 N 
ENDROOT
BRANCH   1   9
HETATM    9  C   UNK N   1      32.301  16.860   7.076  0.00  0.00    -0.019 A 
HETATM   10  C   UNK N   1      32.295  15.799   8.002  0.00  0.00     0.027 A 
HETATM   11  C   UNK N   1      33.194  15.794   9.080  0.00  0.00     0.008 A 
HETATM   12  C   UNK N   1      34.105  16.853   9.252  0.00  0.00     0.060 A 
HETATM   13  C   UNK N   1      33.241  14.734   9.980  0.00  0.00     0.120 A 
HETATM   14  N   UNK N   1      35.007  16.819  10.262  0.00  0.00    -0.191 N 
HETATM   15  C   UNK N   1      34.095  17.921   8.373  0.00  0.00     0.032 A 
HETATM   16  C   UNK N   1      35.046  15.768  11.119  0.00  0.00     0.676 A 
ATOM     17  HN  UNK N   1      35.663  17.592  10.380  1.00  0.00     0.184 HD
HETATM   18  N   UNK N   1      34.165  14.739  10.980  0.00  0.00    -0.201 N 
HETATM   19  N   UNK N   1      36.010  15.739  12.144  0.00  0.00    -0.234 N 
ATOM     20  HN  UNK N   1      34.197  13.959  11.636  1.00  0.00     0.183 HD
HETATM   21  H   UNK N   1      36.019  15.022  12.819  0.00  0.00     0.174 HD
HETATM   22  H   UNK N   1      36.690  16.448  12.187  0.00  0.00     0.174 HD
HETATM   23  C   UNK N   1      33.210  17.915   7.305  0.00  0.00     0.015 A 
ENDBRANCH   1   9
BRANCH   8  24
HETATM   24  C   UNK N   1      28.112  18.176   4.654  0.00  0.00     0.042 A 
HETATM   25  C   UNK N   1      26.929  17.439   4.799  0.00  0.00     0.046 A 
HETATM   26  C   UNK N   1      25.677  18.025   4.845  0.00  0.00     0.050 A 
HETATM   27  C   UNK N   1      25.579  19.417   4.741  0.00  0.00     0.016 A 
HETATM   28  C   UNK N   1      26.745  20.190   4.610  0.00  0.00     0.003 A 
HETATM   29  C   UNK N   1      28.009  19.576   4.579  0.00  0.00     0.030 A 
BRANCH  26  30
HETATM   30  C   UNK N   1      24.467  17.147   5.016  0.00  0.00     0.417 C 
HETATM   31  F   UNK N   1      24.702  16.159   5.963  0.00  0.00    -0.166 F 
HETATM   32  F   UNK N   1      24.157  16.537   3.815  0.00  0.00    -0.166 F 
HETATM   33  F   UNK N   1      23.392  17.905   5.439  0.00  0.00    -0.166 F 
ENDBRANCH  26  30
ENDBRANCH   8  24
TORSDOF 3
ENDMDL
MODEL 7
REMARK VINA RESULT:      -8.5      4.276      7.503
REMARK  3 active torsions:
REMARK  status: ('A' for Active; 'I' for Inactive)
REMARK       I    between atoms: C_6  and  N_7 
REMARK    1  A    between atoms: C_14  and  C_13 
REMARK    2  A    between atoms: C_22  and  N_21 
REMARK    3  A    between atoms: C_28  and  C_27 
ROOT
HETATM    1  C   UNK N   1      35.880  13.526  11.356  0.00  0.00     0.049 A 
HETATM    2  C   UNK N   1      35.039  14.483  10.721  0.00  0.00     0.263 A 
HETATM    3  O   UNK N   1      34.182  15.046  11.376  0.00  0.00    -0.267 OA
HETATM    4  C   UNK N   1      36.854  12.879  10.551  0.00  0.00    -0.044 A 
HETATM    5  C   UNK N   1      37.802  11.860  11.085  0.00  0.00     0.049 C 
HETATM    6  C   UNK N   1      36.945  13.183   9.192  0.00  0.00     0.025 A 
HETATM    7  C   UNK N   1      36.114  14.146   8.623  0.00  0.00     0.101 A 
HETATM    8  N   UNK N   1      35.189  14.804   9.375  0.00  0.00    -0.289 N 
ENDROOT
BRANCH   1   9
HETATM    9  C   UNK N   1      35.740  13.293  12.857  0.00  0.00    -0.019 A 
HETATM   10  C   UNK N   1      36.395  14.093  13.813  0.00  0.00     0.027 A 
HETATM   11  C   UNK N   1      36.109  13.942  15.180  0.00  0.00     0.008 A 
HETATM   12  C   UNK N   1      35.171  12.984  15.608  0.00  0.00     0.060 A 
HETATM   13  C   UNK N   1      36.706  14.753  16.139  0.00  0.00     0.120 A 
HETATM   14  N   UNK N   1      34.857  12.877  16.922  0.00  0.00    -0.191 N 
HETATM   15  C   UNK N   1      34.550  12.164  14.683  0.00  0.00     0.032 A 
HETATM   16  C   UNK N   1      35.440  13.690  17.839  0.00  0.00     0.676 A 
ATOM     17  HN  UNK N   1      34.178  12.179  17.224  1.00  0.00     0.184 HD
HETATM   18  N   UNK N   1      36.361  14.614  17.449  0.00  0.00    -0.201 N 
HETATM   19  N   UNK N   1      35.079  13.582  19.196  0.00  0.00    -0.234 N 
ATOM     20  HN  UNK N   1      36.799  15.212  18.149  1.00  0.00     0.183 HD
HETATM   21  H   UNK N   1      35.533  14.112  19.891  0.00  0.00     0.174 HD
HETATM   22  H   UNK N   1      34.357  12.965  19.455  0.00  0.00     0.174 HD
HETATM   23  C   UNK N   1      34.831  12.325  13.335  0.00  0.00     0.015 A 
ENDBRANCH   1   9
BRANCH   8  24
HETATM   24  C   UNK N   1      34.407  15.881   8.774  0.00  0.00     0.042 A 
HETATM   25  C   UNK N   1      33.208  15.584   8.111  0.00  0.00     0.046 A 
HETATM   26  C   UNK N   1      32.400  16.553   7.545  0.00  0.00     0.050 A 
HETATM   27  C   UNK N   1      32.791  17.893   7.633  0.00  0.00     0.016 A 
HETATM   28  C   UNK N   1      33.978  18.231   8.304  0.00  0.00     0.003 A 
HETATM   29  C   UNK N   1      34.779  17.231   8.883  0.00  0.00     0.030 A 
BRANCH  26  30
HETATM   30  C   UNK N   1      31.125  16.134   6.865  0.00  0.00     0.417 C 
HETATM   31  F   UNK N   1      30.020  16.463   7.639  0.00  0.00    -0.166 F 
HETATM   32  F   UNK N   1      31.127  14.766   6.667  0.00  0.00    -0.166 F 
HETATM   33  F   UNK N   1      31.008  16.776   5.648  0.00  0.00    -0.166 F 
ENDBRANCH  26  30
ENDBRANCH   8  24
TORSDOF 3
ENDMDL
MODEL 8
REMARK VINA RESULT:      -8.4      4.319      6.340
REMARK  3 active torsions:
REMARK  status: ('A' for Active; 'I' for Inactive)
REMARK       I    between atoms: C_6  and  N_7 
REMARK    1  A    between atoms: C_14  and  C_13 
REMARK    2  A    between atoms: C_22  and  N_21 
REMARK    3  A    between atoms: C_28  and  C_27 
ROOT
HETATM    1  C   UNK N   1      26.323  18.238   4.857  0.00  0.00     0.049 A 
HETATM    2  C   UNK N   1      25.256  17.349   5.169  0.00  0.00     0.263 A 
HETATM    3  O   UNK N   1      25.478  16.381   5.872  0.00  0.00    -0.267 OA
HETATM    4  C   UNK N   1      26.025  19.344   4.018  0.00  0.00    -0.044 A 
HETATM    5  C   UNK N   1      27.043  20.356   3.615  0.00  0.00     0.049 C 
HETATM    6  C   UNK N   1      24.730  19.512   3.524  0.00  0.00     0.025 A 
HETATM    7  C   UNK N   1      23.714  18.626   3.879  0.00  0.00     0.101 A 
HETATM    8  N   UNK N   1      23.963  17.572   4.704  0.00  0.00    -0.289 N 
ENDROOT
BRANCH   1   9
HETATM    9  C   UNK N   1      27.695  18.002   5.481  0.00  0.00    -0.019 A 
HETATM   10  C   UNK N   1      28.026  18.446   6.776  0.00  0.00     0.027 A 
HETATM   11  C   UNK N   1      29.242  18.065   7.367  0.00  0.00     0.008 A 
HETATM   12  C   UNK N   1      30.145  17.243   6.667  0.00  0.00     0.060 A 
HETATM   13  C   UNK N   1      29.570  18.450   8.662  0.00  0.00     0.120 A 
HETATM   14  N   UNK N   1      31.293  16.834   7.260  0.00  0.00    -0.191 N 
HETATM   15  C   UNK N   1      29.850  16.833   5.380  0.00  0.00     0.032 A 
HETATM   16  C   UNK N   1      31.586  17.208   8.531  0.00  0.00     0.676 A 
ATOM     17  HN  UNK N   1      31.943  16.239   6.745  1.00  0.00     0.184 HD
HETATM   18  N   UNK N   1      30.733  18.015   9.221  0.00  0.00    -0.201 N 
HETATM   19  N   UNK N   1      32.770  16.748   9.138  0.00  0.00    -0.234 N 
ATOM     20  HN  UNK N   1      30.969  18.297  10.172  1.00  0.00     0.183 HD
HETATM   21  H   UNK N   1      33.039  17.056  10.034  0.00  0.00     0.174 HD
HETATM   22  H   UNK N   1      33.338  16.104   8.659  0.00  0.00     0.174 HD
HETATM   23  C   UNK N   1      28.644  17.205   4.806  0.00  0.00     0.015 A 
ENDBRANCH   1   9
BRANCH   8  24
HETATM   24  C   UNK N   1      22.857  16.724   5.141  0.00  0.00     0.042 A 
HETATM   25  C   UNK N   1      22.075  17.109   6.238  0.00  0.00     0.046 A 
HETATM   26  C   UNK N   1      20.995  16.372   6.689  0.00  0.00     0.050 A 
HETATM   27  C   UNK N   1      20.663  15.186   6.026  0.00  0.00     0.016 A 
HETATM   28  C   UNK N   1      21.414  14.776   4.912  0.00  0.00     0.003 A 
HETATM   29  C   UNK N   1      22.501  15.546   4.461  0.00  0.00     0.030 A 
BRANCH  26  30
HETATM   30  C   UNK N   1      20.209  16.877   7.869  0.00  0.00     0.417 C 
HETATM   31  F   UNK N   1      20.729  16.381   9.058  0.00  0.00    -0.166 F 
HETATM   32  F   UNK N   1      18.893  16.471   7.766  0.00  0.00    -0.166 F 
HETATM   33  F   UNK N   1      20.265  18.256   7.916  0.00  0.00    -0.166 F 
ENDBRANCH  26  30
ENDBRANCH   8  24
TORSDOF 3
ENDMDL
MODEL 9
REMARK VINA RESULT:      -8.2     10.498     14.844
REMARK  3 active torsions:
REMARK  status: ('A' for Active; 'I' for Inactive)
REMARK       I    between atoms: C_6  and  N_7 
REMARK    1  A    between atoms: C_14  and  C_13 
REMARK    2  A    between atoms: C_22  and  N_21 
REMARK    3  A    between atoms: C_28  and  C_27 
ROOT
HETATM    1  C   UNK N   1      35.410  11.916  17.334  0.00  0.00     0.049 A 
HETATM    2  C   UNK N   1      34.988  10.633  17.783  0.00  0.00     0.263 A 
HETATM    3  O   UNK N   1      34.952   9.711  16.991  0.00  0.00    -0.267 OA
HETATM    4  C   UNK N   1      35.418  12.969  18.287  0.00  0.00    -0.044 A 
HETATM    5  C   UNK N   1      35.841  14.360  17.957  0.00  0.00     0.049 C 
HETATM    6  C   UNK N   1      35.007  12.723  19.598  0.00  0.00     0.025 A 
HETATM    7  C   UNK N   1      34.625  11.442  19.994  0.00  0.00     0.101 A 
HETATM    8  N   UNK N   1      34.633  10.406  19.110  0.00  0.00    -0.289 N 
ENDROOT
BRANCH   1   9
HETATM    9  C   UNK N   1      35.888  12.081  15.895  0.00  0.00    -0.019 A 
HETATM   10  C   UNK N   1      35.315  13.012  15.008  0.00  0.00     0.027 A 
HETATM   11  C   UNK N   1      35.894  13.239  13.748  0.00  0.00     0.008 A 
HETATM   12  C   UNK N   1      37.046  12.532  13.358  0.00  0.00     0.060 A 
HETATM   13  C   UNK N   1      35.376  14.189  12.873  0.00  0.00     0.120 A 
HETATM   14  N   UNK N   1      37.633  12.792  12.164  0.00  0.00    -0.191 N 
HETATM   15  C   UNK N   1      37.595  11.586  14.203  0.00  0.00     0.032 A 
HETATM   16  C   UNK N   1      37.120  13.734  11.333  0.00  0.00     0.676 A 
ATOM     17  HN  UNK N   1      38.467  12.274  11.888  1.00  0.00     0.184 HD
HETATM   18  N   UNK N   1      35.998  14.420  11.684  0.00  0.00    -0.201 N 
HETATM   19  N   UNK N   1      37.762  14.009  10.110  0.00  0.00    -0.234 N 
ATOM     20  HN  UNK N   1      35.616  15.119  11.047  1.00  0.00     0.183 HD
HETATM   21  H   UNK N   1      37.376  14.639   9.459  0.00  0.00     0.174 HD
HETATM   22  H   UNK N   1      38.614  13.564   9.902  0.00  0.00     0.174 HD
HETATM   23  C   UNK N   1      37.025  11.373  15.449  0.00  0.00     0.015 A 
ENDBRANCH   1   9
BRANCH   8  24
HETATM   24  C   UNK N   1      34.329   9.057  19.580  0.00  0.00     0.042 A 
HETATM   25  C   UNK N   1      33.009   8.586  19.538  0.00  0.00     0.046 A 
HETATM   26  C   UNK N   1      32.651   7.311  19.936  0.00  0.00     0.050 A 
HETATM   27  C   UNK N   1      33.646   6.447  20.406  0.00  0.00     0.016 A 
HETATM   28  C   UNK N   1      34.982   6.878  20.448  0.00  0.00     0.003 A 
HETATM   29  C   UNK N   1      35.328   8.174  20.025  0.00  0.00     0.030 A 
BRANCH  26  30
HETATM   30  C   UNK N   1      31.208   6.896  19.842  0.00  0.00     0.417 C 
HETATM   31  F   UNK N   1      30.393   7.994  19.595  0.00  0.00    -0.166 F 
HETATM   32  F   UNK N   1      30.808   6.314  21.029  0.00  0.00    -0.166 F 
HETATM   33  F   UNK N   1      31.045   5.995  18.808  0.00  0.00    -0.166 F 
ENDBRANCH  26  30
ENDBRANCH   8  24
TORSDOF 3
ENDMDL
