REMARK  3 active torsions:
REMARK  status: ('A' for Active; 'I' for Inactive)
REMARK       I    between atoms: C_6  and  N_7 
REMARK    1  A    between atoms: C_14  and  C_13 
REMARK    2  A    between atoms: C_22  and  N_21 
REMARK    3  A    between atoms: C_28  and  C_27 
ROOT
HETATM    1  C   UNK N   1       0.055  -1.326   0.403  0.00  0.00     0.049 A 
HETATM    2  C   UNK N   1      -1.177  -0.613   0.413  0.00  0.00     0.263 A 
HETATM    3  O   UNK N   1      -1.157   0.603   0.439  0.00  0.00    -0.267 OA
HETATM    4  C   UNK N   1      -0.013  -2.744   0.392  0.00  0.00    -0.044 A 
HETATM    5  C   UNK N   1       1.196  -3.616   0.376  0.00  0.00     0.049 C 
HETATM    6  C   UNK N   1      -1.256  -3.380   0.407  0.00  0.00     0.025 A 
HETATM    7  C   UNK N   1      -2.434  -2.636   0.392  0.00  0.00     0.101 A 
HETATM    8  N   UNK N   1      -2.401  -1.275   0.374  0.00  0.00    -0.289 N 
ENDROOT
BRANCH   1   9
HETATM    9  C   UNK N   1       1.365  -0.547   0.339  0.00  0.00    -0.019 A 
HETATM   10  C   UNK N   1       2.596  -1.157   0.028  0.00  0.00     0.027 A 
HETATM   11  C   UNK N   1       3.743  -0.373  -0.177  0.00  0.00     0.008 A 
HETATM   12  C   UNK N   1       3.676   1.028  -0.065  0.00  0.00     0.060 A 
HETATM   13  C   UNK N   1       4.959  -0.947  -0.533  0.00  0.00     0.120 A 
HETATM   14  N   UNK N   1       4.772   1.785  -0.316  0.00  0.00    -0.191 N 
HETATM   15  C   UNK N   1       2.483   1.637   0.279  0.00  0.00     0.032 A 
HETATM   16  C   UNK N   1       5.944   1.205  -0.678  0.00  0.00     0.676 A 
ATOM     17  HN  UNK N   1       4.715   2.800  -0.231  1.00  0.00     0.184 HD
HETATM   18  N   UNK N   1       6.035  -0.150  -0.778  0.00  0.00    -0.201 N 
HETATM   19  N   UNK N   1       7.063   2.011  -0.962  0.00  0.00    -0.234 N 
ATOM     20  HN  UNK N   1       6.924  -0.575  -1.041  1.00  0.00     0.183 HD
HETATM   21  H   UNK N   1       7.942   1.615  -1.162  0.00  0.00     0.174 HD
HETATM   22  H   UNK N   1       6.964   2.990  -0.962  0.00  0.00     0.174 HD
HETATM   23  C   UNK N   1       1.352   0.858   0.471  0.00  0.00     0.015 A 
ENDBRANCH   1   9
BRANCH   8  24
HETATM   24  C   UNK N   1      -3.649  -0.526   0.253  0.00  0.00     0.042 A 
HETATM   25  C   UNK N   1      -3.616   0.831  -0.097  0.00  0.00     0.046 A 
HETATM   26  C   UNK N   1      -4.757   1.595  -0.260  0.00  0.00     0.050 A 
HETATM   27  C   UNK N   1      -6.005   0.994  -0.066  0.00  0.00     0.016 A 
HETATM   28  C   UNK N   1      -6.079  -0.368   0.270  0.00  0.00     0.003 A 
HETATM   29  C   UNK N   1      -4.907  -1.131   0.418  0.00  0.00     0.030 A 
BRANCH  26  30
HETATM   30  C   UNK N   1      -4.616   3.042  -0.649  0.00  0.00     0.417 C 
HETATM   31  F   UNK N   1      -3.281   3.376  -0.835  0.00  0.00    -0.166 F 
HETATM   32  F   UNK N   1      -5.133   3.848   0.347  0.00  0.00    -0.166 F 
HETATM   33  F   UNK N   1      -5.290   3.279  -1.831  0.00  0.00    -0.166 F 
ENDBRANCH  26  30
ENDBRANCH   8  24
TORSDOF 3
