MODEL 1
REMARK VINA RESULT:      -6.2      0.000      0.000
REMARK  1 active torsions:
REMARK  status: ('A' for Active; 'I' for Inactive)
REMARK    1  A    between atoms: C_7  and  C_8 
ROOT
HETATM    1  C   UNK N   1      23.430  18.472   4.031  0.00  0.00     0.054 C 
HETATM    2  C   UNK N   1      22.239  18.854   3.513  0.00  0.00     0.078 A 
HETATM    3  S   UNK N   1      20.891  17.653   3.443  0.00  0.00    -0.049 SA
HETATM    4  C   UNK N   1      21.828  20.168   2.961  0.00  0.00     0.264 A 
HETATM    5  O   UNK N   1      22.535  21.153   2.886  0.00  0.00    -0.267 OA
HETATM    6  N   UNK N   1      20.564  20.200   2.529  0.00  0.00    -0.303 N 
HETATM    7  C   UNK N   1      19.913  18.970   2.701  0.00  0.00     0.145 A 
HETATM    8  N   UNK N   1      18.694  18.804   2.347  0.00  0.00    -0.380 N 
ATOM      9  HN  UNK N   1      18.242  17.899   2.482  1.00  0.00     0.158 HD
HETATM   10  H   UNK N   1      20.139  20.997   2.136  0.00  0.00     0.171 HD
HETATM   11  H   UNK N   1      18.191  19.550   1.944  0.00  0.00     0.158 HD
ENDROOT
BRANCH   1  12
HETATM   12  C   UNK N   1      24.703  19.213   4.222  0.00  0.00     0.033 A 
HETATM   13  C   UNK N   1      25.471  19.676   3.152  0.00  0.00     0.029 A 
HETATM   14  C   UNK N   1      26.657  20.366   3.385  0.00  0.00     0.004 A 
HETATM   15  C   UNK N   1      27.074  20.591   4.692  0.00  0.00     0.017 A 
HETATM   16  C   UNK N   1      26.291  20.119   5.747  0.00  0.00     0.088 A 
HETATM   17  N   UNK N   1      25.134  19.447   5.493  0.00  0.00    -0.366 N 
ATOM     18  HN  UNK N   1      24.574  19.109   6.276  1.00  0.00     0.165 HD
ENDBRANCH   1  12
TORSDOF 1
ENDMDL
MODEL 2
REMARK VINA RESULT:      -6.0     16.859     19.009
REMARK  1 active torsions:
REMARK  status: ('A' for Active; 'I' for Inactive)
REMARK    1  A    between atoms: C_7  and  C_8 
ROOT
HETATM    1  C   UNK N   1      35.055  12.267  15.450  0.00  0.00     0.054 C 
HETATM    2  C   UNK N   1      35.587  13.152  14.574  0.00  0.00     0.078 A 
HETATM    3  S   UNK N   1      35.141  13.029  12.828  0.00  0.00    -0.049 SA
HETATM    4  C   UNK N   1      36.530  14.271  14.819  0.00  0.00     0.264 A 
HETATM    5  O   UNK N   1      36.992  14.580  15.898  0.00  0.00    -0.267 OA
HETATM    6  N   UNK N   1      36.855  14.953  13.717  0.00  0.00    -0.303 N 
HETATM    7  C   UNK N   1      36.222  14.446  12.572  0.00  0.00     0.145 A 
HETATM    8  N   UNK N   1      36.409  14.968  11.419  0.00  0.00    -0.380 N 
ATOM      9  HN  UNK N   1      35.937  14.582  10.601  1.00  0.00     0.158 HD
HETATM   10  H   UNK N   1      37.469  15.724  13.710  0.00  0.00     0.171 HD
HETATM   11  H   UNK N   1      37.008  15.744  11.319  0.00  0.00     0.158 HD
ENDROOT
BRANCH   1  12
HETATM   12  C   UNK N   1      35.224  12.113  16.917  0.00  0.00     0.033 A 
HETATM   13  C   UNK N   1      35.626  10.912  17.506  0.00  0.00     0.029 A 
HETATM   14  C   UNK N   1      35.769  10.820  18.887  0.00  0.00     0.004 A 
HETATM   15  C   UNK N   1      35.510  11.933  19.680  0.00  0.00     0.017 A 
HETATM   16  C   UNK N   1      35.110  13.124  19.070  0.00  0.00     0.088 A 
HETATM   17  N   UNK N   1      34.977  13.188  17.716  0.00  0.00    -0.366 N 
ATOM     18  HN  UNK N   1      34.683  14.067  17.288  1.00  0.00     0.165 HD
ENDBRANCH   1  12
TORSDOF 1
ENDMDL
MODEL 3
REMARK VINA RESULT:      -5.6     11.598     14.309
REMARK  1 active torsions:
REMARK  status: ('A' for Active; 'I' for Inactive)
REMARK    1  A    between atoms: C_7  and  C_8 
ROOT
HETATM    1  C   UNK N   1      33.833  14.736   9.774  0.00  0.00     0.054 C 
HETATM    2  C   UNK N   1      34.724  14.863  10.786  0.00  0.00     0.078 A 
HETATM    3  S   UNK N   1      34.979  13.469  11.906  0.00  0.00    -0.049 SA
HETATM    4  C   UNK N   1      35.578  16.019  11.152  0.00  0.00     0.264 A 
HETATM    5  O   UNK N   1      35.609  17.085  10.570  0.00  0.00    -0.267 OA
HETATM    6  N   UNK N   1      36.351  15.803  12.219  0.00  0.00    -0.303 N 
HETATM    7  C   UNK N   1      36.174  14.517  12.752  0.00  0.00     0.145 A 
HETATM    8  N   UNK N   1      36.829  14.123  13.778  0.00  0.00    -0.380 N 
ATOM      9  HN  UNK N   1      36.682  13.182  14.147  1.00  0.00     0.158 HD
HETATM   10  H   UNK N   1      36.974  16.470  12.590  0.00  0.00     0.171 HD
HETATM   11  H   UNK N   1      37.475  14.726  14.213  0.00  0.00     0.158 HD
ENDROOT
BRANCH   1  12
HETATM   12  C   UNK N   1      33.412  15.682   8.710  0.00  0.00     0.033 A 
HETATM   13  C   UNK N   1      33.570  15.405   7.351  0.00  0.00     0.029 A 
HETATM   14  C   UNK N   1      33.158  16.327   6.393  0.00  0.00     0.004 A 
HETATM   15  C   UNK N   1      32.586  17.529   6.799  0.00  0.00     0.017 A 
HETATM   16  C   UNK N   1      32.437  17.785   8.163  0.00  0.00     0.088 A 
HETATM   17  N   UNK N   1      32.848  16.866   9.081  0.00  0.00    -0.366 N 
ATOM     18  HN  UNK N   1      32.731  17.071  10.074  1.00  0.00     0.165 HD
ENDBRANCH   1  12
TORSDOF 1
ENDMDL
MODEL 4
REMARK VINA RESULT:      -5.6     18.588     20.273
REMARK  1 active torsions:
REMARK  status: ('A' for Active; 'I' for Inactive)
REMARK    1  A    between atoms: C_7  and  C_8 
ROOT
HETATM    1  C   UNK N   1      41.501  22.725   1.811  0.00  0.00     0.054 C 
HETATM    2  C   UNK N   1      42.761  22.753   2.306  0.00  0.00     0.078 A 
HETATM    3  S   UNK N   1      43.246  21.518   3.532  0.00  0.00    -0.049 SA
HETATM    4  C   UNK N   1      43.877  23.679   1.995  0.00  0.00     0.264 A 
HETATM    5  O   UNK N   1      43.828  24.602   1.207  0.00  0.00    -0.267 OA
HETATM    6  N   UNK N   1      44.999  23.420   2.672  0.00  0.00    -0.303 N 
HETATM    7  C   UNK N   1      44.859  22.319   3.530  0.00  0.00     0.145 A 
HETATM    8  N   UNK N   1      45.827  21.916   4.263  0.00  0.00    -0.380 N 
ATOM      9  HN  UNK N   1      45.701  21.112   4.879  1.00  0.00     0.158 HD
HETATM   10  H   UNK N   1      45.830  23.942   2.579  0.00  0.00     0.171 HD
HETATM   11  H   UNK N   1      46.695  22.380   4.234  0.00  0.00     0.158 HD
ENDROOT
BRANCH   1  12
HETATM   12  C   UNK N   1      40.817  23.586   0.814  0.00  0.00     0.033 A 
HETATM   13  C   UNK N   1      40.235  23.075  -0.348  0.00  0.00     0.029 A 
HETATM   14  C   UNK N   1      39.605  23.926  -1.251  0.00  0.00     0.004 A 
HETATM   15  C   UNK N   1      39.559  25.292  -0.990  0.00  0.00     0.017 A 
HETATM   16  C   UNK N   1      40.148  25.781   0.177  0.00  0.00     0.088 A 
HETATM   17  N   UNK N   1      40.759  24.927   1.046  0.00  0.00    -0.366 N 
ATOM     18  HN  UNK N   1      41.184  25.303   1.894  1.00  0.00     0.165 HD
ENDBRANCH   1  12
TORSDOF 1
ENDMDL
MODEL 5
REMARK VINA RESULT:      -5.5     10.124     12.864
REMARK  1 active torsions:
REMARK  status: ('A' for Active; 'I' for Inactive)
REMARK    1  A    between atoms: C_7  and  C_8 
ROOT
HETATM    1  C   UNK N   1      34.223  15.517   7.180  0.00  0.00     0.054 C 
HETATM    2  C   UNK N   1      34.667  15.823   8.421  0.00  0.00     0.078 A 
HETATM    3  S   UNK N   1      35.800  14.685   9.250  0.00  0.00    -0.049 SA
HETATM    4  C   UNK N   1      34.365  17.004   9.267  0.00  0.00     0.264 A 
HETATM    5  O   UNK N   1      33.634  17.923   8.958  0.00  0.00    -0.267 OA
HETATM    6  N   UNK N   1      34.980  16.990  10.453  0.00  0.00    -0.303 N 
HETATM    7  C   UNK N   1      35.778  15.849  10.624  0.00  0.00     0.145 A 
HETATM    8  N   UNK N   1      36.447  15.656  11.698  0.00  0.00    -0.380 N 
ATOM      9  HN  UNK N   1      37.020  14.818  11.799  1.00  0.00     0.158 HD
HETATM   10  H   UNK N   1      34.884  17.699  11.130  0.00  0.00     0.171 HD
HETATM   11  H   UNK N   1      36.409  16.316  12.428  0.00  0.00     0.158 HD
ENDROOT
BRANCH   1  12
HETATM   12  C   UNK N   1      33.306  16.234   6.258  0.00  0.00     0.033 A 
HETATM   13  C   UNK N   1      33.736  16.796   5.055  0.00  0.00     0.029 A 
HETATM   14  C   UNK N   1      32.835  17.458   4.227  0.00  0.00     0.004 A 
HETATM   15  C   UNK N   1      31.500  17.558   4.606  0.00  0.00     0.017 A 
HETATM   16  C   UNK N   1      31.091  16.989   5.813  0.00  0.00     0.088 A 
HETATM   17  N   UNK N   1      31.993  16.345   6.606  0.00  0.00    -0.366 N 
ATOM     18  HN  UNK N   1      31.677  15.936   7.486  1.00  0.00     0.165 HD
ENDBRANCH   1  12
TORSDOF 1
ENDMDL
MODEL 6
REMARK VINA RESULT:      -5.5     17.708     19.262
REMARK  1 active torsions:
REMARK  status: ('A' for Active; 'I' for Inactive)
REMARK    1  A    between atoms: C_7  and  C_8 
ROOT
HETATM    1  C   UNK N   1      35.239  13.376  15.431  0.00  0.00     0.054 C 
HETATM    2  C   UNK N   1      35.993  13.137  14.332  0.00  0.00     0.078 A 
HETATM    3  S   UNK N   1      35.689  14.104  12.837  0.00  0.00    -0.049 SA
HETATM    4  C   UNK N   1      37.091  12.158  14.135  0.00  0.00     0.264 A 
HETATM    5  O   UNK N   1      37.501  11.382  14.974  0.00  0.00    -0.267 OA
HETATM    6  N   UNK N   1      37.626  12.187  12.912  0.00  0.00    -0.303 N 
HETATM    7  C   UNK N   1      37.019  13.147  12.089  0.00  0.00     0.145 A 
HETATM    8  N   UNK N   1      37.396  13.324  10.878  0.00  0.00    -0.380 N 
ATOM      9  HN  UNK N   1      36.939  14.029  10.299  1.00  0.00     0.158 HD
HETATM   10  H   UNK N   1      38.363  11.601  12.621  0.00  0.00     0.171 HD
HETATM   11  H   UNK N   1      38.128  12.781  10.505  0.00  0.00     0.158 HD
ENDROOT
BRANCH   1  12
HETATM   12  C   UNK N   1      35.248  12.760  16.782  0.00  0.00     0.033 A 
HETATM   13  C   UNK N   1      35.226  13.519  17.954  0.00  0.00     0.029 A 
HETATM   14  C   UNK N   1      35.235  12.892  19.197  0.00  0.00     0.004 A 
HETATM   15  C   UNK N   1      35.266  11.503  19.265  0.00  0.00     0.017 A 
HETATM   16  C   UNK N   1      35.287  10.764  18.081  0.00  0.00     0.088 A 
HETATM   17  N   UNK N   1      35.278  11.401  16.876  0.00  0.00    -0.366 N 
ATOM     18  HN  UNK N   1      35.294  10.845  16.021  1.00  0.00     0.165 HD
ENDBRANCH   1  12
TORSDOF 1
ENDMDL
MODEL 7
REMARK VINA RESULT:      -5.2     16.636     17.958
REMARK  1 active torsions:
REMARK  status: ('A' for Active; 'I' for Inactive)
REMARK    1  A    between atoms: C_7  and  C_8 
ROOT
HETATM    1  C   UNK N   1      35.534  11.882  15.428  0.00  0.00     0.054 C 
HETATM    2  C   UNK N   1      35.113  11.648  14.163  0.00  0.00     0.078 A 
HETATM    3  S   UNK N   1      34.772   9.947  13.657  0.00  0.00    -0.049 SA
HETATM    4  C   UNK N   1      34.869  12.605  13.056  0.00  0.00     0.264 A 
HETATM    5  O   UNK N   1      35.019  13.808  13.120  0.00  0.00    -0.267 OA
HETATM    6  N   UNK N   1      34.453  12.028  11.925  0.00  0.00    -0.303 N 
HETATM    7  C   UNK N   1      34.343  10.635  12.049  0.00  0.00     0.145 A 
HETATM    8  N   UNK N   1      33.958   9.906  11.070  0.00  0.00    -0.380 N 
ATOM      9  HN  UNK N   1      33.885   8.894  11.185  1.00  0.00     0.158 HD
HETATM   10  H   UNK N   1      34.248  12.524  11.099  0.00  0.00     0.171 HD
HETATM   11  H   UNK N   1      33.732  10.320  10.205  0.00  0.00     0.158 HD
ENDROOT
BRANCH   1  12
HETATM   12  C   UNK N   1      35.889  13.143  16.128  0.00  0.00     0.033 A 
HETATM   13  C   UNK N   1      35.306  13.520  17.339  0.00  0.00     0.029 A 
HETATM   14  C   UNK N   1      35.674  14.713  17.955  0.00  0.00     0.004 A 
HETATM   15  C   UNK N   1      36.628  15.529  17.355  0.00  0.00     0.017 A 
HETATM   16  C   UNK N   1      37.198  15.132  16.145  0.00  0.00     0.088 A 
HETATM   17  N   UNK N   1      36.821  13.960  15.562  0.00  0.00    -0.366 N 
ATOM     18  HN  UNK N   1      37.248  13.686  14.677  1.00  0.00     0.165 HD
ENDBRANCH   1  12
TORSDOF 1
ENDMDL
MODEL 8
REMARK VINA RESULT:      -5.2     10.620     13.376
REMARK  1 active torsions:
REMARK  status: ('A' for Active; 'I' for Inactive)
REMARK    1  A    between atoms: C_7  and  C_8 
ROOT
HETATM    1  C   UNK N   1      32.915  14.684   9.268  0.00  0.00     0.054 C 
HETATM    2  C   UNK N   1      34.085  14.847   9.929  0.00  0.00     0.078 A 
HETATM    3  S   UNK N   1      34.876  13.404  10.674  0.00  0.00    -0.049 SA
HETATM    4  C   UNK N   1      34.874  16.082  10.160  0.00  0.00     0.264 A 
HETATM    5  O   UNK N   1      34.576  17.192   9.771  0.00  0.00    -0.267 OA
HETATM    6  N   UNK N   1      35.994  15.883  10.862  0.00  0.00    -0.303 N 
HETATM    7  C   UNK N   1      36.165  14.538  11.220  0.00  0.00     0.145 A 
HETATM    8  N   UNK N   1      37.180  14.150  11.896  0.00  0.00    -0.380 N 
ATOM      9  HN  UNK N   1      37.282  13.165  12.145  1.00  0.00     0.158 HD
HETATM   10  H   UNK N   1      36.627  16.599  11.100  0.00  0.00     0.171 HD
HETATM   11  H   UNK N   1      37.864  14.800  12.177  0.00  0.00     0.158 HD
ENDROOT
BRANCH   1  12
HETATM   12  C   UNK N   1      32.040  15.655   8.563  0.00  0.00     0.033 A 
HETATM   13  C   UNK N   1      31.812  15.601   7.187  0.00  0.00     0.029 A 
HETATM   14  C   UNK N   1      30.982  16.537   6.575  0.00  0.00     0.004 A 
HETATM   15  C   UNK N   1      30.380  17.527   7.345  0.00  0.00     0.017 A 
HETATM   16  C   UNK N   1      30.621  17.561   8.719  0.00  0.00     0.088 A 
HETATM   17  N   UNK N   1      31.438  16.634   9.294  0.00  0.00    -0.366 N 
ATOM     18  HN  UNK N   1      31.603  16.676  10.300  1.00  0.00     0.165 HD
ENDBRANCH   1  12
TORSDOF 1
ENDMDL
MODEL 9
REMARK VINA RESULT:      -5.1     13.251     15.374
REMARK  1 active torsions:
REMARK  status: ('A' for Active; 'I' for Inactive)
REMARK    1  A    between atoms: C_7  and  C_8 
ROOT
HETATM    1  C   UNK N   1      35.081  13.678   9.837  0.00  0.00     0.054 C 
HETATM    2  C   UNK N   1      35.005  15.027   9.754  0.00  0.00     0.078 A 
HETATM    3  S   UNK N   1      34.555  15.781   8.175  0.00  0.00    -0.049 SA
HETATM    4  C   UNK N   1      35.241  16.052  10.800  0.00  0.00     0.264 A 
HETATM    5  O   UNK N   1      35.556  15.825  11.951  0.00  0.00    -0.267 OA
HETATM    6  N   UNK N   1      35.077  17.307  10.373  0.00  0.00    -0.303 N 
HETATM    7  C   UNK N   1      34.715  17.364   9.019  0.00  0.00     0.145 A 
HETATM    8  N   UNK N   1      34.513  18.481   8.428  0.00  0.00    -0.380 N 
ATOM      9  HN  UNK N   1      34.251  18.497   7.442  1.00  0.00     0.158 HD
HETATM   10  H   UNK N   1      35.196  18.101  10.944  0.00  0.00     0.171 HD
HETATM   11  H   UNK N   1      34.611  19.327   8.924  0.00  0.00     0.158 HD
ENDROOT
BRANCH   1  12
HETATM   12  C   UNK N   1      35.418  12.780  10.970  0.00  0.00     0.033 A 
HETATM   13  C   UNK N   1      36.529  11.933  10.955  0.00  0.00     0.029 A 
HETATM   14  C   UNK N   1      36.800  11.111  12.044  0.00  0.00     0.004 A 
HETATM   15  C   UNK N   1      35.958  11.137  13.151  0.00  0.00     0.017 A 
HETATM   16  C   UNK N   1      34.853  11.991  13.145  0.00  0.00     0.088 A 
HETATM   17  N   UNK N   1      34.609  12.786  12.067  0.00  0.00    -0.366 N 
ATOM     18  HN  UNK N   1      33.797  13.404  12.080  1.00  0.00     0.165 HD
ENDBRANCH   1  12
TORSDOF 1
ENDMDL
