REMARK  1 active torsions:
REMARK  status: ('A' for Active; 'I' for Inactive)
REMARK    1  A    between atoms: C_7  and  C_8 
ROOT
HETATM    1  C   UNK N   1       0.935   0.534   0.000  0.00  0.00     0.054 C 
HETATM    2  C   UNK N   1       1.008  -0.818   0.000  0.00  0.00     0.078 A 
HETATM    3  S   UNK N   1       2.634  -1.605   0.000  0.00  0.00    -0.049 SA
HETATM    4  C   UNK N   1      -0.084  -1.822  -0.000  0.00  0.00     0.264 A 
HETATM    5  O   UNK N   1      -1.272  -1.571  -0.000  0.00  0.00    -0.267 OA
HETATM    6  N   UNK N   1       0.346  -3.087  -0.000  0.00  0.00    -0.303 N 
HETATM    7  C   UNK N   1       1.746  -3.172   0.000  0.00  0.00     0.145 A 
HETATM    8  N   UNK N   1       2.347  -4.302  -0.000  0.00  0.00    -0.380 N 
ATOM      9  HN  UNK N   1       3.367  -4.338  -0.000  1.00  0.00     0.158 HD
HETATM   10  H   UNK N   1      -0.252  -3.870  -0.000  0.00  0.00     0.171 HD
HETATM   11  H   UNK N   1       1.826  -5.138  -0.000  0.00  0.00     0.158 HD
ENDROOT
BRANCH   1  12
HETATM   12  C   UNK N   1      -0.229   1.456   0.000  0.00  0.00     0.033 A 
HETATM   13  C   UNK N   1      -1.549   1.001   0.000  0.00  0.00     0.029 A 
HETATM   14  C   UNK N   1      -2.605   1.908  -0.000  0.00  0.00     0.004 A 
HETATM   15  C   UNK N   1      -2.337   3.273  -0.000  0.00  0.00     0.017 A 
HETATM   16  C   UNK N   1      -1.010   3.706   0.000  0.00  0.00     0.088 A 
HETATM   17  N   UNK N   1       0.006   2.798   0.000  0.00  0.00    -0.366 N 
ATOM     18  HN  UNK N   1       0.970   3.133   0.000  1.00  0.00     0.165 HD
ENDBRANCH   1  12
TORSDOF 1
