MODEL 1
REMARK VINA RESULT:      -6.8      0.000      0.000
REMARK  11 active torsions:
REMARK  status: ('A' for Active; 'I' for Inactive)
REMARK    1  A    between atoms: C_1  and  C_2 
REMARK    2  A    between atoms: C_30  and  C_1 
REMARK    3  A    between atoms: C_2  and  C_3 
REMARK    4  A    between atoms: C_4  and  C_5 
REMARK    5  A    between atoms: C_5  and  C_6 
REMARK    6  A    between atoms: C_5  and  C_7 
REMARK    7  A    between atoms: C_5  and  O_8 
REMARK    8  A    between atoms: C_18  and  O_15 
REMARK    9  A    between atoms: C_16  and  O_32 
REMARK   10  A    between atoms: C_21  and  C_22 
REMARK   11  A    between atoms: C_27  and  C_23 
ROOT
HETATM    1  C   UNK N   1      29.025  13.221   2.203  0.00  0.00     0.016 C 
HETATM    2  C   UNK N   1      28.459  14.416   2.974  0.00  0.00    -0.034 C 
HETATM    3  C   UNK N   1      28.871  14.273   4.462  0.00  0.00     0.016 C 
HETATM    4  C   UNK N   1      27.743  14.892   5.233  0.00  0.00     0.010 C 
HETATM    5  C   UNK N   1      26.579  14.243   4.495  0.00  0.00     0.010 C 
HETATM    6  C   UNK N   1      26.897  14.492   3.016  0.00  0.00    -0.036 C 
HETATM    7  C   UNK N   1      29.032  15.675   2.311  0.00  0.00     0.016 C 
HETATM    8  C   UNK N   1      26.221  13.425   2.164  0.00  0.00     0.016 C 
ENDROOT
BRANCH   6   9
HETATM    9  C   UNK N   1      26.321  15.864   2.524  0.00  0.00     0.022 C 
BRANCH   9  10
HETATM   10  C   UNK N   1      25.345  16.589   3.459  0.00  0.00     0.095 C 
BRANCH  10  11
HETATM   11  C   UNK N   1      26.079  17.778   3.860  0.00  0.00    -0.103 C 
HETATM   12  C   UNK N   1      26.900  18.496   4.360  0.00  0.00    -0.050 C 
BRANCH  12  13
HETATM   13  C   UNK N   1      27.808  19.320   5.153  0.00  0.00     0.318 C 
BRANCH  13  14
HETATM   14  C   UNK N   1      28.403  18.494   6.312  0.00  0.00     0.439 C 
HETATM   15  F   UNK N   1      28.811  19.317   7.351  0.00  0.00    -0.166 F 
HETATM   16  F   UNK N   1      27.455  17.613   6.802  0.00  0.00    -0.166 F 
HETATM   17  F   UNK N   1      29.493  17.769   5.868  0.00  0.00    -0.166 F 
ENDBRANCH  13  14
BRANCH  13  18
HETATM   18  C   UNK N   1      26.996  20.538   5.664  0.00  0.00     0.439 C 
HETATM   19  F   UNK N   1      26.065  20.926   4.711  0.00  0.00    -0.166 F 
HETATM   20  F   UNK N   1      26.314  20.236   6.831  0.00  0.00    -0.166 F 
HETATM   21  F   UNK N   1      27.833  21.609   5.912  0.00  0.00    -0.166 F 
ENDBRANCH  13  18
BRANCH  13  22
HETATM   22  O   UNK N   1      28.831  19.769   4.319  0.00  0.00    -0.363 OA
HETATM   23  H   UNK N   1      29.782  19.588   4.243  0.00  0.00     0.212 HD
ENDBRANCH  13  22
ENDBRANCH  12  13
ENDBRANCH  10  11
ENDBRANCH   9  10
ENDBRANCH   6   9
BRANCH   3  24
HETATM   24  C   UNK N   1      30.267  14.738   4.696  0.00  0.00    -0.021 C 
HETATM   25  C   UNK N   1      31.239  14.210   5.443  0.00  0.00    -0.003 C 
BRANCH  25  26
HETATM   26  C   UNK N   1      32.448  15.055   5.568  0.00  0.00     0.003 C 
HETATM   27  C   UNK N   1      32.759  15.660   6.738  0.00  0.00    -0.075 C 
HETATM   28  C   UNK N   1      33.782  16.760   6.782  0.00  0.00     0.066 C 
HETATM   29  C   UNK N   1      31.979  15.397   8.000  0.00  0.00     0.066 C 
HETATM   30  C   UNK N   1      33.609  17.597   8.070  0.00  0.00     0.124 C 
HETATM   31  C   UNK N   1      32.125  17.924   8.307  0.00  0.00     0.064 C 
HETATM   32  C   UNK N   1      31.249  16.665   8.446  0.00  0.00     0.124 C 
BRANCH  30  33
HETATM   33  O   UNK N   1      34.326  18.785   7.956  0.00  0.00    -0.395 OA
HETATM   34  H   UNK N   1      34.885  19.152   8.658  0.00  0.00     0.210 HD
ENDBRANCH  30  33
BRANCH  32  35
HETATM   35  O   UNK N   1      30.843  16.510   9.771  0.00  0.00    -0.395 OA
HETATM   36  H   UNK N   1      30.863  15.662  10.241  0.00  0.00     0.210 HD
ENDBRANCH  32  35
ENDBRANCH  25  26
ENDBRANCH   3  24
TORSDOF 11
ENDMDL
MODEL 2
REMARK VINA RESULT:      -6.7     12.161     14.516
REMARK  11 active torsions:
REMARK  status: ('A' for Active; 'I' for Inactive)
REMARK    1  A    between atoms: C_1  and  C_2 
REMARK    2  A    between atoms: C_30  and  C_1 
REMARK    3  A    between atoms: C_2  and  C_3 
REMARK    4  A    between atoms: C_4  and  C_5 
REMARK    5  A    between atoms: C_5  and  C_6 
REMARK    6  A    between atoms: C_5  and  C_7 
REMARK    7  A    between atoms: C_5  and  O_8 
REMARK    8  A    between atoms: C_18  and  O_15 
REMARK    9  A    between atoms: C_16  and  O_32 
REMARK   10  A    between atoms: C_21  and  C_22 
REMARK   11  A    between atoms: C_27  and  C_23 
ROOT
HETATM    1  C   UNK N   1      26.175  24.765  -4.130  0.00  0.00     0.016 C 
HETATM    2  C   UNK N   1      27.200  25.366  -5.095  0.00  0.00    -0.034 C 
HETATM    3  C   UNK N   1      28.286  26.090  -4.259  0.00  0.00     0.016 C 
HETATM    4  C   UNK N   1      28.729  27.238  -5.119  0.00  0.00     0.010 C 
HETATM    5  C   UNK N   1      27.358  27.741  -5.550  0.00  0.00     0.010 C 
HETATM    6  C   UNK N   1      26.639  26.479  -6.040  0.00  0.00    -0.036 C 
HETATM    7  C   UNK N   1      27.757  24.201  -5.922  0.00  0.00     0.016 C 
HETATM    8  C   UNK N   1      25.133  26.671  -5.916  0.00  0.00     0.016 C 
ENDROOT
BRANCH   6   9
HETATM    9  C   UNK N   1      26.914  26.210  -7.559  0.00  0.00     0.022 C 
BRANCH   9  10
HETATM   10  C   UNK N   1      25.693  26.065  -8.476  0.00  0.00     0.095 C 
BRANCH  10  11
HETATM   11  C   UNK N   1      25.777  24.688  -8.937  0.00  0.00    -0.103 C 
HETATM   12  C   UNK N   1      25.706  23.491  -8.970  0.00  0.00    -0.050 C 
BRANCH  12  13
HETATM   13  C   UNK N   1      25.780  22.036  -8.873  0.00  0.00     0.318 C 
BRANCH  13  14
HETATM   14  C   UNK N   1      24.973  21.540  -7.655  0.00  0.00     0.439 C 
HETATM   15  F   UNK N   1      25.428  22.127  -6.484  0.00  0.00    -0.166 F 
HETATM   16  F   UNK N   1      23.635  21.861  -7.810  0.00  0.00    -0.166 F 
HETATM   17  F   UNK N   1      25.088  20.168  -7.537  0.00  0.00    -0.166 F 
ENDBRANCH  13  14
BRANCH  13  18
HETATM   18  C   UNK N   1      27.281  21.658  -8.767  0.00  0.00     0.439 C 
HETATM   19  F   UNK N   1      28.072  22.734  -9.143  0.00  0.00    -0.166 F 
HETATM   20  F   UNK N   1      27.623  21.307  -7.472  0.00  0.00    -0.166 F 
HETATM   21  F   UNK N   1      27.573  20.595  -9.599  0.00  0.00    -0.166 F 
ENDBRANCH  13  18
BRANCH  13  22
HETATM   22  O   UNK N   1      25.253  21.492 -10.043  0.00  0.00    -0.363 OA
HETATM   23  H   UNK N   1      25.304  21.717 -10.986  0.00  0.00     0.212 HD
ENDBRANCH  13  22
ENDBRANCH  12  13
ENDBRANCH  10  11
ENDBRANCH   9  10
ENDBRANCH   6   9
BRANCH   3  24
HETATM   24  C   UNK N   1      29.298  25.138  -3.722  0.00  0.00    -0.021 C 
HETATM   25  C   UNK N   1      30.621  25.098  -3.890  0.00  0.00    -0.003 C 
BRANCH  25  26
HETATM   26  C   UNK N   1      31.276  23.891  -3.336  0.00  0.00     0.003 C 
HETATM   27  C   UNK N   1      31.686  22.886  -4.144  0.00  0.00    -0.075 C 
HETATM   28  C   UNK N   1      32.047  21.543  -3.573  0.00  0.00     0.066 C 
HETATM   29  C   UNK N   1      31.628  23.000  -5.646  0.00  0.00     0.066 C 
HETATM   30  C   UNK N   1      32.002  20.465  -4.679  0.00  0.00     0.124 C 
HETATM   31  C   UNK N   1      30.730  20.617  -5.531  0.00  0.00     0.064 C 
HETATM   32  C   UNK N   1      30.629  21.993  -6.215  0.00  0.00     0.124 C 
BRANCH  30  33
HETATM   33  O   UNK N   1      32.014  19.199  -4.099  0.00  0.00    -0.395 OA
HETATM   34  H   UNK N   1      32.089  18.372  -4.600  0.00  0.00     0.210 HD
ENDBRANCH  30  33
BRANCH  32  35
HETATM   35  O   UNK N   1      30.850  21.861  -7.586  0.00  0.00    -0.395 OA
HETATM   36  H   UNK N   1      30.189  21.514  -8.204  0.00  0.00     0.210 HD
ENDBRANCH  32  35
ENDBRANCH  25  26
ENDBRANCH   3  24
TORSDOF 11
ENDMDL
MODEL 3
REMARK VINA RESULT:      -6.7     11.915     14.549
REMARK  11 active torsions:
REMARK  status: ('A' for Active; 'I' for Inactive)
REMARK    1  A    between atoms: C_1  and  C_2 
REMARK    2  A    between atoms: C_30  and  C_1 
REMARK    3  A    between atoms: C_2  and  C_3 
REMARK    4  A    between atoms: C_4  and  C_5 
REMARK    5  A    between atoms: C_5  and  C_6 
REMARK    6  A    between atoms: C_5  and  C_7 
REMARK    7  A    between atoms: C_5  and  O_8 
REMARK    8  A    between atoms: C_18  and  O_15 
REMARK    9  A    between atoms: C_16  and  O_32 
REMARK   10  A    between atoms: C_21  and  C_22 
REMARK   11  A    between atoms: C_27  and  C_23 
ROOT
HETATM    1  C   UNK N   1      24.818  23.304  -8.824  0.00  0.00     0.016 C 
HETATM    2  C   UNK N   1      26.142  23.176  -8.067  0.00  0.00    -0.034 C 
HETATM    3  C   UNK N   1      26.807  24.576  -8.012  0.00  0.00     0.016 C 
HETATM    4  C   UNK N   1      28.282  24.301  -8.033  0.00  0.00     0.010 C 
HETATM    5  C   UNK N   1      28.306  23.273  -9.157  0.00  0.00     0.010 C 
HETATM    6  C   UNK N   1      27.213  22.273  -8.764  0.00  0.00    -0.036 C 
HETATM    7  C   UNK N   1      25.802  22.618  -6.680  0.00  0.00     0.016 C 
HETATM    8  C   UNK N   1      26.689  21.575 -10.013  0.00  0.00     0.016 C 
ENDROOT
BRANCH   6   9
HETATM    9  C   UNK N   1      27.773  21.137  -7.841  0.00  0.00     0.022 C 
BRANCH   9  10
HETATM   10  C   UNK N   1      29.297  20.970  -7.783  0.00  0.00     0.095 C 
BRANCH  10  11
HETATM   11  C   UNK N   1      29.632  21.383  -6.429  0.00  0.00    -0.103 C 
HETATM   12  C   UNK N   1      29.890  22.066  -5.477  0.00  0.00    -0.050 C 
BRANCH  12  13
HETATM   13  C   UNK N   1      30.389  22.933  -4.414  0.00  0.00     0.318 C 
BRANCH  13  14
HETATM   14  C   UNK N   1      30.270  22.226  -3.048  0.00  0.00     0.439 C 
HETATM   15  F   UNK N   1      29.004  22.395  -2.509  0.00  0.00    -0.166 F 
HETATM   16  F   UNK N   1      30.503  20.870  -3.194  0.00  0.00    -0.166 F 
HETATM   17  F   UNK N   1      31.200  22.742  -2.164  0.00  0.00    -0.166 F 
ENDBRANCH  13  14
BRANCH  13  18
HETATM   18  C   UNK N   1      29.561  24.244  -4.463  0.00  0.00     0.439 C 
HETATM   19  F   UNK N   1      28.226  23.957  -4.708  0.00  0.00    -0.166 F 
HETATM   20  F   UNK N   1      29.638  24.935  -3.266  0.00  0.00    -0.166 F 
HETATM   21  F   UNK N   1      30.018  25.069  -5.473  0.00  0.00    -0.166 F 
ENDBRANCH  13  18
BRANCH  13  22
HETATM   22  O   UNK N   1      31.726  23.226  -4.680  0.00  0.00    -0.363 OA
HETATM   23  H   UNK N   1      32.191  23.753  -5.350  0.00  0.00     0.212 HD
ENDBRANCH  13  22
ENDBRANCH  12  13
ENDBRANCH  10  11
ENDBRANCH   9  10
ENDBRANCH   6   9
BRANCH   3  24
HETATM   24  C   UNK N   1      26.229  25.419  -6.929  0.00  0.00    -0.021 C 
HETATM   25  C   UNK N   1      25.551  26.567  -6.997  0.00  0.00    -0.003 C 
BRANCH  25  26
HETATM   26  C   UNK N   1      25.287  27.205  -5.687  0.00  0.00     0.003 C 
HETATM   27  C   UNK N   1      26.162  28.087  -5.151  0.00  0.00    -0.075 C 
HETATM   28  C   UNK N   1      26.062  28.480  -3.704  0.00  0.00     0.066 C 
HETATM   29  C   UNK N   1      27.370  28.570  -5.911  0.00  0.00     0.066 C 
HETATM   30  C   UNK N   1      27.403  29.076  -3.220  0.00  0.00     0.124 C 
HETATM   31  C   UNK N   1      28.582  28.213  -3.697  0.00  0.00     0.064 C 
HETATM   32  C   UNK N   1      28.651  28.088  -5.230  0.00  0.00     0.124 C 
BRANCH  30  33
HETATM   33  O   UNK N   1      27.414  29.136  -1.829  0.00  0.00    -0.395 OA
HETATM   34  H   UNK N   1      28.089  29.599  -1.310  0.00  0.00     0.210 HD
ENDBRANCH  30  33
BRANCH  32  35
HETATM   35  O   UNK N   1      29.728  28.826  -5.720  0.00  0.00    -0.395 OA
HETATM   36  H   UNK N   1      30.094  28.712  -6.612  0.00  0.00     0.210 HD
ENDBRANCH  32  35
ENDBRANCH  25  26
ENDBRANCH   3  24
TORSDOF 11
ENDMDL
MODEL 4
REMARK VINA RESULT:      -6.6      0.839      1.838
REMARK  11 active torsions:
REMARK  status: ('A' for Active; 'I' for Inactive)
REMARK    1  A    between atoms: C_1  and  C_2 
REMARK    2  A    between atoms: C_30  and  C_1 
REMARK    3  A    between atoms: C_2  and  C_3 
REMARK    4  A    between atoms: C_4  and  C_5 
REMARK    5  A    between atoms: C_5  and  C_6 
REMARK    6  A    between atoms: C_5  and  C_7 
REMARK    7  A    between atoms: C_5  and  O_8 
REMARK    8  A    between atoms: C_18  and  O_15 
REMARK    9  A    between atoms: C_16  and  O_32 
REMARK   10  A    between atoms: C_21  and  C_22 
REMARK   11  A    between atoms: C_27  and  C_23 
ROOT
HETATM    1  C   UNK N   1      29.139  13.334   2.128  0.00  0.00     0.016 C 
HETATM    2  C   UNK N   1      28.556  14.439   3.012  0.00  0.00    -0.034 C 
HETATM    3  C   UNK N   1      28.980  14.163   4.477  0.00  0.00     0.016 C 
HETATM    4  C   UNK N   1      27.845  14.683   5.310  0.00  0.00     0.010 C 
HETATM    5  C   UNK N   1      26.689  14.085   4.518  0.00  0.00     0.010 C 
HETATM    6  C   UNK N   1      26.993  14.480   3.068  0.00  0.00    -0.036 C 
HETATM    7  C   UNK N   1      29.101  15.766   2.469  0.00  0.00     0.016 C 
HETATM    8  C   UNK N   1      26.332  13.487   2.121  0.00  0.00     0.016 C 
ENDROOT
BRANCH   6   9
HETATM    9  C   UNK N   1      26.389  15.882   2.711  0.00  0.00     0.022 C 
BRANCH   9  10
HETATM   10  C   UNK N   1      25.269  16.411   3.616  0.00  0.00     0.095 C 
BRANCH  10  11
HETATM   11  C   UNK N   1      25.819  17.648   4.148  0.00  0.00    -0.103 C 
HETATM   12  C   UNK N   1      26.447  18.421   4.816  0.00  0.00    -0.050 C 
BRANCH  12  13
HETATM   13  C   UNK N   1      27.079  19.311   5.786  0.00  0.00     0.318 C 
BRANCH  13  14
HETATM   14  C   UNK N   1      27.733  20.508   5.065  0.00  0.00     0.439 C 
HETATM   15  F   UNK N   1      28.029  21.526   5.959  0.00  0.00    -0.166 F 
HETATM   16  F   UNK N   1      28.910  20.109   4.457  0.00  0.00    -0.166 F 
HETATM   17  F   UNK N   1      26.880  21.002   4.096  0.00  0.00    -0.166 F 
ENDBRANCH  13  14
BRANCH  13  18
HETATM   18  C   UNK N   1      28.116  18.470   6.576  0.00  0.00     0.439 C 
HETATM   19  F   UNK N   1      28.744  19.258   7.530  0.00  0.00    -0.166 F 
HETATM   20  F   UNK N   1      27.513  17.407   7.226  0.00  0.00    -0.166 F 
HETATM   21  F   UNK N   1      29.082  17.969   5.725  0.00  0.00    -0.166 F 
ENDBRANCH  13  18
BRANCH  13  22
HETATM   22  O   UNK N   1      26.097  19.768   6.664  0.00  0.00    -0.363 OA
HETATM   23  H   UNK N   1      25.851  20.634   7.026  0.00  0.00     0.212 HD
ENDBRANCH  13  22
ENDBRANCH  12  13
ENDBRANCH  10  11
ENDBRANCH   9  10
ENDBRANCH   6   9
BRANCH   3  24
HETATM   24  C   UNK N   1      30.368  14.629   4.749  0.00  0.00    -0.021 C 
HETATM   25  C   UNK N   1      31.293  14.149   5.583  0.00  0.00    -0.003 C 
BRANCH  25  26
HETATM   26  C   UNK N   1      32.506  14.989   5.708  0.00  0.00     0.003 C 
HETATM   27  C   UNK N   1      32.776  15.659   6.851  0.00  0.00    -0.075 C 
HETATM   28  C   UNK N   1      33.810  16.750   6.873  0.00  0.00     0.066 C 
HETATM   29  C   UNK N   1      31.944  15.478   8.094  0.00  0.00     0.066 C 
HETATM   30  C   UNK N   1      33.595  17.663   8.101  0.00  0.00     0.124 C 
HETATM   31  C   UNK N   1      32.107  18.017   8.258  0.00  0.00     0.064 C 
HETATM   32  C   UNK N   1      31.211  16.777   8.434  0.00  0.00     0.124 C 
BRANCH  30  33
HETATM   33  O   UNK N   1      34.330  18.836   7.947  0.00  0.00    -0.395 OA
HETATM   34  H   UNK N   1      35.096  18.924   7.361  0.00  0.00     0.210 HD
ENDBRANCH  30  33
BRANCH  32  35
HETATM   35  O   UNK N   1      30.751  16.704   9.749  0.00  0.00    -0.395 OA
HETATM   36  H   UNK N   1      30.741  15.885  10.268  0.00  0.00     0.210 HD
ENDBRANCH  32  35
ENDBRANCH  25  26
ENDBRANCH   3  24
TORSDOF 11
ENDMDL
MODEL 5
REMARK VINA RESULT:      -6.6      4.032      8.755
REMARK  11 active torsions:
REMARK  status: ('A' for Active; 'I' for Inactive)
REMARK    1  A    between atoms: C_1  and  C_2 
REMARK    2  A    between atoms: C_30  and  C_1 
REMARK    3  A    between atoms: C_2  and  C_3 
REMARK    4  A    between atoms: C_4  and  C_5 
REMARK    5  A    between atoms: C_5  and  C_6 
REMARK    6  A    between atoms: C_5  and  C_7 
REMARK    7  A    between atoms: C_5  and  O_8 
REMARK    8  A    between atoms: C_18  and  O_15 
REMARK    9  A    between atoms: C_16  and  O_32 
REMARK   10  A    between atoms: C_21  and  C_22 
REMARK   11  A    between atoms: C_27  and  C_23 
ROOT
HETATM    1  C   UNK N   1      27.896  16.668   3.442  0.00  0.00     0.016 C 
HETATM    2  C   UNK N   1      27.475  17.280   4.780  0.00  0.00    -0.034 C 
HETATM    3  C   UNK N   1      26.601  18.528   4.488  0.00  0.00     0.016 C 
HETATM    4  C   UNK N   1      26.887  19.469   5.621  0.00  0.00     0.010 C 
HETATM    5  C   UNK N   1      28.405  19.346   5.643  0.00  0.00     0.010 C 
HETATM    6  C   UNK N   1      28.651  17.833   5.649  0.00  0.00    -0.036 C 
HETATM    7  C   UNK N   1      26.720  16.186   5.544  0.00  0.00     0.016 C 
HETATM    8  C   UNK N   1      30.025  17.539   5.059  0.00  0.00     0.016 C 
ENDROOT
BRANCH   6   9
HETATM    9  C   UNK N   1      28.678  17.258   7.107  0.00  0.00     0.022 C 
BRANCH   9  10
HETATM   10  C   UNK N   1      29.037  18.231   8.237  0.00  0.00     0.095 C 
BRANCH  10  11
HETATM   11  C   UNK N   1      30.454  17.985   8.458  0.00  0.00    -0.103 C 
HETATM   12  C   UNK N   1      31.559  17.527   8.367  0.00  0.00    -0.050 C 
BRANCH  12  13
HETATM   13  C   UNK N   1      32.823  16.796   8.347  0.00  0.00     0.318 C 
BRANCH  13  14
HETATM   14  C   UNK N   1      33.835  17.504   7.423  0.00  0.00     0.439 C 
HETATM   15  F   UNK N   1      34.157  18.762   7.910  0.00  0.00    -0.166 F 
HETATM   16  F   UNK N   1      34.998  16.761   7.334  0.00  0.00    -0.166 F 
HETATM   17  F   UNK N   1      33.301  17.644   6.155  0.00  0.00    -0.166 F 
ENDBRANCH  13  14
BRANCH  13  18
HETATM   18  C   UNK N   1      32.511  15.353   7.869  0.00  0.00     0.439 C 
HETATM   19  F   UNK N   1      31.457  15.365   6.967  0.00  0.00    -0.166 F 
HETATM   20  F   UNK N   1      33.605  14.782   7.242  0.00  0.00    -0.166 F 
HETATM   21  F   UNK N   1      32.155  14.554   8.938  0.00  0.00    -0.166 F 
ENDBRANCH  13  18
BRANCH  13  22
HETATM   22  O   UNK N   1      33.321  16.749   9.647  0.00  0.00    -0.363 OA
HETATM   23  H   UNK N   1      34.205  16.656  10.039  0.00  0.00     0.212 HD
ENDBRANCH  13  22
ENDBRANCH  12  13
ENDBRANCH  10  11
ENDBRANCH   9  10
ENDBRANCH   6   9
BRANCH   3  24
HETATM   24  C   UNK N   1      25.193  18.157   4.174  0.00  0.00    -0.021 C 
HETATM   25  C   UNK N   1      24.050  18.560   4.732  0.00  0.00    -0.003 C 
BRANCH  25  26
HETATM   26  C   UNK N   1      22.846  17.834   4.263  0.00  0.00     0.003 C 
HETATM   27  C   UNK N   1      22.014  18.381   3.348  0.00  0.00    -0.075 C 
HETATM   28  C   UNK N   1      20.646  17.804   3.117  0.00  0.00     0.066 C 
HETATM   29  C   UNK N   1      22.335  19.681   2.658  0.00  0.00     0.066 C 
HETATM   30  C   UNK N   1      19.738  18.846   2.426  0.00  0.00     0.124 C 
HETATM   31  C   UNK N   1      19.883  20.221   3.099  0.00  0.00     0.064 C 
HETATM   32  C   UNK N   1      21.326  20.757   3.059  0.00  0.00     0.124 C 
BRANCH  30  33
HETATM   33  O   UNK N   1      18.409  18.436   2.506  0.00  0.00    -0.395 OA
HETATM   34  H   UNK N   1      18.051  17.889   3.221  0.00  0.00     0.210 HD
ENDBRANCH  30  33
BRANCH  32  35
HETATM   35  O   UNK N   1      21.415  21.818   2.159  0.00  0.00    -0.395 OA
HETATM   36  H   UNK N   1      21.392  21.706   1.196  0.00  0.00     0.210 HD
ENDBRANCH  32  35
ENDBRANCH  25  26
ENDBRANCH   3  24
TORSDOF 11
ENDMDL
MODEL 6
REMARK VINA RESULT:      -6.5     11.402     13.243
REMARK  11 active torsions:
REMARK  status: ('A' for Active; 'I' for Inactive)
REMARK    1  A    between atoms: C_1  and  C_2 
REMARK    2  A    between atoms: C_30  and  C_1 
REMARK    3  A    between atoms: C_2  and  C_3 
REMARK    4  A    between atoms: C_4  and  C_5 
REMARK    5  A    between atoms: C_5  and  C_6 
REMARK    6  A    between atoms: C_5  and  C_7 
REMARK    7  A    between atoms: C_5  and  O_8 
REMARK    8  A    between atoms: C_18  and  O_15 
REMARK    9  A    between atoms: C_16  and  O_32 
REMARK   10  A    between atoms: C_21  and  C_22 
REMARK   11  A    between atoms: C_27  and  C_23 
ROOT
HETATM    1  C   UNK N   1      27.909  21.881 -10.509  0.00  0.00     0.016 C 
HETATM    2  C   UNK N   1      27.871  22.728  -9.234  0.00  0.00    -0.034 C 
HETATM    3  C   UNK N   1      27.541  21.793  -8.041  0.00  0.00     0.016 C 
HETATM    4  C   UNK N   1      26.763  22.651  -7.087  0.00  0.00     0.010 C 
HETATM    5  C   UNK N   1      25.815  23.302  -8.085  0.00  0.00     0.010 C 
HETATM    6  C   UNK N   1      26.742  23.809  -9.196  0.00  0.00    -0.036 C 
HETATM    7  C   UNK N   1      29.247  23.394  -9.111  0.00  0.00     0.016 C 
HETATM    8  C   UNK N   1      25.963  23.911 -10.502  0.00  0.00     0.016 C 
ENDROOT
BRANCH   6   9
HETATM    9  C   UNK N   1      27.268  25.255  -8.896  0.00  0.00     0.022 C 
BRANCH   9  10
HETATM   10  C   UNK N   1      26.330  26.195  -8.127  0.00  0.00     0.095 C 
BRANCH  10  11
HETATM   11  C   UNK N   1      26.972  26.327  -6.829  0.00  0.00    -0.103 C 
HETATM   12  C   UNK N   1      27.508  26.059  -5.790  0.00  0.00    -0.050 C 
BRANCH  12  13
HETATM   13  C   UNK N   1      27.973  25.657  -4.465  0.00  0.00     0.318 C 
BRANCH  13  14
HETATM   14  C   UNK N   1      28.992  24.506  -4.583  0.00  0.00     0.439 C 
HETATM   15  F   UNK N   1      30.026  24.662  -3.672  0.00  0.00    -0.166 F 
HETATM   16  F   UNK N   1      28.372  23.295  -4.333  0.00  0.00    -0.166 F 
HETATM   17  F   UNK N   1      29.527  24.474  -5.858  0.00  0.00    -0.166 F 
ENDBRANCH  13  14
BRANCH  13  18
HETATM   18  C   UNK N   1      26.722  25.244  -3.646  0.00  0.00     0.439 C 
HETATM   19  F   UNK N   1      26.041  26.371  -3.210  0.00  0.00    -0.166 F 
HETATM   20  F   UNK N   1      25.849  24.483  -4.406  0.00  0.00    -0.166 F 
HETATM   21  F   UNK N   1      27.090  24.506  -2.537  0.00  0.00    -0.166 F 
ENDBRANCH  13  18
BRANCH  13  22
HETATM   22  O   UNK N   1      28.572  26.760  -3.859  0.00  0.00    -0.363 OA
HETATM   23  H   UNK N   1      29.408  27.238  -3.980  0.00  0.00     0.212 HD
ENDBRANCH  13  22
ENDBRANCH  12  13
ENDBRANCH  10  11
ENDBRANCH   9  10
ENDBRANCH   6   9
BRANCH   3  24
HETATM   24  C   UNK N   1      28.746  21.061  -7.562  0.00  0.00    -0.021 C 
HETATM   25  C   UNK N   1      29.452  21.203  -6.439  0.00  0.00    -0.003 C 
BRANCH  25  26
HETATM   26  C   UNK N   1      30.700  20.406  -6.390  0.00  0.00     0.003 C 
HETATM   27  C   UNK N   1      31.396  20.270  -5.239  0.00  0.00    -0.075 C 
HETATM   28  C   UNK N   1      32.806  19.747  -5.254  0.00  0.00     0.066 C 
HETATM   29  C   UNK N   1      30.875  20.797  -3.927  0.00  0.00     0.066 C 
HETATM   30  C   UNK N   1      33.533  20.137  -3.948  0.00  0.00     0.124 C 
HETATM   31  C   UNK N   1      33.268  21.611  -3.601  0.00  0.00     0.064 C 
HETATM   32  C   UNK N   1      31.772  21.924  -3.415  0.00  0.00     0.124 C 
BRANCH  30  33
HETATM   33  O   UNK N   1      34.903  19.941  -4.098  0.00  0.00    -0.395 OA
HETATM   34  H   UNK N   1      35.535  19.934  -3.363  0.00  0.00     0.210 HD
ENDBRANCH  30  33
BRANCH  32  35
HETATM   35  O   UNK N   1      31.495  22.144  -2.066  0.00  0.00    -0.395 OA
HETATM   36  H   UNK N   1      32.182  22.252  -1.390  0.00  0.00     0.210 HD
ENDBRANCH  32  35
ENDBRANCH  25  26
ENDBRANCH   3  24
TORSDOF 11
ENDMDL
MODEL 7
REMARK VINA RESULT:      -6.5      4.042      7.889
REMARK  11 active torsions:
REMARK  status: ('A' for Active; 'I' for Inactive)
REMARK    1  A    between atoms: C_1  and  C_2 
REMARK    2  A    between atoms: C_30  and  C_1 
REMARK    3  A    between atoms: C_2  and  C_3 
REMARK    4  A    between atoms: C_4  and  C_5 
REMARK    5  A    between atoms: C_5  and  C_6 
REMARK    6  A    between atoms: C_5  and  C_7 
REMARK    7  A    between atoms: C_5  and  O_8 
REMARK    8  A    between atoms: C_18  and  O_15 
REMARK    9  A    between atoms: C_16  and  O_32 
REMARK   10  A    between atoms: C_21  and  C_22 
REMARK   11  A    between atoms: C_27  and  C_23 
ROOT
HETATM    1  C   UNK N   1      26.527  17.363   3.454  0.00  0.00     0.016 C 
HETATM    2  C   UNK N   1      25.525  18.284   4.154  0.00  0.00    -0.034 C 
HETATM    3  C   UNK N   1      24.184  18.222   3.377  0.00  0.00     0.016 C 
HETATM    4  C   UNK N   1      23.584  19.587   3.538  0.00  0.00     0.010 C 
HETATM    5  C   UNK N   1      24.826  20.418   3.241  0.00  0.00     0.010 C 
HETATM    6  C   UNK N   1      25.905  19.801   4.138  0.00  0.00    -0.036 C 
HETATM    7  C   UNK N   1      25.405  17.783   5.598  0.00  0.00     0.016 C 
HETATM    8  C   UNK N   1      27.280  20.071   3.539  0.00  0.00     0.016 C 
ENDROOT
BRANCH   6   9
HETATM    9  C   UNK N   1      25.920  20.459   5.561  0.00  0.00     0.022 C 
BRANCH   9  10
HETATM   10  C   UNK N   1      27.263  21.000   6.068  0.00  0.00     0.095 C 
BRANCH  10  11
HETATM   11  C   UNK N   1      27.676  20.013   7.052  0.00  0.00    -0.103 C 
HETATM   12  C   UNK N   1      28.198  19.060   7.561  0.00  0.00    -0.050 C 
BRANCH  12  13
HETATM   13  C   UNK N   1      28.695  17.784   8.069  0.00  0.00     0.318 C 
BRANCH  13  14
HETATM   14  C   UNK N   1      29.784  18.022   9.136  0.00  0.00     0.439 C 
HETATM   15  F   UNK N   1      30.973  18.433   8.550  0.00  0.00    -0.166 F 
HETATM   16  F   UNK N   1      29.375  19.003  10.021  0.00  0.00    -0.166 F 
HETATM   17  F   UNK N   1      30.018  16.858   9.842  0.00  0.00    -0.166 F 
ENDBRANCH  13  14
BRANCH  13  18
HETATM   18  C   UNK N   1      29.237  16.986   6.854  0.00  0.00     0.439 C 
HETATM   19  F   UNK N   1      29.692  17.856   5.875  0.00  0.00    -0.166 F 
HETATM   20  F   UNK N   1      30.288  16.163   7.220  0.00  0.00    -0.166 F 
HETATM   21  F   UNK N   1      28.240  16.202   6.306  0.00  0.00    -0.166 F 
ENDBRANCH  13  18
BRANCH  13  22
HETATM   22  O   UNK N   1      27.625  17.091   8.632  0.00  0.00    -0.363 OA
HETATM   23  H   UNK N   1      26.698  17.303   8.826  0.00  0.00     0.212 HD
ENDBRANCH  13  22
ENDBRANCH  12  13
ENDBRANCH  10  11
ENDBRANCH   9  10
ENDBRANCH   6   9
BRANCH   3  24
HETATM   24  C   UNK N   1      23.388  17.018   3.744  0.00  0.00    -0.021 C 
HETATM   25  C   UNK N   1      22.155  16.656   3.384  0.00  0.00    -0.003 C 
BRANCH  25  26
HETATM   26  C   UNK N   1      21.629  15.467   4.095  0.00  0.00     0.003 C 
HETATM   27  C   UNK N   1      20.875  15.597   5.210  0.00  0.00    -0.075 C 
HETATM   28  C   UNK N   1      20.619  14.416   6.103  0.00  0.00     0.066 C 
HETATM   29  C   UNK N   1      20.415  16.944   5.705  0.00  0.00     0.066 C 
HETATM   30  C   UNK N   1      20.179  14.893   7.505  0.00  0.00     0.124 C 
HETATM   31  C   UNK N   1      21.080  16.039   7.994  0.00  0.00     0.064 C 
HETATM   32  C   UNK N   1      21.059  17.260   7.056  0.00  0.00     0.124 C 
BRANCH  30  33
HETATM   33  O   UNK N   1      20.257  13.834   8.406  0.00  0.00    -0.395 OA
HETATM   34  H   UNK N   1      21.083  13.400   8.665  0.00  0.00     0.210 HD
ENDBRANCH  30  33
BRANCH  32  35
HETATM   35  O   UNK N   1      20.361  18.309   7.654  0.00  0.00    -0.395 OA
HETATM   36  H   UNK N   1      20.243  19.178   7.240  0.00  0.00     0.210 HD
ENDBRANCH  32  35
ENDBRANCH  25  26
ENDBRANCH   3  24
TORSDOF 11
ENDMDL
MODEL 8
REMARK VINA RESULT:      -6.5     11.793     14.533
REMARK  11 active torsions:
REMARK  status: ('A' for Active; 'I' for Inactive)
REMARK    1  A    between atoms: C_1  and  C_2 
REMARK    2  A    between atoms: C_30  and  C_1 
REMARK    3  A    between atoms: C_2  and  C_3 
REMARK    4  A    between atoms: C_4  and  C_5 
REMARK    5  A    between atoms: C_5  and  C_6 
REMARK    6  A    between atoms: C_5  and  C_7 
REMARK    7  A    between atoms: C_5  and  O_8 
REMARK    8  A    between atoms: C_18  and  O_15 
REMARK    9  A    between atoms: C_16  and  O_32 
REMARK   10  A    between atoms: C_21  and  C_22 
REMARK   11  A    between atoms: C_27  and  C_23 
ROOT
HETATM    1  C   UNK N   1      25.246  22.206  -6.752  0.00  0.00     0.016 C 
HETATM    2  C   UNK N   1      26.467  23.021  -7.185  0.00  0.00    -0.034 C 
HETATM    3  C   UNK N   1      25.967  24.336  -7.836  0.00  0.00     0.016 C 
HETATM    4  C   UNK N   1      26.995  24.663  -8.880  0.00  0.00     0.010 C 
HETATM    5  C   UNK N   1      27.136  23.279  -9.501  0.00  0.00     0.010 C 
HETATM    6  C   UNK N   1      27.343  22.354  -8.296  0.00  0.00    -0.036 C 
HETATM    7  C   UNK N   1      27.305  23.258  -5.922  0.00  0.00     0.016 C 
HETATM    8  C   UNK N   1      26.888  20.944  -8.654  0.00  0.00     0.016 C 
ENDROOT
BRANCH   6   9
HETATM    9  C   UNK N   1      28.858  22.233  -7.913  0.00  0.00     0.022 C 
BRANCH   9  10
HETATM   10  C   UNK N   1      29.393  20.827  -7.613  0.00  0.00     0.095 C 
BRANCH  10  11
HETATM   11  C   UNK N   1      30.265  21.035  -6.467  0.00  0.00    -0.103 C 
HETATM   12  C   UNK N   1      30.650  21.206  -5.344  0.00  0.00    -0.050 C 
BRANCH  12  13
HETATM   13  C   UNK N   1      31.034  21.608  -3.994  0.00  0.00     0.318 C 
BRANCH  13  14
HETATM   14  C   UNK N   1      30.441  22.992  -3.660  0.00  0.00     0.439 C 
HETATM   15  F   UNK N   1      31.102  23.571  -2.587  0.00  0.00    -0.166 F 
HETATM   16  F   UNK N   1      30.560  23.835  -4.751  0.00  0.00    -0.166 F 
HETATM   17  F   UNK N   1      29.101  22.870  -3.340  0.00  0.00    -0.166 F 
ENDBRANCH  13  14
BRANCH  13  18
HETATM   18  C   UNK N   1      32.584  21.612  -3.939  0.00  0.00     0.439 C 
HETATM   19  F   UNK N   1      33.017  21.405  -2.638  0.00  0.00    -0.166 F 
HETATM   20  F   UNK N   1      33.119  20.611  -4.733  0.00  0.00    -0.166 F 
HETATM   21  F   UNK N   1      33.082  22.825  -4.373  0.00  0.00    -0.166 F 
ENDBRANCH  13  18
BRANCH  13  22
HETATM   22  O   UNK N   1      30.547  20.656  -3.099  0.00  0.00    -0.363 OA
HETATM   23  H   UNK N   1      30.069  20.691  -2.255  0.00  0.00     0.212 HD
ENDBRANCH  13  22
ENDBRANCH  12  13
ENDBRANCH  10  11
ENDBRANCH   9  10
ENDBRANCH   6   9
BRANCH   3  24
HETATM   24  C   UNK N   1      25.604  25.357  -6.814  0.00  0.00    -0.021 C 
HETATM   25  C   UNK N   1      25.625  26.690  -6.879  0.00  0.00    -0.003 C 
BRANCH  25  26
HETATM   26  C   UNK N   1      25.358  27.374  -5.593  0.00  0.00     0.003 C 
HETATM   27  C   UNK N   1      26.256  28.233  -5.060  0.00  0.00    -0.075 C 
HETATM   28  C   UNK N   1      26.140  28.670  -3.626  0.00  0.00     0.066 C 
HETATM   29  C   UNK N   1      27.500  28.645  -5.803  0.00  0.00     0.066 C 
HETATM   30  C   UNK N   1      27.493  29.224  -3.127  0.00  0.00     0.124 C 
HETATM   31  C   UNK N   1      28.646  28.300  -3.553  0.00  0.00     0.064 C 
HETATM   32  C   UNK N   1      28.745  28.130  -5.080  0.00  0.00     0.124 C 
BRANCH  30  33
HETATM   33  O   UNK N   1      27.476  29.321  -1.737  0.00  0.00    -0.395 OA
HETATM   34  H   UNK N   1      27.404  30.157  -1.252  0.00  0.00     0.210 HD
ENDBRANCH  30  33
BRANCH  32  35
HETATM   35  O   UNK N   1      29.862  28.811  -5.564  0.00  0.00    -0.395 OA
HETATM   36  H   UNK N   1      30.356  29.464  -5.045  0.00  0.00     0.210 HD
ENDBRANCH  32  35
ENDBRANCH  25  26
ENDBRANCH   3  24
TORSDOF 11
ENDMDL
MODEL 9
REMARK VINA RESULT:      -6.5     12.103     14.825
REMARK  11 active torsions:
REMARK  status: ('A' for Active; 'I' for Inactive)
REMARK    1  A    between atoms: C_1  and  C_2 
REMARK    2  A    between atoms: C_30  and  C_1 
REMARK    3  A    between atoms: C_2  and  C_3 
REMARK    4  A    between atoms: C_4  and  C_5 
REMARK    5  A    between atoms: C_5  and  C_6 
REMARK    6  A    between atoms: C_5  and  C_7 
REMARK    7  A    between atoms: C_5  and  O_8 
REMARK    8  A    between atoms: C_18  and  O_15 
REMARK    9  A    between atoms: C_16  and  O_32 
REMARK   10  A    between atoms: C_21  and  C_22 
REMARK   11  A    between atoms: C_27  and  C_23 
ROOT
HETATM    1  C   UNK N   1      30.955  23.996  -6.130  0.00  0.00     0.016 C 
HETATM    2  C   UNK N   1      30.113  22.812  -5.646  0.00  0.00    -0.034 C 
HETATM    3  C   UNK N   1      30.183  22.769  -4.097  0.00  0.00     0.016 C 
HETATM    4  C   UNK N   1      30.086  21.313  -3.750  0.00  0.00     0.010 C 
HETATM    5  C   UNK N   1      31.079  20.769  -4.769  0.00  0.00     0.010 C 
HETATM    6  C   UNK N   1      30.637  21.407  -6.090  0.00  0.00    -0.036 C 
HETATM    7  C   UNK N   1      28.693  23.040  -6.176  0.00  0.00     0.016 C 
HETATM    8  C   UNK N   1      31.825  21.482  -7.042  0.00  0.00     0.016 C 
ENDROOT
BRANCH   6   9
HETATM    9  C   UNK N   1      29.556  20.537  -6.820  0.00  0.00     0.022 C 
BRANCH   9  10
HETATM   10  C   UNK N   1      29.664  20.422  -8.345  0.00  0.00     0.095 C 
BRANCH  10  11
HETATM   11  C   UNK N   1      28.291  20.589  -8.796  0.00  0.00    -0.103 C 
HETATM   12  C   UNK N   1      27.223  21.078  -9.038  0.00  0.00    -0.050 C 
BRANCH  12  13
HETATM   13  C   UNK N   1      25.893  21.674  -9.124  0.00  0.00     0.318 C 
BRANCH  13  14
HETATM   14  C   UNK N   1      26.002  23.189  -9.393  0.00  0.00     0.439 C 
HETATM   15  F   UNK N   1      24.900  23.864  -8.889  0.00  0.00    -0.166 F 
HETATM   16  F   UNK N   1      27.138  23.697  -8.788  0.00  0.00    -0.166 F 
HETATM   17  F   UNK N   1      26.082  23.425 -10.753  0.00  0.00    -0.166 F 
ENDBRANCH  13  14
BRANCH  13  18
HETATM   18  C   UNK N   1      25.167  21.372  -7.787  0.00  0.00     0.439 C 
HETATM   19  F   UNK N   1      23.838  21.761  -7.865  0.00  0.00    -0.166 F 
HETATM   20  F   UNK N   1      25.201  20.020  -7.488  0.00  0.00    -0.166 F 
HETATM   21  F   UNK N   1      25.759  22.063  -6.747  0.00  0.00    -0.166 F 
ENDBRANCH  13  18
BRANCH  13  22
HETATM   22  O   UNK N   1      25.204  21.056 -10.167  0.00  0.00    -0.363 OA
HETATM   23  H   UNK N   1      24.483  21.319 -10.761  0.00  0.00     0.212 HD
ENDBRANCH  13  22
ENDBRANCH  12  13
ENDBRANCH  10  11
ENDBRANCH   9  10
ENDBRANCH   6   9
BRANCH   3  24
HETATM   24  C   UNK N   1      29.241  23.740  -3.474  0.00  0.00    -0.021 C 
HETATM   25  C   UNK N   1      27.906  23.770  -3.475  0.00  0.00    -0.003 C 
BRANCH  25  26
HETATM   26  C   UNK N   1      27.317  24.997  -2.890  0.00  0.00     0.003 C 
HETATM   27  C   UNK N   1      26.516  25.804  -3.622  0.00  0.00    -0.075 C 
HETATM   28  C   UNK N   1      26.188  27.192  -3.147  0.00  0.00     0.066 C 
HETATM   29  C   UNK N   1      26.069  25.432  -5.012  0.00  0.00     0.066 C 
HETATM   30  C   UNK N   1      25.696  28.057  -4.330  0.00  0.00     0.124 C 
HETATM   31  C   UNK N   1      26.604  27.864  -5.556  0.00  0.00     0.064 C 
HETATM   32  C   UNK N   1      26.659  26.402  -6.036  0.00  0.00     0.124 C 
BRANCH  30  33
HETATM   33  O   UNK N   1      25.704  29.401  -3.962  0.00  0.00    -0.395 OA
HETATM   34  H   UNK N   1      26.302  29.779  -3.300  0.00  0.00     0.210 HD
ENDBRANCH  30  33
BRANCH  32  35
HETATM   35  O   UNK N   1      25.962  26.269  -7.237  0.00  0.00    -0.395 OA
HETATM   36  H   UNK N   1      25.499  25.458  -7.500  0.00  0.00     0.210 HD
ENDBRANCH  32  35
ENDBRANCH  25  26
ENDBRANCH   3  24
TORSDOF 11
ENDMDL
