MODEL 1
REMARK VINA RESULT:      -7.4      0.000      0.000
REMARK  4 active torsions:
REMARK  status: ('A' for Active; 'I' for Inactive)
REMARK    1  A    between atoms: S_2  and  N_4 
REMARK    2  A    between atoms: S_2  and  C_5 
REMARK    3  A    between atoms: C_8  and  C_11 
REMARK    4  A    between atoms: C_15  and  C_16 
ROOT
HETATM    1  C   UNK N   1      26.144  19.612   4.759  0.00  0.00     0.086 A 
HETATM    2  O   UNK N   1      26.402  19.357   6.001  0.00  0.00    -0.310 OA
HETATM    3  C   UNK N   1      27.305  20.020   4.120  0.00  0.00     0.041 A 
HETATM    4  C   UNK N   1      28.300  19.977   5.111  0.00  0.00     0.040 A 
HETATM    5  C   UNK N   1      27.647  19.569   6.265  0.00  0.00     0.077 A 
ENDROOT
BRANCH   1   6
HETATM    6  C   UNK N   1      24.754  19.499   4.307  0.00  0.00    -0.002 A 
HETATM    7  C   UNK N   1      24.362  20.452   3.366  0.00  0.00     0.016 A 
HETATM    8  C   UNK N   1      23.120  20.414   2.783  0.00  0.00     0.026 A 
HETATM    9  C   UNK N   1      22.214  19.420   3.125  0.00  0.00     0.079 A 
HETATM   10  C   UNK N   1      22.574  18.443   4.080  0.00  0.00     0.026 A 
HETATM   11  C   UNK N   1      23.854  18.487   4.682  0.00  0.00     0.016 A 
BRANCH   9  12
HETATM   12  S   UNK N   1      20.670  19.425   2.209  0.00  0.00     0.256 S 
HETATM   13  O   UNK N   1      19.225  19.484   2.719  0.00  0.00    -0.201 OA
HETATM   14  O   UNK N   1      20.714  20.362   0.992  0.00  0.00    -0.201 OA
BRANCH  12  15
HETATM   15  N   UNK N   1      20.690  20.932   3.131  0.00  0.00    -0.324 N 
HETATM   16  H   UNK N   1      20.469  21.820   3.580  0.00  0.00     0.169 HD
HETATM   17  H   UNK N   1      21.648  20.856   3.472  0.00  0.00     0.169 HD
ENDBRANCH  12  15
ENDBRANCH   9  12
ENDBRANCH   1   6
BRANCH   5  18
HETATM   18  C   UNK N   1      28.171  19.340   7.628  0.00  0.00     0.061 C 
HETATM   19  C   UNK N   1      29.092  18.369   7.864  0.00  0.00     0.080 A 
HETATM   20  S   UNK N   1      29.693  17.174   6.632  0.00  0.00    -0.024 SA
HETATM   21  C   UNK N   1      29.776  18.174   9.131  0.00  0.00     0.266 A 
HETATM   22  C   UNK N   1      30.840  16.635   7.899  0.00  0.00     0.291 A 
HETATM   23  N   UNK N   1      30.731  17.233   9.105  0.00  0.00    -0.283 N 
HETATM   24  O   UNK N   1      31.687  15.783   7.684  0.00  0.00    -0.260 OA
HETATM   25  H   UNK N   1      31.293  17.003   9.881  0.00  0.00     0.172 HD
HETATM   26  O   UNK N   1      29.558  18.840  10.136  0.00  0.00    -0.267 OA
ENDBRANCH   5  18
TORSDOF 4
ENDMDL
MODEL 2
REMARK VINA RESULT:      -7.2      3.002      4.546
REMARK  4 active torsions:
REMARK  status: ('A' for Active; 'I' for Inactive)
REMARK    1  A    between atoms: S_2  and  N_4 
REMARK    2  A    between atoms: S_2  and  C_5 
REMARK    3  A    between atoms: C_8  and  C_11 
REMARK    4  A    between atoms: C_15  and  C_16 
ROOT
HETATM    1  C   UNK N   1      28.439  18.416   7.786  0.00  0.00     0.086 A 
HETATM    2  O   UNK N   1      29.475  17.734   7.419  0.00  0.00    -0.310 OA
HETATM    3  C   UNK N   1      28.261  18.284   9.155  0.00  0.00     0.041 A 
HETATM    4  C   UNK N   1      29.310  17.453   9.580  0.00  0.00     0.040 A 
HETATM    5  C   UNK N   1      30.015  17.138   8.428  0.00  0.00     0.077 A 
ENDROOT
BRANCH   1   6
HETATM    6  C   UNK N   1      27.658  19.095   6.748  0.00  0.00    -0.002 A 
HETATM    7  C   UNK N   1      27.236  18.275   5.700  0.00  0.00     0.016 A 
HETATM    8  C   UNK N   1      26.418  18.749   4.704  0.00  0.00     0.026 A 
HETATM    9  C   UNK N   1      25.993  20.071   4.715  0.00  0.00     0.079 A 
HETATM   10  C   UNK N   1      26.406  20.932   5.757  0.00  0.00     0.026 A 
HETATM   11  C   UNK N   1      27.252  20.440   6.780  0.00  0.00     0.016 A 
BRANCH   9  12
HETATM   12  S   UNK N   1      24.842  20.529   3.415  0.00  0.00     0.256 S 
HETATM   13  O   UNK N   1      25.083  20.726   1.913  0.00  0.00    -0.201 OA
HETATM   14  O   UNK N   1      23.509  19.772   3.520  0.00  0.00    -0.201 OA
BRANCH  12  15
HETATM   15  N   UNK N   1      25.484  18.948   2.957  0.00  0.00    -0.324 N 
HETATM   16  H   UNK N   1      25.616  17.983   2.656  0.00  0.00     0.169 HD
HETATM   17  H   UNK N   1      26.469  19.165   3.110  0.00  0.00     0.169 HD
ENDBRANCH  12  15
ENDBRANCH   9  12
ENDBRANCH   1   6
BRANCH   5  18
HETATM   18  C   UNK N   1      31.219  16.301   8.244  0.00  0.00     0.061 C 
HETATM   19  C   UNK N   1      32.457  16.861   8.220  0.00  0.00     0.080 A 
HETATM   20  S   UNK N   1      32.800  18.646   8.273  0.00  0.00    -0.024 SA
HETATM   21  C   UNK N   1      33.701  16.109   8.201  0.00  0.00     0.266 A 
HETATM   22  C   UNK N   1      34.529  18.183   8.370  0.00  0.00     0.291 A 
HETATM   23  N   UNK N   1      34.805  16.863   8.300  0.00  0.00    -0.283 N 
HETATM   24  O   UNK N   1      35.413  19.013   8.505  0.00  0.00    -0.260 OA
HETATM   25  H   UNK N   1      35.718  16.495   8.321  0.00  0.00     0.172 HD
HETATM   26  O   UNK N   1      33.760  14.886   8.158  0.00  0.00    -0.267 OA
ENDBRANCH   5  18
TORSDOF 4
ENDMDL
MODEL 3
REMARK VINA RESULT:      -7.1      3.825      5.669
REMARK  4 active torsions:
REMARK  status: ('A' for Active; 'I' for Inactive)
REMARK    1  A    between atoms: S_2  and  N_4 
REMARK    2  A    between atoms: S_2  and  C_5 
REMARK    3  A    between atoms: C_8  and  C_11 
REMARK    4  A    between atoms: C_15  and  C_16 
ROOT
HETATM    1  C   UNK N   1      30.238  15.818   5.675  0.00  0.00     0.086 A 
HETATM    2  O   UNK N   1      30.880  15.993   6.784  0.00  0.00    -0.310 OA
HETATM    3  C   UNK N   1      30.742  14.705   5.020  0.00  0.00     0.041 A 
HETATM    4  C   UNK N   1      31.758  14.219   5.859  0.00  0.00     0.040 A 
HETATM    5  C   UNK N   1      31.792  15.093   6.934  0.00  0.00     0.077 A 
ENDROOT
BRANCH   1   6
HETATM    6  C   UNK N   1      29.216  16.803   5.308  0.00  0.00    -0.002 A 
HETATM    7  C   UNK N   1      28.851  17.680   6.331  0.00  0.00     0.016 A 
HETATM    8  C   UNK N   1      27.976  18.714   6.110  0.00  0.00     0.026 A 
HETATM    9  C   UNK N   1      27.423  18.909   4.851  0.00  0.00     0.079 A 
HETATM   10  C   UNK N   1      27.764  18.036   3.794  0.00  0.00     0.026 A 
HETATM   11  C   UNK N   1      28.664  16.969   4.026  0.00  0.00     0.016 A 
BRANCH   9  12
HETATM   12  S   UNK N   1      26.381  20.360   4.675  0.00  0.00     0.256 S 
HETATM   13  O   UNK N   1      25.000  20.505   4.023  0.00  0.00    -0.201 OA
HETATM   14  O   UNK N   1      26.314  21.193   5.965  0.00  0.00    -0.201 OA
BRANCH  12  15
HETATM   15  N   UNK N   1      25.433  19.195   5.606  0.00  0.00    -0.324 N 
HETATM   16  H   UNK N   1      25.092  18.387   6.125  0.00  0.00     0.169 HD
HETATM   17  H   UNK N   1      24.584  19.756   5.679  0.00  0.00     0.169 HD
ENDBRANCH  12  15
ENDBRANCH   9  12
ENDBRANCH   1   6
BRANCH   5  18
HETATM   18  C   UNK N   1      32.652  15.095   8.137  0.00  0.00     0.061 C 
HETATM   19  C   UNK N   1      33.505  16.125   8.378  0.00  0.00     0.080 A 
HETATM   20  S   UNK N   1      33.804  17.523   7.255  0.00  0.00    -0.024 SA
HETATM   21  C   UNK N   1      34.270  16.290   9.604  0.00  0.00     0.266 A 
HETATM   22  C   UNK N   1      34.813  18.202   8.571  0.00  0.00     0.291 A 
HETATM   23  N   UNK N   1      34.956  17.440   9.677  0.00  0.00    -0.283 N 
HETATM   24  O   UNK N   1      35.335  19.302   8.483  0.00  0.00    -0.260 OA
HETATM   25  H   UNK N   1      35.503  17.701  10.452  0.00  0.00     0.172 HD
HETATM   26  O   UNK N   1      34.259  15.488  10.530  0.00  0.00    -0.267 OA
ENDBRANCH   5  18
TORSDOF 4
ENDMDL
MODEL 4
REMARK VINA RESULT:      -7.0      3.377      9.399
REMARK  4 active torsions:
REMARK  status: ('A' for Active; 'I' for Inactive)
REMARK    1  A    between atoms: S_2  and  N_4 
REMARK    2  A    between atoms: S_2  and  C_5 
REMARK    3  A    between atoms: C_8  and  C_11 
REMARK    4  A    between atoms: C_15  and  C_16 
ROOT
HETATM    1  C   UNK N   1      29.617  16.848   4.314  0.00  0.00     0.086 A 
HETATM    2  O   UNK N   1      28.486  17.072   4.900  0.00  0.00    -0.310 OA
HETATM    3  C   UNK N   1      29.390  16.248   3.085  0.00  0.00     0.041 A 
HETATM    4  C   UNK N   1      27.993  16.140   2.986  0.00  0.00     0.040 A 
HETATM    5  C   UNK N   1      27.502  16.663   4.172  0.00  0.00     0.077 A 
ENDROOT
BRANCH   1   6
HETATM    6  C   UNK N   1      30.846  17.182   5.040  0.00  0.00    -0.002 A 
HETATM    7  C   UNK N   1      30.732  17.160   6.431  0.00  0.00     0.016 A 
HETATM    8  C   UNK N   1      31.820  17.359   7.242  0.00  0.00     0.026 A 
HETATM    9  C   UNK N   1      33.073  17.595   6.691  0.00  0.00     0.079 A 
HETATM   10  C   UNK N   1      33.226  17.631   5.287  0.00  0.00     0.026 A 
HETATM   11  C   UNK N   1      32.100  17.428   4.453  0.00  0.00     0.016 A 
BRANCH   9  12
HETATM   12  S   UNK N   1      34.426  17.730   7.863  0.00  0.00     0.256 S 
HETATM   13  O   UNK N   1      35.154  18.975   8.385  0.00  0.00    -0.201 OA
HETATM   14  O   UNK N   1      34.231  16.825   9.090  0.00  0.00    -0.201 OA
BRANCH  12  15
HETATM   15  N   UNK N   1      33.087  18.646   8.564  0.00  0.00    -0.324 N 
HETATM   16  H   UNK N   1      32.178  19.024   8.827  0.00  0.00     0.169 HD
HETATM   17  H   UNK N   1      33.652  19.266   9.145  0.00  0.00     0.169 HD
ENDBRANCH  12  15
ENDBRANCH   9  12
ENDBRANCH   1   6
BRANCH   5  18
HETATM   18  C   UNK N   1      26.109  16.820   4.643  0.00  0.00     0.061 C 
HETATM   19  C   UNK N   1      25.380  17.913   4.301  0.00  0.00     0.080 A 
HETATM   20  S   UNK N   1      26.010  19.344   3.372  0.00  0.00    -0.024 SA
HETATM   21  C   UNK N   1      23.963  18.080   4.583  0.00  0.00     0.266 A 
HETATM   22  C   UNK N   1      24.318  19.934   3.377  0.00  0.00     0.291 A 
HETATM   23  N   UNK N   1      23.419  19.183   4.050  0.00  0.00    -0.283 N 
HETATM   24  O   UNK N   1      23.987  20.953   2.793  0.00  0.00    -0.260 OA
HETATM   25  H   UNK N   1      22.467  19.420   4.139  0.00  0.00     0.172 HD
HETATM   26  O   UNK N   1      23.289  17.266   5.203  0.00  0.00    -0.267 OA
ENDBRANCH   5  18
TORSDOF 4
ENDMDL
MODEL 5
REMARK VINA RESULT:      -6.9     10.147     13.590
REMARK  4 active torsions:
REMARK  status: ('A' for Active; 'I' for Inactive)
REMARK    1  A    between atoms: S_2  and  N_4 
REMARK    2  A    between atoms: S_2  and  C_5 
REMARK    3  A    between atoms: C_8  and  C_11 
REMARK    4  A    between atoms: C_15  and  C_16 
ROOT
HETATM    1  C   UNK N   1      35.744  13.859  12.663  0.00  0.00     0.086 A 
HETATM    2  O   UNK N   1      35.382  14.077  13.885  0.00  0.00    -0.310 OA
HETATM    3  C   UNK N   1      36.691  12.846  12.635  0.00  0.00     0.041 A 
HETATM    4  C   UNK N   1      36.858  12.468  13.977  0.00  0.00     0.040 A 
HETATM    5  C   UNK N   1      36.015  13.301  14.698  0.00  0.00     0.077 A 
ENDROOT
BRANCH   1   6
HETATM    6  C   UNK N   1      35.178  14.713  11.614  0.00  0.00    -0.002 A 
HETATM    7  C   UNK N   1      35.735  15.989  11.531  0.00  0.00     0.016 A 
HETATM    8  C   UNK N   1      35.371  16.867  10.540  0.00  0.00     0.026 A 
HETATM    9  C   UNK N   1      34.426  16.501   9.590  0.00  0.00     0.079 A 
HETATM   10  C   UNK N   1      33.836  15.218   9.647  0.00  0.00     0.026 A 
HETATM   11  C   UNK N   1      34.211  14.318  10.673  0.00  0.00     0.016 A 
BRANCH   9  12
HETATM   12  S   UNK N   1      34.125  17.700   8.290  0.00  0.00     0.256 S 
HETATM   13  O   UNK N   1      34.615  17.719   6.837  0.00  0.00    -0.201 OA
HETATM   14  O   UNK N   1      32.655  18.145   8.232  0.00  0.00    -0.201 OA
BRANCH  12  15
HETATM   15  N   UNK N   1      33.486  16.167   7.689  0.00  0.00    -0.324 N 
HETATM   16  H   UNK N   1      33.335  15.195   7.420  0.00  0.00     0.169 HD
HETATM   17  H   UNK N   1      32.586  16.525   7.369  0.00  0.00     0.169 HD
ENDBRANCH  12  15
ENDBRANCH   9  12
ENDBRANCH   1   6
BRANCH   5  18
HETATM   18  C   UNK N   1      35.759  13.373  16.152  0.00  0.00     0.061 C 
HETATM   19  C   UNK N   1      35.378  12.269  16.846  0.00  0.00     0.080 A 
HETATM   20  S   UNK N   1      35.011  10.646  16.112  0.00  0.00    -0.024 SA
HETATM   21  C   UNK N   1      35.256  12.207  18.293  0.00  0.00     0.266 A 
HETATM   22  C   UNK N   1      34.846  10.061  17.798  0.00  0.00     0.291 A 
HETATM   23  N   UNK N   1      34.981  10.985  18.773  0.00  0.00    -0.283 N 
HETATM   24  O   UNK N   1      34.636   8.887  18.057  0.00  0.00    -0.260 OA
HETATM   25  H   UNK N   1      34.890  10.784  19.733  0.00  0.00     0.172 HD
HETATM   26  O   UNK N   1      35.441  13.163  19.037  0.00  0.00    -0.267 OA
ENDBRANCH   5  18
TORSDOF 4
ENDMDL
MODEL 6
REMARK VINA RESULT:      -6.9      5.933     12.295
REMARK  4 active torsions:
REMARK  status: ('A' for Active; 'I' for Inactive)
REMARK    1  A    between atoms: S_2  and  N_4 
REMARK    2  A    between atoms: S_2  and  C_5 
REMARK    3  A    between atoms: C_8  and  C_11 
REMARK    4  A    between atoms: C_15  and  C_16 
ROOT
HETATM    1  C   UNK N   1      34.192  16.529   9.115  0.00  0.00     0.086 A 
HETATM    2  O   UNK N   1      33.095  16.303   8.467  0.00  0.00    -0.310 OA
HETATM    3  C   UNK N   1      34.756  17.714   8.669  0.00  0.00     0.041 A 
HETATM    4  C   UNK N   1      33.875  18.187   7.682  0.00  0.00     0.040 A 
HETATM    5  C   UNK N   1      32.869  17.235   7.605  0.00  0.00     0.077 A 
ENDROOT
BRANCH   1   6
HETATM    6  C   UNK N   1      34.640  15.523  10.083  0.00  0.00    -0.002 A 
HETATM    7  C   UNK N   1      35.253  16.038  11.226  0.00  0.00     0.016 A 
HETATM    8  C   UNK N   1      35.639  15.223  12.260  0.00  0.00     0.026 A 
HETATM    9  C   UNK N   1      35.431  13.852  12.190  0.00  0.00     0.079 A 
HETATM   10  C   UNK N   1      34.819  13.294  11.045  0.00  0.00     0.026 A 
HETATM   11  C   UNK N   1      34.425  14.138   9.978  0.00  0.00     0.016 A 
BRANCH   9  12
HETATM   12  S   UNK N   1      35.884  12.920  13.655  0.00  0.00     0.256 S 
HETATM   13  O   UNK N   1      37.267  12.489  14.158  0.00  0.00    -0.201 OA
HETATM   14  O   UNK N   1      35.120  13.385  14.905  0.00  0.00    -0.201 OA
BRANCH  12  15
HETATM   15  N   UNK N   1      36.698  14.480  13.805  0.00  0.00    -0.324 N 
HETATM   16  H   UNK N   1      37.364  15.252  13.816  0.00  0.00     0.169 HD
HETATM   17  H   UNK N   1      35.887  15.013  14.120  0.00  0.00     0.169 HD
ENDBRANCH  12  15
ENDBRANCH   9  12
ENDBRANCH   1   6
BRANCH   5  18
HETATM   18  C   UNK N   1      31.665  17.186   6.749  0.00  0.00     0.061 C 
HETATM   19  C   UNK N   1      30.422  17.258   7.295  0.00  0.00     0.080 A 
HETATM   20  S   UNK N   1      30.061  17.290   9.077  0.00  0.00    -0.024 SA
HETATM   21  C   UNK N   1      29.192  17.375   6.528  0.00  0.00     0.266 A 
HETATM   22  C   UNK N   1      28.355  17.557   8.598  0.00  0.00     0.291 A 
HETATM   23  N   UNK N   1      28.091  17.552   7.274  0.00  0.00    -0.283 N 
HETATM   24  O   UNK N   1      27.475  17.748   9.422  0.00  0.00    -0.260 OA
HETATM   25  H   UNK N   1      27.189  17.666   6.896  0.00  0.00     0.172 HD
HETATM   26  O   UNK N   1      29.146  17.373   5.304  0.00  0.00    -0.267 OA
ENDBRANCH   5  18
TORSDOF 4
ENDMDL
MODEL 7
REMARK VINA RESULT:      -6.8      9.420     15.865
REMARK  4 active torsions:
REMARK  status: ('A' for Active; 'I' for Inactive)
REMARK    1  A    between atoms: S_2  and  N_4 
REMARK    2  A    between atoms: S_2  and  C_5 
REMARK    3  A    between atoms: C_8  and  C_11 
REMARK    4  A    between atoms: C_15  and  C_16 
ROOT
HETATM    1  C   UNK N   1      35.132  12.646  13.889  0.00  0.00     0.086 A 
HETATM    2  O   UNK N   1      35.365  13.851  13.479  0.00  0.00    -0.310 OA
HETATM    3  C   UNK N   1      34.899  11.823  12.798  0.00  0.00     0.041 A 
HETATM    4  C   UNK N   1      35.024  12.661  11.678  0.00  0.00     0.040 A 
HETATM    5  C   UNK N   1      35.299  13.920  12.192  0.00  0.00     0.077 A 
ENDROOT
BRANCH   1   6
HETATM    6  C   UNK N   1      35.089  12.407  15.335  0.00  0.00    -0.002 A 
HETATM    7  C   UNK N   1      35.355  11.093  15.722  0.00  0.00     0.016 A 
HETATM    8  C   UNK N   1      35.443  10.740  17.046  0.00  0.00     0.026 A 
HETATM    9  C   UNK N   1      35.261  11.692  18.040  0.00  0.00     0.079 A 
HETATM   10  C   UNK N   1      34.983  13.032  17.685  0.00  0.00     0.026 A 
HETATM   11  C   UNK N   1      34.890  13.391  16.319  0.00  0.00     0.016 A 
BRANCH   9  12
HETATM   12  S   UNK N   1      35.510  11.118  19.722  0.00  0.00     0.256 S 
HETATM   13  O   UNK N   1      34.481  10.794  20.813  0.00  0.00    -0.201 OA
HETATM   14  O   UNK N   1      36.566  10.006  19.811  0.00  0.00    -0.201 OA
BRANCH  12  15
HETATM   15  N   UNK N   1      34.542   9.873  18.926  0.00  0.00    -0.324 N 
HETATM   16  H   UNK N   1      33.818   9.216  18.638  0.00  0.00     0.169 HD
HETATM   17  H   UNK N   1      35.228   9.620  18.214  0.00  0.00     0.169 HD
ENDBRANCH  12  15
ENDBRANCH   9  12
ENDBRANCH   1   6
BRANCH   5  18
HETATM   18  C   UNK N   1      35.535  15.204  11.500  0.00  0.00     0.061 C 
HETATM   19  C   UNK N   1      34.690  15.633  10.527  0.00  0.00     0.080 A 
HETATM   20  S   UNK N   1      33.288  14.684   9.863  0.00  0.00    -0.024 SA
HETATM   21  C   UNK N   1      34.751  16.945   9.903  0.00  0.00     0.266 A 
HETATM   22  C   UNK N   1      32.892  16.161   8.929  0.00  0.00     0.291 A 
HETATM   23  N   UNK N   1      33.746  17.200   9.052  0.00  0.00    -0.283 N 
HETATM   24  O   UNK N   1      31.897  16.234   8.226  0.00  0.00    -0.260 OA
HETATM   25  H   UNK N   1      33.642  18.052   8.570  0.00  0.00     0.172 HD
HETATM   26  O   UNK N   1      35.603  17.787  10.161  0.00  0.00    -0.267 OA
ENDBRANCH   5  18
TORSDOF 4
ENDMDL
MODEL 8
REMARK VINA RESULT:      -6.8      4.224     10.607
REMARK  4 active torsions:
REMARK  status: ('A' for Active; 'I' for Inactive)
REMARK    1  A    between atoms: S_2  and  N_4 
REMARK    2  A    between atoms: S_2  and  C_5 
REMARK    3  A    between atoms: C_8  and  C_11 
REMARK    4  A    between atoms: C_15  and  C_16 
ROOT
HETATM    1  C   UNK N   1      32.394  17.033   5.383  0.00  0.00     0.086 A 
HETATM    2  O   UNK N   1      31.178  16.612   5.249  0.00  0.00    -0.310 OA
HETATM    3  C   UNK N   1      32.835  17.562   4.180  0.00  0.00     0.041 A 
HETATM    4  C   UNK N   1      31.748  17.423   3.302  0.00  0.00     0.040 A 
HETATM    5  C   UNK N   1      30.755  16.803   4.045  0.00  0.00     0.077 A 
ENDROOT
BRANCH   1   6
HETATM    6  C   UNK N   1      33.057  16.821   6.673  0.00  0.00    -0.002 A 
HETATM    7  C   UNK N   1      33.298  15.485   6.998  0.00  0.00     0.016 A 
HETATM    8  C   UNK N   1      33.993  15.137   8.129  0.00  0.00     0.026 A 
HETATM    9  C   UNK N   1      34.474  16.117   8.987  0.00  0.00     0.079 A 
HETATM   10  C   UNK N   1      34.244  17.480   8.694  0.00  0.00     0.026 A 
HETATM   11  C   UNK N   1      33.522  17.835   7.528  0.00  0.00     0.016 A 
BRANCH   9  12
HETATM   12  S   UNK N   1      35.459  15.528  10.368  0.00  0.00     0.256 S 
HETATM   13  O   UNK N   1      36.776  16.069  10.937  0.00  0.00    -0.201 OA
HETATM   14  O   UNK N   1      34.599  15.172  11.591  0.00  0.00    -0.201 OA
BRANCH  12  15
HETATM   15  N   UNK N   1      35.006  17.187  10.771  0.00  0.00    -0.324 N 
HETATM   16  H   UNK N   1      34.545  18.035  11.099  0.00  0.00     0.169 HD
HETATM   17  H   UNK N   1      35.831  17.640  10.378  0.00  0.00     0.169 HD
ENDBRANCH  12  15
ENDBRANCH   9  12
ENDBRANCH   1   6
BRANCH   5  18
HETATM   18  C   UNK N   1      29.386  16.400   3.662  0.00  0.00     0.061 C 
HETATM   19  C   UNK N   1      28.321  17.190   3.958  0.00  0.00     0.080 A 
HETATM   20  S   UNK N   1      28.392  18.720   4.938  0.00  0.00    -0.024 SA
HETATM   21  C   UNK N   1      26.965  16.955   3.487  0.00  0.00     0.266 A 
HETATM   22  C   UNK N   1      26.661  18.918   4.523  0.00  0.00     0.291 A 
HETATM   23  N   UNK N   1      26.095  17.926   3.802  0.00  0.00    -0.283 N 
HETATM   24  O   UNK N   1      26.024  19.903   4.860  0.00  0.00    -0.260 OA
HETATM   25  H   UNK N   1      25.147  17.917   3.535  0.00  0.00     0.172 HD
HETATM   26  O   UNK N   1      26.634  15.990   2.810  0.00  0.00    -0.267 OA
ENDBRANCH   5  18
TORSDOF 4
ENDMDL
MODEL 9
REMARK VINA RESULT:      -6.7      4.021      5.470
REMARK  4 active torsions:
REMARK  status: ('A' for Active; 'I' for Inactive)
REMARK    1  A    between atoms: S_2  and  N_4 
REMARK    2  A    between atoms: S_2  and  C_5 
REMARK    3  A    between atoms: C_8  and  C_11 
REMARK    4  A    between atoms: C_15  and  C_16 
ROOT
HETATM    1  C   UNK N   1      31.143  17.289   5.697  0.00  0.00     0.086 A 
HETATM    2  O   UNK N   1      31.665  17.451   6.870  0.00  0.00    -0.310 OA
HETATM    3  C   UNK N   1      32.153  17.207   4.750  0.00  0.00     0.041 A 
HETATM    4  C   UNK N   1      33.346  17.330   5.479  0.00  0.00     0.040 A 
HETATM    5  C   UNK N   1      32.952  17.497   6.798  0.00  0.00     0.077 A 
ENDROOT
BRANCH   1   6
HETATM    6  C   UNK N   1      29.681  17.294   5.587  0.00  0.00    -0.002 A 
HETATM    7  C   UNK N   1      29.168  18.146   4.608  0.00  0.00     0.016 A 
HETATM    8  C   UNK N   1      27.826  18.187   4.326  0.00  0.00     0.026 A 
HETATM    9  C   UNK N   1      26.937  17.377   5.021  0.00  0.00     0.079 A 
HETATM   10  C   UNK N   1      27.420  16.506   6.024  0.00  0.00     0.026 A 
HETATM   11  C   UNK N   1      28.805  16.469   6.314  0.00  0.00     0.016 A 
BRANCH   9  12
HETATM   12  S   UNK N   1      25.228  17.452   4.478  0.00  0.00     0.256 S 
HETATM   13  O   UNK N   1      23.933  17.393   5.298  0.00  0.00    -0.201 OA
HETATM   14  O   UNK N   1      24.996  18.544   3.423  0.00  0.00    -0.201 OA
BRANCH  12  15
HETATM   15  N   UNK N   1      25.448  18.822   5.571  0.00  0.00    -0.324 N 
HETATM   16  H   UNK N   1      25.392  19.504   6.327  0.00  0.00     0.169 HD
HETATM   17  H   UNK N   1      26.204  19.272   5.055  0.00  0.00     0.169 HD
ENDBRANCH  12  15
ENDBRANCH   9  12
ENDBRANCH   1   6
BRANCH   5  18
HETATM   18  C   UNK N   1      33.762  17.675   8.022  0.00  0.00     0.061 C 
HETATM   19  C   UNK N   1      34.053  16.616   8.822  0.00  0.00     0.080 A 
HETATM   20  S   UNK N   1      33.415  14.928   8.598  0.00  0.00    -0.024 SA
HETATM   21  C   UNK N   1      34.966  16.664   9.952  0.00  0.00     0.266 A 
HETATM   22  C   UNK N   1      34.503  14.472   9.947  0.00  0.00     0.291 A 
HETATM   23  N   UNK N   1      35.197  15.475  10.528  0.00  0.00    -0.283 N 
HETATM   24  O   UNK N   1      34.625  13.316  10.317  0.00  0.00    -0.260 OA
HETATM   25  H   UNK N   1      35.807  15.347  11.290  0.00  0.00     0.172 HD
HETATM   26  O   UNK N   1      35.535  17.682  10.330  0.00  0.00    -0.267 OA
ENDBRANCH   5  18
TORSDOF 4
ENDMDL
