MODEL 1
REMARK VINA RESULT:      -5.7      0.000      0.000
REMARK  10 active torsions:
REMARK  status: ('A' for Active; 'I' for Inactive)
REMARK    1  A    between atoms: C_2  and  C_3 
REMARK       I    between atoms: N_8  and  C_2 
REMARK    2  A    between atoms: C_4  and  C_3 
REMARK    3  A    between atoms: C_5  and  C_4 
REMARK    4  A    between atoms: C_5  and  C_6 
REMARK    5  A    between atoms: C_9  and  N_8 
REMARK    6  A    between atoms: C_10  and  C_9 
REMARK    7  A    between atoms: C_13  and  C_9 
REMARK    8  A    between atoms: C_10  and  O_12 
REMARK    9  A    between atoms: C_14  and  C_13 
REMARK   10  A    between atoms: O_15  and  C_14 
ROOT
HETATM    1  O   UNK N   1      23.175  21.661   2.993  0.00  0.00    -0.274 OA
HETATM    2  C   UNK N   1      23.138  20.438   3.024  0.00  0.00     0.218 C 
HETATM    3  N   UNK N   1      21.976  19.774   2.795  0.00  0.00    -0.347 N 
HETATM    4  H   UNK N   1      21.984  18.791   2.852  0.00  0.00     0.163 HD
ENDROOT
BRANCH   3   5
HETATM    5  C   UNK N   1      20.722  20.431   2.471  0.00  0.00     0.184 C 
BRANCH   5   6
HETATM    6  C   UNK N   1      20.699  20.905   1.028  0.00  0.00     0.163 C 
HETATM    7  O   UNK N   1      20.893  20.124   0.110  0.00  0.00    -0.648 OA
BRANCH   6   8
HETATM    8  O   UNK N   1      20.467  22.203   0.749  0.00  0.00    -0.775 OA
HETATM    9  H   UNK N   1      21.035  22.705   0.198  0.00  0.00     0.167 HD
ENDBRANCH   6   8
ENDBRANCH   5   6
BRANCH   5  10
HETATM   10  C   UNK N   1      19.593  19.432   2.726  0.00  0.00     0.062 C 
BRANCH  10  11
HETATM   11  C   UNK N   1      19.999  18.002   2.403  0.00  0.00     0.166 C 
BRANCH  11  12
HETATM   12  O   UNK N   1      19.341  17.579   1.250  0.00  0.00    -0.401 OA
HETATM   13  H   UNK N   1      19.771  17.044   0.566  0.00  0.00     0.209 HD
ENDBRANCH  11  12
ENDBRANCH  10  11
ENDBRANCH   5  10
ENDBRANCH   3   5
BRANCH   2  14
HETATM   14  C   UNK N   1      24.395  19.667   3.266  0.00  0.00     0.103 C 
BRANCH  14  15
HETATM   15  C   UNK N   1      25.615  20.468   2.842  0.00  0.00     0.009 C 
BRANCH  15  16
HETATM   16  C   UNK N   1      26.780  20.183   3.776  0.00  0.00     0.000 C 
BRANCH  16  17
HETATM   17  C   UNK N   1      26.330  20.287   5.223  0.00  0.00    -0.005 C 
HETATM   18  C   UNK N   1      27.100  21.388   5.921  0.00  0.00     0.005 C 
ENDBRANCH  16  17
ENDBRANCH  15  16
ENDBRANCH  14  15
ENDBRANCH   2  14
TORSDOF 10
ENDMDL
MODEL 2
REMARK VINA RESULT:      -5.3      9.135     12.456
REMARK  10 active torsions:
REMARK  status: ('A' for Active; 'I' for Inactive)
REMARK    1  A    between atoms: C_2  and  C_3 
REMARK       I    between atoms: N_8  and  C_2 
REMARK    2  A    between atoms: C_4  and  C_3 
REMARK    3  A    between atoms: C_5  and  C_4 
REMARK    4  A    between atoms: C_5  and  C_6 
REMARK    5  A    between atoms: C_9  and  N_8 
REMARK    6  A    between atoms: C_10  and  C_9 
REMARK    7  A    between atoms: C_13  and  C_9 
REMARK    8  A    between atoms: C_10  and  O_12 
REMARK    9  A    between atoms: C_14  and  C_13 
REMARK   10  A    between atoms: O_15  and  C_14 
ROOT
HETATM    1  O   UNK N   1      31.199  16.570   7.392  0.00  0.00    -0.274 OA
HETATM    2  C   UNK N   1      31.229  17.211   8.434  0.00  0.00     0.218 C 
HETATM    3  N   UNK N   1      32.405  17.441   9.072  0.00  0.00    -0.347 N 
HETATM    4  H   UNK N   1      32.382  17.941   9.921  0.00  0.00     0.163 HD
ENDROOT
BRANCH   3   5
HETATM    5  C   UNK N   1      33.694  16.993   8.575  0.00  0.00     0.184 C 
BRANCH   5   6
HETATM    6  C   UNK N   1      34.393  18.083   7.780  0.00  0.00     0.163 C 
HETATM    7  O   UNK N   1      34.383  18.070   6.559  0.00  0.00    -0.648 OA
BRANCH   6   8
HETATM    8  O   UNK N   1      35.039  19.076   8.422  0.00  0.00    -0.775 OA
HETATM    9  H   UNK N   1      35.956  19.037   8.610  0.00  0.00     0.167 HD
ENDBRANCH   6   8
ENDBRANCH   5   6
BRANCH   5  10
HETATM   10  C   UNK N   1      34.540  16.581   9.779  0.00  0.00     0.062 C 
BRANCH  10  11
HETATM   11  C   UNK N   1      34.253  15.157  10.231  0.00  0.00     0.166 C 
BRANCH  11  12
HETATM   12  O   UNK N   1      33.090  15.136  10.999  0.00  0.00    -0.401 OA
HETATM   13  H   UNK N   1      32.222  14.910  10.632  0.00  0.00     0.209 HD
ENDBRANCH  11  12
ENDBRANCH  10  11
ENDBRANCH   5  10
ENDBRANCH   3   5
BRANCH   2  14
HETATM   14  C   UNK N   1      29.964  17.787   8.983  0.00  0.00     0.103 C 
BRANCH  14  15
HETATM   15  C   UNK N   1      28.837  17.691   7.968  0.00  0.00     0.009 C 
BRANCH  15  16
HETATM   16  C   UNK N   1      28.274  19.072   7.677  0.00  0.00     0.000 C 
BRANCH  16  17
HETATM   17  C   UNK N   1      27.847  19.169   6.223  0.00  0.00    -0.005 C 
HETATM   18  C   UNK N   1      28.682  18.229   5.380  0.00  0.00     0.005 C 
ENDBRANCH  16  17
ENDBRANCH  15  16
ENDBRANCH  14  15
ENDBRANCH   2  14
TORSDOF 10
ENDMDL
MODEL 3
REMARK VINA RESULT:      -5.2     16.631     18.970
REMARK  10 active torsions:
REMARK  status: ('A' for Active; 'I' for Inactive)
REMARK    1  A    between atoms: C_2  and  C_3 
REMARK       I    between atoms: N_8  and  C_2 
REMARK    2  A    between atoms: C_4  and  C_3 
REMARK    3  A    between atoms: C_5  and  C_4 
REMARK    4  A    between atoms: C_5  and  C_6 
REMARK    5  A    between atoms: C_9  and  N_8 
REMARK    6  A    between atoms: C_10  and  C_9 
REMARK    7  A    between atoms: C_13  and  C_9 
REMARK    8  A    between atoms: C_10  and  O_12 
REMARK    9  A    between atoms: C_14  and  C_13 
REMARK   10  A    between atoms: O_15  and  C_14 
ROOT
HETATM    1  O   UNK N   1      34.541  13.102  14.021  0.00  0.00    -0.274 OA
HETATM    2  C   UNK N   1      35.706  13.465  14.122  0.00  0.00     0.218 C 
HETATM    3  N   UNK N   1      36.361  13.996  13.058  0.00  0.00    -0.347 N 
HETATM    4  H   UNK N   1      37.304  14.253  13.175  0.00  0.00     0.163 HD
ENDROOT
BRANCH   3   5
HETATM    5  C   UNK N   1      35.749  14.207  11.758  0.00  0.00     0.184 C 
BRANCH   5   6
HETATM    6  C   UNK N   1      35.983  15.622  11.256  0.00  0.00     0.163 C 
HETATM    7  O   UNK N   1      35.080  16.444  11.261  0.00  0.00    -0.648 OA
BRANCH   6   8
HETATM    8  O   UNK N   1      37.196  15.980  10.791  0.00  0.00    -0.775 OA
HETATM    9  H   UNK N   1      37.908  16.189  11.362  0.00  0.00     0.167 HD
ENDBRANCH   6   8
ENDBRANCH   5   6
BRANCH   5  10
HETATM   10  C   UNK N   1      36.350  13.188  10.790  0.00  0.00     0.062 C 
BRANCH  10  11
HETATM   11  C   UNK N   1      37.652  12.594  11.306  0.00  0.00     0.166 C 
BRANCH  11  12
HETATM   12  O   UNK N   1      38.716  13.421  10.950  0.00  0.00    -0.401 OA
HETATM   13  H   UNK N   1      39.538  13.469  11.463  0.00  0.00     0.209 HD
ENDBRANCH  11  12
ENDBRANCH  10  11
ENDBRANCH   5  10
ENDBRANCH   3   5
BRANCH   2  14
HETATM   14  C   UNK N   1      36.398  13.367  15.443  0.00  0.00     0.103 C 
BRANCH  14  15
HETATM   15  C   UNK N   1      35.545  12.612  16.449  0.00  0.00     0.009 C 
BRANCH  15  16
HETATM   16  C   UNK N   1      35.030  13.562  17.518  0.00  0.00     0.000 C 
BRANCH  16  17
HETATM   17  C   UNK N   1      35.255  12.971  18.899  0.00  0.00    -0.005 C 
HETATM   18  C   UNK N   1      35.385  11.466  18.796  0.00  0.00     0.005 C 
ENDBRANCH  16  17
ENDBRANCH  15  16
ENDBRANCH  14  15
ENDBRANCH   2  14
TORSDOF 10
ENDMDL
MODEL 4
REMARK VINA RESULT:      -5.1     12.342     14.939
REMARK  10 active torsions:
REMARK  status: ('A' for Active; 'I' for Inactive)
REMARK    1  A    between atoms: C_2  and  C_3 
REMARK       I    between atoms: N_8  and  C_2 
REMARK    2  A    between atoms: C_4  and  C_3 
REMARK    3  A    between atoms: C_5  and  C_4 
REMARK    4  A    between atoms: C_5  and  C_6 
REMARK    5  A    between atoms: C_9  and  N_8 
REMARK    6  A    between atoms: C_10  and  C_9 
REMARK    7  A    between atoms: C_13  and  C_9 
REMARK    8  A    between atoms: C_10  and  O_12 
REMARK    9  A    between atoms: C_14  and  C_13 
REMARK   10  A    between atoms: O_15  and  C_14 
ROOT
HETATM    1  O   UNK N   1      35.843  17.358  10.624  0.00  0.00    -0.274 OA
HETATM    2  C   UNK N   1      35.292  16.321  10.279  0.00  0.00     0.218 C 
HETATM    3  N   UNK N   1      34.182  16.352   9.499  0.00  0.00    -0.347 N 
HETATM    4  H   UNK N   1      33.756  15.495   9.263  0.00  0.00     0.163 HD
ENDROOT
BRANCH   3   5
HETATM    5  C   UNK N   1      33.587  17.575   8.991  0.00  0.00     0.184 C 
BRANCH   5   6
HETATM    6  C   UNK N   1      34.513  18.281   8.015  0.00  0.00     0.163 C 
HETATM    7  O   UNK N   1      34.537  17.965   6.836  0.00  0.00    -0.648 OA
BRANCH   6   8
HETATM    8  O   UNK N   1      35.326  19.265   8.449  0.00  0.00    -0.775 OA
HETATM    9  H   UNK N   1      36.076  19.545   7.963  0.00  0.00     0.167 HD
ENDBRANCH   6   8
ENDBRANCH   5   6
BRANCH   5  10
HETATM   10  C   UNK N   1      32.271  17.205   8.308  0.00  0.00     0.062 C 
BRANCH  10  11
HETATM   11  C   UNK N   1      31.856  15.767   8.587  0.00  0.00     0.166 C 
BRANCH  11  12
HETATM   12  O   UNK N   1      31.477  15.642   9.923  0.00  0.00    -0.401 OA
HETATM   13  H   UNK N   1      30.586  15.859  10.238  0.00  0.00     0.209 HD
ENDBRANCH  11  12
ENDBRANCH  10  11
ENDBRANCH   5  10
ENDBRANCH   3   5
BRANCH   2  14
HETATM   14  C   UNK N   1      35.877  15.006  10.682  0.00  0.00     0.103 C 
BRANCH  14  15
HETATM   15  C   UNK N   1      35.205  14.472  11.936  0.00  0.00     0.009 C 
BRANCH  15  16
HETATM   16  C   UNK N   1      36.114  14.661  13.139  0.00  0.00     0.000 C 
BRANCH  16  17
HETATM   17  C   UNK N   1      36.586  13.314  13.658  0.00  0.00    -0.005 C 
HETATM   18  C   UNK N   1      36.822  13.394  15.151  0.00  0.00     0.005 C 
ENDBRANCH  16  17
ENDBRANCH  15  16
ENDBRANCH  14  15
ENDBRANCH   2  14
TORSDOF 10
ENDMDL
MODEL 5
REMARK VINA RESULT:      -5.1      9.343     10.950
REMARK  10 active torsions:
REMARK  status: ('A' for Active; 'I' for Inactive)
REMARK    1  A    between atoms: C_2  and  C_3 
REMARK       I    between atoms: N_8  and  C_2 
REMARK    2  A    between atoms: C_4  and  C_3 
REMARK    3  A    between atoms: C_5  and  C_4 
REMARK    4  A    between atoms: C_5  and  C_6 
REMARK    5  A    between atoms: C_9  and  N_8 
REMARK    6  A    between atoms: C_10  and  C_9 
REMARK    7  A    between atoms: C_13  and  C_9 
REMARK    8  A    between atoms: C_10  and  O_12 
REMARK    9  A    between atoms: C_14  and  C_13 
REMARK   10  A    between atoms: O_15  and  C_14 
ROOT
HETATM    1  O   UNK N   1      21.031  12.698   8.342  0.00  0.00    -0.274 OA
HETATM    2  C   UNK N   1      21.229  13.499   9.247  0.00  0.00     0.218 C 
HETATM    3  N   UNK N   1      22.361  13.434   9.993  0.00  0.00    -0.347 N 
HETATM    4  H   UNK N   1      22.472  14.082  10.726  0.00  0.00     0.163 HD
ENDROOT
BRANCH   3   5
HETATM    5  C   UNK N   1      23.419  12.464   9.771  0.00  0.00     0.184 C 
BRANCH   5   6
HETATM    6  C   UNK N   1      24.781  13.133   9.694  0.00  0.00     0.163 C 
HETATM    7  O   UNK N   1      25.195  13.589   8.640  0.00  0.00    -0.648 OA
BRANCH   6   8
HETATM    8  O   UNK N   1      25.551  13.223  10.797  0.00  0.00    -0.775 OA
HETATM    9  H   UNK N   1      26.472  13.051  10.780  0.00  0.00     0.167 HD
ENDBRANCH   6   8
ENDBRANCH   5   6
BRANCH   5  10
HETATM   10  C   UNK N   1      23.379  11.459  10.922  0.00  0.00     0.062 C 
BRANCH  10  11
HETATM   11  C   UNK N   1      22.807  12.060  12.198  0.00  0.00     0.166 C 
BRANCH  11  12
HETATM   12  O   UNK N   1      23.841  12.321  13.096  0.00  0.00    -0.401 OA
HETATM   13  H   UNK N   1      24.705  12.659  12.817  0.00  0.00     0.209 HD
ENDBRANCH  11  12
ENDBRANCH  10  11
ENDBRANCH   5  10
ENDBRANCH   3   5
BRANCH   2  14
HETATM   14  C   UNK N   1      20.239  14.588   9.499  0.00  0.00     0.103 C 
BRANCH  14  15
HETATM   15  C   UNK N   1      20.608  15.848   8.734  0.00  0.00     0.009 C 
BRANCH  15  16
HETATM   16  C   UNK N   1      19.380  16.428   8.053  0.00  0.00     0.000 C 
BRANCH  16  17
HETATM   17  C   UNK N   1      18.608  17.307   9.022  0.00  0.00    -0.005 C 
HETATM   18  C   UNK N   1      19.457  18.493   9.425  0.00  0.00     0.005 C 
ENDBRANCH  16  17
ENDBRANCH  15  16
ENDBRANCH  14  15
ENDBRANCH   2  14
TORSDOF 10
ENDMDL
MODEL 6
REMARK VINA RESULT:      -4.8     15.788     18.500
REMARK  10 active torsions:
REMARK  status: ('A' for Active; 'I' for Inactive)
REMARK    1  A    between atoms: C_2  and  C_3 
REMARK       I    between atoms: N_8  and  C_2 
REMARK    2  A    between atoms: C_4  and  C_3 
REMARK    3  A    between atoms: C_5  and  C_4 
REMARK    4  A    between atoms: C_5  and  C_6 
REMARK    5  A    between atoms: C_9  and  N_8 
REMARK    6  A    between atoms: C_10  and  C_9 
REMARK    7  A    between atoms: C_13  and  C_9 
REMARK    8  A    between atoms: C_10  and  O_12 
REMARK    9  A    between atoms: C_14  and  C_13 
REMARK   10  A    between atoms: O_15  and  C_14 
ROOT
HETATM    1  O   UNK N   1      34.731  13.257  13.461  0.00  0.00    -0.274 OA
HETATM    2  C   UNK N   1      35.848  13.741  13.583  0.00  0.00     0.218 C 
HETATM    3  N   UNK N   1      36.488  14.283  12.515  0.00  0.00    -0.347 N 
HETATM    4  H   UNK N   1      37.396  14.641  12.651  0.00  0.00     0.163 HD
ENDROOT
BRANCH   3   5
HETATM    5  C   UNK N   1      35.911  14.365  11.185  0.00  0.00     0.184 C 
BRANCH   5   6
HETATM    6  C   UNK N   1      34.816  15.416  11.117  0.00  0.00     0.163 C 
HETATM    7  O   UNK N   1      35.091  16.596  10.973  0.00  0.00    -0.648 OA
BRANCH   6   8
HETATM    8  O   UNK N   1      33.524  15.049  11.222  0.00  0.00    -0.775 OA
HETATM    9  H   UNK N   1      33.072  15.038  12.043  0.00  0.00     0.167 HD
ENDBRANCH   6   8
ENDBRANCH   5   6
BRANCH   5  10
HETATM   10  C   UNK N   1      37.038  14.701  10.208  0.00  0.00     0.062 C 
BRANCH  10  11
HETATM   11  C   UNK N   1      37.916  13.497   9.898  0.00  0.00     0.166 C 
BRANCH  11  12
HETATM   12  O   UNK N   1      38.906  13.378  10.871  0.00  0.00    -0.401 OA
HETATM   13  H   UNK N   1      39.655  13.990  10.936  0.00  0.00     0.209 HD
ENDBRANCH  11  12
ENDBRANCH  10  11
ENDBRANCH   5  10
ENDBRANCH   3   5
BRANCH   2  14
HETATM   14  C   UNK N   1      36.493  13.780  14.930  0.00  0.00     0.103 C 
BRANCH  14  15
HETATM   15  C   UNK N   1      35.580  13.181  15.988  0.00  0.00     0.009 C 
BRANCH  15  16
HETATM   16  C   UNK N   1      36.005  11.756  16.301  0.00  0.00     0.000 C 
BRANCH  16  17
HETATM   17  C   UNK N   1      34.849  10.800  16.061  0.00  0.00    -0.005 C 
HETATM   18  C   UNK N   1      34.793   9.775  17.174  0.00  0.00     0.005 C 
ENDBRANCH  16  17
ENDBRANCH  15  16
ENDBRANCH  14  15
ENDBRANCH   2  14
TORSDOF 10
ENDMDL
MODEL 7
REMARK VINA RESULT:      -4.7     10.928     13.386
REMARK  10 active torsions:
REMARK  status: ('A' for Active; 'I' for Inactive)
REMARK    1  A    between atoms: C_2  and  C_3 
REMARK       I    between atoms: N_8  and  C_2 
REMARK    2  A    between atoms: C_4  and  C_3 
REMARK    3  A    between atoms: C_5  and  C_4 
REMARK    4  A    between atoms: C_5  and  C_6 
REMARK    5  A    between atoms: C_9  and  N_8 
REMARK    6  A    between atoms: C_10  and  C_9 
REMARK    7  A    between atoms: C_13  and  C_9 
REMARK    8  A    between atoms: C_10  and  O_12 
REMARK    9  A    between atoms: C_14  and  C_13 
REMARK   10  A    between atoms: O_15  and  C_14 
ROOT
HETATM    1  O   UNK N   1      34.425  17.059   6.111  0.00  0.00    -0.274 OA
HETATM    2  C   UNK N   1      33.412  16.812   6.752  0.00  0.00     0.218 C 
HETATM    3  N   UNK N   1      33.494  16.326   8.017  0.00  0.00    -0.347 N 
HETATM    4  H   UNK N   1      32.655  16.117   8.489  0.00  0.00     0.163 HD
ENDROOT
BRANCH   3   5
HETATM    5  C   UNK N   1      34.748  16.096   8.713  0.00  0.00     0.184 C 
BRANCH   5   6
HETATM    6  C   UNK N   1      35.053  17.216   9.693  0.00  0.00     0.163 C 
HETATM    7  O   UNK N   1      35.352  18.331   9.294  0.00  0.00    -0.648 OA
BRANCH   6   8
HETATM    8  O   UNK N   1      35.002  16.984  11.019  0.00  0.00    -0.775 OA
HETATM    9  H   UNK N   1      34.770  16.148  11.372  0.00  0.00     0.167 HD
ENDBRANCH   6   8
ENDBRANCH   5   6
BRANCH   5  10
HETATM   10  C   UNK N   1      34.636  14.759   9.445  0.00  0.00     0.062 C 
BRANCH  10  11
HETATM   11  C   UNK N   1      33.191  14.340   9.673  0.00  0.00     0.166 C 
BRANCH  11  12
HETATM   12  O   UNK N   1      32.699  14.965  10.818  0.00  0.00    -0.401 OA
HETATM   13  H   UNK N   1      32.556  14.493  11.653  0.00  0.00     0.209 HD
ENDBRANCH  11  12
ENDBRANCH  10  11
ENDBRANCH   5  10
ENDBRANCH   3   5
BRANCH   2  14
HETATM   14  C   UNK N   1      32.072  17.093   6.154  0.00  0.00     0.103 C 
BRANCH  14  15
HETATM   15  C   UNK N   1      30.958  16.544   7.030  0.00  0.00     0.009 C 
BRANCH  15  16
HETATM   16  C   UNK N   1      30.100  17.680   7.561  0.00  0.00     0.000 C 
BRANCH  16  17
HETATM   17  C   UNK N   1      29.681  17.396   8.993  0.00  0.00    -0.005 C 
HETATM   18  C   UNK N   1      28.245  17.828   9.202  0.00  0.00     0.005 C 
ENDBRANCH  16  17
ENDBRANCH  15  16
ENDBRANCH  14  15
ENDBRANCH   2  14
TORSDOF 10
ENDMDL
MODEL 8
REMARK VINA RESULT:      -4.7     15.655     18.298
REMARK  10 active torsions:
REMARK  status: ('A' for Active; 'I' for Inactive)
REMARK    1  A    between atoms: C_2  and  C_3 
REMARK       I    between atoms: N_8  and  C_2 
REMARK    2  A    between atoms: C_4  and  C_3 
REMARK    3  A    between atoms: C_5  and  C_4 
REMARK    4  A    between atoms: C_5  and  C_6 
REMARK    5  A    between atoms: C_9  and  N_8 
REMARK    6  A    between atoms: C_10  and  C_9 
REMARK    7  A    between atoms: C_13  and  C_9 
REMARK    8  A    between atoms: C_10  and  O_12 
REMARK    9  A    between atoms: C_14  and  C_13 
REMARK   10  A    between atoms: O_15  and  C_14 
ROOT
HETATM    1  O   UNK N   1      35.474  10.853  11.629  0.00  0.00    -0.274 OA
HETATM    2  C   UNK N   1      34.716  11.391  12.426  0.00  0.00     0.218 C 
HETATM    3  N   UNK N   1      34.594  12.742  12.460  0.00  0.00    -0.347 N 
HETATM    4  H   UNK N   1      33.991  13.137  13.133  0.00  0.00     0.163 HD
ENDROOT
BRANCH   3   5
HETATM    5  C   UNK N   1      35.300  13.640  11.563  0.00  0.00     0.184 C 
BRANCH   5   6
HETATM    6  C   UNK N   1      34.487  14.891  11.274  0.00  0.00     0.163 C 
HETATM    7  O   UNK N   1      35.032  15.977  11.160  0.00  0.00    -0.648 OA
BRANCH   6   8
HETATM    8  O   UNK N   1      33.148  14.810  11.146  0.00  0.00    -0.775 OA
HETATM    9  H   UNK N   1      32.588  14.611  11.870  0.00  0.00     0.167 HD
ENDBRANCH   6   8
ENDBRANCH   5   6
BRANCH   5  10
HETATM   10  C   UNK N   1      36.631  14.005  12.220  0.00  0.00     0.062 C 
BRANCH  10  11
HETATM   11  C   UNK N   1      36.521  14.111  13.734  0.00  0.00     0.166 C 
BRANCH  11  12
HETATM   12  O   UNK N   1      37.248  13.080  14.328  0.00  0.00    -0.401 OA
HETATM   13  H   UNK N   1      37.726  12.412  13.815  0.00  0.00     0.209 HD
ENDBRANCH  11  12
ENDBRANCH  10  11
ENDBRANCH   5  10
ENDBRANCH   3   5
BRANCH   2  14
HETATM   14  C   UNK N   1      33.883  10.549  13.336  0.00  0.00     0.103 C 
BRANCH  14  15
HETATM   15  C   UNK N   1      33.810  11.158  14.727  0.00  0.00     0.009 C 
BRANCH  15  16
HETATM   16  C   UNK N   1      34.864  10.535  15.628  0.00  0.00     0.000 C 
BRANCH  16  17
HETATM   17  C   UNK N   1      35.188  11.469  16.780  0.00  0.00    -0.005 C 
HETATM   18  C   UNK N   1      34.611  12.842  16.505  0.00  0.00     0.005 C 
ENDBRANCH  16  17
ENDBRANCH  15  16
ENDBRANCH  14  15
ENDBRANCH   2  14
TORSDOF 10
ENDMDL
MODEL 9
REMARK VINA RESULT:      -4.5     12.298     15.173
REMARK  10 active torsions:
REMARK  status: ('A' for Active; 'I' for Inactive)
REMARK    1  A    between atoms: C_2  and  C_3 
REMARK       I    between atoms: N_8  and  C_2 
REMARK    2  A    between atoms: C_4  and  C_3 
REMARK    3  A    between atoms: C_5  and  C_4 
REMARK    4  A    between atoms: C_5  and  C_6 
REMARK    5  A    between atoms: C_9  and  N_8 
REMARK    6  A    between atoms: C_10  and  C_9 
REMARK    7  A    between atoms: C_13  and  C_9 
REMARK    8  A    between atoms: C_10  and  O_12 
REMARK    9  A    between atoms: C_14  and  C_13 
REMARK   10  A    between atoms: O_15  and  C_14 
ROOT
HETATM    1  O   UNK N   1      33.938  14.215   8.060  0.00  0.00    -0.274 OA
HETATM    2  C   UNK N   1      33.230  14.907   8.780  0.00  0.00     0.218 C 
HETATM    3  N   UNK N   1      33.669  15.316   9.997  0.00  0.00    -0.347 N 
HETATM    4  H   UNK N   1      33.059  15.852  10.555  0.00  0.00     0.163 HD
ENDROOT
BRANCH   3   5
HETATM    5  C   UNK N   1      34.988  15.010  10.524  0.00  0.00     0.184 C 
BRANCH   5   6
HETATM    6  C   UNK N   1      35.870  16.246  10.569  0.00  0.00     0.163 C 
HETATM    7  O   UNK N   1      35.402  17.356  10.371  0.00  0.00    -0.648 OA
BRANCH   6   8
HETATM    8  O   UNK N   1      37.187  16.124  10.825  0.00  0.00    -0.775 OA
HETATM    9  H   UNK N   1      37.815  16.754  10.529  0.00  0.00     0.167 HD
ENDBRANCH   6   8
ENDBRANCH   5   6
BRANCH   5  10
HETATM   10  C   UNK N   1      34.806  14.429  11.926  0.00  0.00     0.062 C 
BRANCH  10  11
HETATM   11  C   UNK N   1      35.779  13.296  12.216  0.00  0.00     0.166 C 
BRANCH  11  12
HETATM   12  O   UNK N   1      36.973  13.820  12.709  0.00  0.00    -0.401 OA
HETATM   13  H   UNK N   1      37.842  13.472  12.459  0.00  0.00     0.209 HD
ENDBRANCH  11  12
ENDBRANCH  10  11
ENDBRANCH   5  10
ENDBRANCH   3   5
BRANCH   2  14
HETATM   14  C   UNK N   1      31.887  15.346   8.292  0.00  0.00     0.103 C 
BRANCH  14  15
HETATM   15  C   UNK N   1      31.657  16.820   8.585  0.00  0.00     0.009 C 
BRANCH  15  16
HETATM   16  C   UNK N   1      32.428  17.677   7.595  0.00  0.00     0.000 C 
BRANCH  16  17
HETATM   17  C   UNK N   1      32.112  17.249   6.172  0.00  0.00    -0.005 C 
HETATM   18  C   UNK N   1      33.365  17.322   5.325  0.00  0.00     0.005 C 
ENDBRANCH  16  17
ENDBRANCH  15  16
ENDBRANCH  14  15
ENDBRANCH   2  14
TORSDOF 10
ENDMDL
