REMARK  4 active torsions:
REMARK  status: ('A' for Active; 'I' for Inactive)
REMARK    1  A    between atoms: S_2  and  N_4 
REMARK    2  A    between atoms: S_2  and  C_6 
REMARK    3  A    between atoms: C_9  and  C_12 
REMARK    4  A    between atoms: C_16  and  C_17 
ROOT
HETATM    1  C   UNK N   1      -1.872  -1.230   0.177  0.00  0.00     0.086 A 
HETATM    2  O   UNK N   1      -0.796  -1.927   0.346  0.00  0.00    -0.310 OA
HETATM    3  C   UNK N   1      -2.906  -2.066  -0.216  0.00  0.00     0.041 A 
HETATM    4  C   UNK N   1      -2.336  -3.349  -0.268  0.00  0.00     0.040 A 
HETATM    5  C   UNK N   1      -1.004  -3.168   0.074  0.00  0.00     0.077 A 
ENDROOT
BRANCH   1   6
HETATM    6  C   UNK N   1      -1.741   0.229   0.217  0.00  0.00    -0.002 A 
HETATM    7  C   UNK N   1      -0.490   0.693   0.627  0.00  0.00     0.016 A 
HETATM    8  C   UNK N   1      -0.149   2.017   0.518  0.00  0.00     0.026 A 
HETATM    9  C   UNK N   1      -1.056   2.945   0.004  0.00  0.00     0.079 A 
HETATM   10  C   UNK N   1      -2.333   2.507  -0.407  0.00  0.00     0.026 A 
HETATM   11  C   UNK N   1      -2.679   1.138  -0.299  0.00  0.00     0.016 A 
BRANCH   9  12
HETATM   12  S   UNK N   1      -0.455   4.633  -0.244  0.00  0.00     0.258 S 
HETATM   13  O   UNK N   1      -0.548   4.500   1.284  0.00  0.00    -0.201 OA
HETATM   14  O   UNK N   1       1.074   4.582  -0.099  0.00  0.00    -0.201 OA
BRANCH  12  15
HETATM   15  N   UNK N   1      -0.853   6.275   0.267  0.00  0.00    -0.320 N 
HETATM   16  C   UNK N   1      -1.524   6.939  -0.830  0.00  0.00     0.159 C 
HETATM   17  H   UNK N   1      -0.645   6.685   1.177  0.00  0.00     0.171 HD
ENDBRANCH  12  15
ENDBRANCH   9  12
ENDBRANCH   1   6
BRANCH   5  18
HETATM   18  C   UNK N   1       0.132  -4.112   0.006  0.00  0.00     0.061 C 
HETATM   19  C   UNK N   1       1.404  -3.638  -0.120  0.00  0.00     0.079 A 
HETATM   20  S   UNK N   1       1.843  -1.880  -0.328  0.00  0.00    -0.049 SA
HETATM   21  C   UNK N   1       2.597  -4.486  -0.137  0.00  0.00     0.264 A 
HETATM   22  C   UNK N   1       3.548  -2.416  -0.347  0.00  0.00     0.145 A 
HETATM   23  N   UNK N   1       4.516  -1.583  -0.250  0.00  0.00    -0.380 N 
HETATM   24  N   UNK N   1       3.751  -3.804  -0.243  0.00  0.00    -0.303 N 
HETATM   25  H   UNK N   1       5.442  -1.906  -0.175  0.00  0.00     0.158 HD
ATOM     26  HN  UNK N   1       4.325  -0.580  -0.250  1.00  0.00     0.158 HD
HETATM   27  H   UNK N   1       4.640  -4.229  -0.248  0.00  0.00     0.171 HD
HETATM   28  O   UNK N   1       2.572  -5.696  -0.038  0.00  0.00    -0.267 OA
ENDBRANCH   5  18
TORSDOF 4
