MODEL 1
REMARK VINA RESULT:      -7.7      0.000      0.000
REMARK  4 active torsions:
REMARK  status: ('A' for Active; 'I' for Inactive)
REMARK    1  A    between atoms: S_2  and  N_4 
REMARK    2  A    between atoms: S_2  and  C_6 
REMARK    3  A    between atoms: C_9  and  C_12 
REMARK    4  A    between atoms: C_16  and  C_17 
ROOT
HETATM    1  C   UNK N   1      26.386  19.382   4.731  0.00  0.00     0.086 A 
HETATM    2  O   UNK N   1      26.637  19.096   5.967  0.00  0.00    -0.310 OA
HETATM    3  C   UNK N   1      27.571  19.685   4.078  0.00  0.00     0.041 A 
HETATM    4  C   UNK N   1      28.570  19.553   5.057  0.00  0.00     0.040 A 
HETATM    5  C   UNK N   1      27.895  19.206   6.219  0.00  0.00     0.077 A 
ENDROOT
BRANCH   1   6
HETATM    6  C   UNK N   1      24.980  19.533   4.348  0.00  0.00    -0.002 A 
HETATM    7  C   UNK N   1      24.737  20.515   3.387  0.00  0.00     0.016 A 
HETATM    8  C   UNK N   1      23.513  20.633   2.780  0.00  0.00     0.026 A 
HETATM    9  C   UNK N   1      22.465  19.777   3.121  0.00  0.00     0.079 A 
HETATM   10  C   UNK N   1      22.677  18.782   4.099  0.00  0.00     0.026 A 
HETATM   11  C   UNK N   1      23.944  18.659   4.719  0.00  0.00     0.016 A 
BRANCH   9  12
HETATM   12  S   UNK N   1      20.943  19.913   2.153  0.00  0.00     0.258 S 
HETATM   13  O   UNK N   1      20.555  20.486   3.525  0.00  0.00    -0.201 OA
HETATM   14  O   UNK N   1      20.897  21.348   1.604  0.00  0.00    -0.201 OA
BRANCH  12  15
HETATM   15  N   UNK N   1      19.237  19.479   2.288  0.00  0.00    -0.320 N 
HETATM   16  C   UNK N   1      19.155  18.096   2.705  0.00  0.00     0.159 C 
HETATM   17  H   UNK N   1      18.447  20.096   2.104  0.00  0.00     0.171 HD
ENDBRANCH  12  15
ENDBRANCH   9  12
ENDBRANCH   1   6
BRANCH   5  18
HETATM   18  C   UNK N   1      28.382  19.121   7.612  0.00  0.00     0.061 C 
HETATM   19  C   UNK N   1      29.353  18.221   7.940  0.00  0.00     0.079 A 
HETATM   20  S   UNK N   1      30.059  16.990   6.795  0.00  0.00    -0.049 SA
HETATM   21  C   UNK N   1      29.941  18.100   9.274  0.00  0.00     0.264 A 
HETATM   22  C   UNK N   1      31.105  16.482   8.152  0.00  0.00     0.145 A 
HETATM   23  N   UNK N   1      32.107  15.704   7.974  0.00  0.00    -0.380 N 
HETATM   24  N   UNK N   1      30.902  17.164   9.365  0.00  0.00    -0.303 N 
HETATM   25  H   UNK N   1      32.720  15.507   8.718  0.00  0.00     0.158 HD
ATOM     26  HN  UNK N   1      32.270  15.287   7.057  1.00  0.00     0.158 HD
HETATM   27  H   UNK N   1      31.408  16.976  10.190  0.00  0.00     0.171 HD
HETATM   28  O   UNK N   1      29.625  18.791  10.222  0.00  0.00    -0.267 OA
ENDBRANCH   5  18
TORSDOF 4
ENDMDL
MODEL 2
REMARK VINA RESULT:      -7.6      6.246     12.907
REMARK  4 active torsions:
REMARK  status: ('A' for Active; 'I' for Inactive)
REMARK    1  A    between atoms: S_2  and  N_4 
REMARK    2  A    between atoms: S_2  and  C_6 
REMARK    3  A    between atoms: C_9  and  C_12 
REMARK    4  A    between atoms: C_16  and  C_17 
ROOT
HETATM    1  C   UNK N   1      34.237  16.650   9.191  0.00  0.00     0.086 A 
HETATM    2  O   UNK N   1      33.096  16.402   8.636  0.00  0.00    -0.310 OA
HETATM    3  C   UNK N   1      34.792  17.784   8.618  0.00  0.00     0.041 A 
HETATM    4  C   UNK N   1      33.860  18.196   7.651  0.00  0.00     0.040 A 
HETATM    5  C   UNK N   1      32.838  17.260   7.711  0.00  0.00     0.077 A 
ENDROOT
BRANCH   1   6
HETATM    6  C   UNK N   1      34.780  15.633  10.095  0.00  0.00    -0.002 A 
HETATM    7  C   UNK N   1      35.512  16.137  11.171  0.00  0.00     0.016 A 
HETATM    8  C   UNK N   1      35.904  15.330  12.208  0.00  0.00     0.026 A 
HETATM    9  C   UNK N   1      35.592  13.970  12.209  0.00  0.00     0.079 A 
HETATM   10  C   UNK N   1      34.863  13.429  11.128  0.00  0.00     0.026 A 
HETATM   11  C   UNK N   1      34.454  14.267  10.062  0.00  0.00     0.016 A 
BRANCH   9  12
HETATM   12  S   UNK N   1      36.017  13.028  13.693  0.00  0.00     0.258 S 
HETATM   13  O   UNK N   1      36.564  14.434  13.985  0.00  0.00    -0.201 OA
HETATM   14  O   UNK N   1      34.911  13.306  14.723  0.00  0.00    -0.201 OA
BRANCH  12  15
HETATM   15  N   UNK N   1      37.429  12.696  14.699  0.00  0.00    -0.320 N 
HETATM   16  C   UNK N   1      37.892  11.358  14.399  0.00  0.00     0.159 C 
HETATM   17  H   UNK N   1      37.845  13.336  15.375  0.00  0.00     0.171 HD
ENDBRANCH  12  15
ENDBRANCH   9  12
ENDBRANCH   1   6
BRANCH   5  18
HETATM   18  C   UNK N   1      31.683  17.054   6.811  0.00  0.00     0.061 C 
HETATM   19  C   UNK N   1      30.430  17.404   7.221  0.00  0.00     0.079 A 
HETATM   20  S   UNK N   1      30.017  18.029   8.884  0.00  0.00    -0.049 SA
HETATM   21  C   UNK N   1      29.234  17.295   6.385  0.00  0.00     0.264 A 
HETATM   22  C   UNK N   1      28.331  18.153   8.304  0.00  0.00     0.145 A 
HETATM   23  N   UNK N   1      27.436  18.783   8.969  0.00  0.00    -0.380 N 
HETATM   24  N   UNK N   1      28.108  17.722   6.984  0.00  0.00    -0.303 N 
HETATM   25  H   UNK N   1      26.537  18.913   8.590  0.00  0.00     0.158 HD
ATOM     26  HN  UNK N   1      27.656  19.152   9.895  1.00  0.00     0.158 HD
HETATM   27  H   UNK N   1      27.225  17.732   6.546  0.00  0.00     0.171 HD
HETATM   28  O   UNK N   1      29.238  16.884   5.242  0.00  0.00    -0.267 OA
ENDBRANCH   5  18
TORSDOF 4
ENDMDL
MODEL 3
REMARK VINA RESULT:      -7.5      5.215      8.989
REMARK  4 active torsions:
REMARK  status: ('A' for Active; 'I' for Inactive)
REMARK    1  A    between atoms: S_2  and  N_4 
REMARK    2  A    between atoms: S_2  and  C_6 
REMARK    3  A    between atoms: C_9  and  C_12 
REMARK    4  A    between atoms: C_16  and  C_17 
ROOT
HETATM    1  C   UNK N   1      24.520  16.166   5.331  0.00  0.00     0.086 A 
HETATM    2  O   UNK N   1      24.022  17.355   5.229  0.00  0.00    -0.310 OA
HETATM    3  C   UNK N   1      25.228  15.863   4.178  0.00  0.00     0.041 A 
HETATM    4  C   UNK N   1      25.102  17.001   3.364  0.00  0.00     0.040 A 
HETATM    5  C   UNK N   1      24.309  17.879   4.089  0.00  0.00     0.077 A 
ENDROOT
BRANCH   1   6
HETATM    6  C   UNK N   1      24.086  15.350   6.468  0.00  0.00    -0.002 A 
HETATM    7  C   UNK N   1      22.714  15.387   6.724  0.00  0.00     0.016 A 
HETATM    8  C   UNK N   1      22.131  14.523   7.615  0.00  0.00     0.026 A 
HETATM    9  C   UNK N   1      22.902  13.587   8.306  0.00  0.00     0.079 A 
HETATM   10  C   UNK N   1      24.293  13.534   8.077  0.00  0.00     0.026 A 
HETATM   11  C   UNK N   1      24.891  14.424   7.151  0.00  0.00     0.016 A 
BRANCH   9  12
HETATM   12  S   UNK N   1      22.017  12.393   9.338  0.00  0.00     0.258 S 
HETATM   13  O   UNK N   1      22.425  13.497  10.326  0.00  0.00    -0.201 OA
HETATM   14  O   UNK N   1      20.571  12.899   9.456  0.00  0.00    -0.201 OA
BRANCH  12  15
HETATM   15  N   UNK N   1      22.256  11.501  10.842  0.00  0.00    -0.320 N 
HETATM   16  C   UNK N   1      23.511  11.925  11.424  0.00  0.00     0.159 C 
HETATM   17  H   UNK N   1      21.619  10.807  11.233  0.00  0.00     0.171 HD
ENDBRANCH  12  15
ENDBRANCH   9  12
ENDBRANCH   1   6
BRANCH   5  18
HETATM   18  C   UNK N   1      23.677  19.151   3.677  0.00  0.00     0.061 C 
HETATM   19  C   UNK N   1      22.378  19.162   3.263  0.00  0.00     0.079 A 
HETATM   20  S   UNK N   1      21.338  17.678   3.060  0.00  0.00    -0.049 SA
HETATM   21  C   UNK N   1      21.647  20.375   2.892  0.00  0.00     0.264 A 
HETATM   22  C   UNK N   1      20.026  18.791   2.577  0.00  0.00     0.145 A 
HETATM   23  N   UNK N   1      18.812  18.397   2.477  0.00  0.00    -0.380 N 
HETATM   24  N   UNK N   1      20.368  20.155   2.540  0.00  0.00    -0.303 N 
HETATM   25  H   UNK N   1      18.094  19.044   2.295  0.00  0.00     0.158 HD
ATOM     26  HN  UNK N   1      18.589  17.406   2.588  1.00  0.00     0.158 HD
HETATM   27  H   UNK N   1      19.740  20.870   2.284  0.00  0.00     0.171 HD
HETATM   28  O   UNK N   1      22.124  21.491   2.919  0.00  0.00    -0.267 OA
ENDBRANCH   5  18
TORSDOF 4
ENDMDL
MODEL 4
REMARK VINA RESULT:      -7.3      9.469     13.634
REMARK  4 active torsions:
REMARK  status: ('A' for Active; 'I' for Inactive)
REMARK    1  A    between atoms: S_2  and  N_4 
REMARK    2  A    between atoms: S_2  and  C_6 
REMARK    3  A    between atoms: C_9  and  C_12 
REMARK    4  A    between atoms: C_16  and  C_17 
ROOT
HETATM    1  C   UNK N   1      35.708  13.661  12.743  0.00  0.00     0.086 A 
HETATM    2  O   UNK N   1      35.252  13.824  13.942  0.00  0.00    -0.310 OA
HETATM    3  C   UNK N   1      36.774  12.774  12.772  0.00  0.00     0.041 A 
HETATM    4  C   UNK N   1      36.914  12.419  14.124  0.00  0.00     0.040 A 
HETATM    5  C   UNK N   1      35.937  13.142  14.792  0.00  0.00     0.077 A 
ENDROOT
BRANCH   1   6
HETATM    6  C   UNK N   1      35.189  14.548  11.699  0.00  0.00    -0.002 A 
HETATM    7  C   UNK N   1      35.738  15.832  11.696  0.00  0.00     0.016 A 
HETATM    8  C   UNK N   1      35.509  16.704  10.663  0.00  0.00     0.026 A 
HETATM    9  C   UNK N   1      34.702  16.333   9.586  0.00  0.00     0.079 A 
HETATM   10  C   UNK N   1      34.123  15.047   9.567  0.00  0.00     0.026 A 
HETATM   11  C   UNK N   1      34.368  14.147  10.633  0.00  0.00     0.016 A 
BRANCH   9  12
HETATM   12  S   UNK N   1      34.591  17.495   8.203  0.00  0.00     0.258 S 
HETATM   13  O   UNK N   1      33.349  17.815   9.048  0.00  0.00    -0.201 OA
HETATM   14  O   UNK N   1      35.196  18.820   8.692  0.00  0.00    -0.201 OA
BRANCH  12  15
HETATM   15  N   UNK N   1      33.417  18.011   6.991  0.00  0.00    -0.320 N 
HETATM   16  C   UNK N   1      33.677  17.278   5.770  0.00  0.00     0.159 C 
HETATM   17  H   UNK N   1      32.683  18.706   7.126  0.00  0.00     0.171 HD
ENDBRANCH  12  15
ENDBRANCH   9  12
ENDBRANCH   1   6
BRANCH   5  18
HETATM   18  C   UNK N   1      35.720  13.333  16.242  0.00  0.00     0.061 C 
HETATM   19  C   UNK N   1      35.416  12.264  17.031  0.00  0.00     0.079 A 
HETATM   20  S   UNK N   1      35.136  10.568  16.422  0.00  0.00    -0.049 SA
HETATM   21  C   UNK N   1      35.240  12.339  18.483  0.00  0.00     0.264 A 
HETATM   22  C   UNK N   1      34.885  10.107  18.130  0.00  0.00     0.145 A 
HETATM   23  N   UNK N   1      34.841   8.881  18.497  0.00  0.00    -0.380 N 
HETATM   24  N   UNK N   1      34.970  11.157  19.063  0.00  0.00    -0.303 N 
HETATM   25  H   UNK N   1      34.790   8.650  19.452  0.00  0.00     0.158 HD
ATOM     26  HN  UNK N   1      34.860   8.140  17.795  1.00  0.00     0.158 HD
HETATM   27  H   UNK N   1      34.846  11.039  20.033  0.00  0.00     0.171 HD
HETATM   28  O   UNK N   1      35.351  13.362  19.128  0.00  0.00    -0.267 OA
ENDBRANCH   5  18
TORSDOF 4
ENDMDL
MODEL 5
REMARK VINA RESULT:      -7.2      3.547      5.328
REMARK  4 active torsions:
REMARK  status: ('A' for Active; 'I' for Inactive)
REMARK    1  A    between atoms: S_2  and  N_4 
REMARK    2  A    between atoms: S_2  and  C_6 
REMARK    3  A    between atoms: C_9  and  C_12 
REMARK    4  A    between atoms: C_16  and  C_17 
ROOT
HETATM    1  C   UNK N   1      31.257  17.242   5.818  0.00  0.00     0.086 A 
HETATM    2  O   UNK N   1      31.857  17.317   6.961  0.00  0.00    -0.310 OA
HETATM    3  C   UNK N   1      32.201  17.176   4.805  0.00  0.00     0.041 A 
HETATM    4  C   UNK N   1      33.442  17.220   5.462  0.00  0.00     0.040 A 
HETATM    5  C   UNK N   1      33.135  17.334   6.810  0.00  0.00     0.077 A 
ENDROOT
BRANCH   1   6
HETATM    6  C   UNK N   1      29.806  17.449   5.806  0.00  0.00    -0.002 A 
HETATM    7  C   UNK N   1      29.306  18.016   4.633  0.00  0.00     0.016 A 
HETATM    8  C   UNK N   1      27.958  18.080   4.389  0.00  0.00     0.026 A 
HETATM    9  C   UNK N   1      27.043  17.590   5.321  0.00  0.00     0.079 A 
HETATM   10  C   UNK N   1      27.519  17.023   6.523  0.00  0.00     0.026 A 
HETATM   11  C   UNK N   1      28.912  16.952   6.768  0.00  0.00     0.016 A 
BRANCH   9  12
HETATM   12  S   UNK N   1      25.300  17.579   4.837  0.00  0.00     0.258 S 
HETATM   13  O   UNK N   1      25.602  19.066   5.076  0.00  0.00    -0.201 OA
HETATM   14  O   UNK N   1      25.259  17.886   3.332  0.00  0.00    -0.201 OA
BRANCH  12  15
HETATM   15  N   UNK N   1      23.754  18.202   5.417  0.00  0.00    -0.320 N 
HETATM   16  C   UNK N   1      22.948  18.551   4.267  0.00  0.00     0.159 C 
HETATM   17  H   UNK N   1      23.478  18.302   6.393  0.00  0.00     0.171 HD
ENDBRANCH  12  15
ENDBRANCH   9  12
ENDBRANCH   1   6
BRANCH   5  18
HETATM   18  C   UNK N   1      34.015  17.616   7.965  0.00  0.00     0.061 C 
HETATM   19  C   UNK N   1      34.174  16.680   8.943  0.00  0.00     0.079 A 
HETATM   20  S   UNK N   1      33.284  15.090   9.015  0.00  0.00    -0.049 SA
HETATM   21  C   UNK N   1      35.065  16.840  10.093  0.00  0.00     0.264 A 
HETATM   22  C   UNK N   1      34.214  14.756  10.505  0.00  0.00     0.145 A 
HETATM   23  N   UNK N   1      34.240  13.591  11.035  0.00  0.00    -0.380 N 
HETATM   24  N   UNK N   1      35.086  15.779  10.919  0.00  0.00    -0.303 N 
HETATM   25  H   UNK N   1      34.826  13.409  11.803  0.00  0.00     0.158 HD
ATOM     26  HN  UNK N   1      33.649  12.848  10.658  1.00  0.00     0.158 HD
HETATM   27  H   UNK N   1      35.650  15.724  11.726  0.00  0.00     0.171 HD
HETATM   28  O   UNK N   1      35.753  17.821  10.289  0.00  0.00    -0.267 OA
ENDBRANCH   5  18
TORSDOF 4
ENDMDL
MODEL 6
REMARK VINA RESULT:      -7.2      7.404     13.129
REMARK  4 active torsions:
REMARK  status: ('A' for Active; 'I' for Inactive)
REMARK    1  A    between atoms: S_2  and  N_4 
REMARK    2  A    between atoms: S_2  and  C_6 
REMARK    3  A    between atoms: C_9  and  C_12 
REMARK    4  A    between atoms: C_16  and  C_17 
ROOT
HETATM    1  C   UNK N   1      34.501  16.445   8.715  0.00  0.00     0.086 A 
HETATM    2  O   UNK N   1      34.215  15.981   7.543  0.00  0.00    -0.310 OA
HETATM    3  C   UNK N   1      34.441  17.830   8.690  0.00  0.00     0.041 A 
HETATM    4  C   UNK N   1      34.088  18.155   7.370  0.00  0.00     0.040 A 
HETATM    5  C   UNK N   1      33.990  16.938   6.711  0.00  0.00     0.077 A 
ENDROOT
BRANCH   1   6
HETATM    6  C   UNK N   1      35.010  15.495   9.708  0.00  0.00    -0.002 A 
HETATM    7  C   UNK N   1      35.479  16.076  10.887  0.00  0.00     0.016 A 
HETATM    8  C   UNK N   1      35.791  15.314  11.984  0.00  0.00     0.026 A 
HETATM    9  C   UNK N   1      35.662  13.925  11.944  0.00  0.00     0.079 A 
HETATM   10  C   UNK N   1      35.203  13.308  10.761  0.00  0.00     0.026 A 
HETATM   11  C   UNK N   1      34.875  14.099   9.633  0.00  0.00     0.016 A 
BRANCH   9  12
HETATM   12  S   UNK N   1      35.949  13.027  13.488  0.00  0.00     0.258 S 
HETATM   13  O   UNK N   1      36.495  14.434  13.778  0.00  0.00    -0.201 OA
HETATM   14  O   UNK N   1      34.767  13.356  14.414  0.00  0.00    -0.201 OA
BRANCH  12  15
HETATM   15  N   UNK N   1      37.268  12.709  14.616  0.00  0.00    -0.320 N 
HETATM   16  C   UNK N   1      36.896  11.577  15.438  0.00  0.00     0.159 C 
HETATM   17  H   UNK N   1      38.141  13.232  14.679  0.00  0.00     0.171 HD
ENDBRANCH  12  15
ENDBRANCH   9  12
ENDBRANCH   1   6
BRANCH   5  18
HETATM   18  C   UNK N   1      33.840  16.647   5.269  0.00  0.00     0.061 C 
HETATM   19  C   UNK N   1      32.617  16.755   4.677  0.00  0.00     0.079 A 
HETATM   20  S   UNK N   1      31.066  17.139   5.556  0.00  0.00    -0.049 SA
HETATM   21  C   UNK N   1      32.376  16.546   3.248  0.00  0.00     0.264 A 
HETATM   22  C   UNK N   1      30.264  17.058   3.961  0.00  0.00     0.145 A 
HETATM   23  N   UNK N   1      29.064  17.472   3.790  0.00  0.00    -0.380 N 
HETATM   24  N   UNK N   1      31.098  16.732   2.876  0.00  0.00    -0.303 N 
HETATM   25  H   UNK N   1      28.673  17.499   2.888  0.00  0.00     0.158 HD
ATOM     26  HN  UNK N   1      28.512  17.776   4.593  1.00  0.00     0.158 HD
HETATM   27  H   UNK N   1      30.780  16.648   1.948  0.00  0.00     0.171 HD
HETATM   28  O   UNK N   1      33.243  16.257   2.449  0.00  0.00    -0.267 OA
ENDBRANCH   5  18
TORSDOF 4
ENDMDL
MODEL 7
REMARK VINA RESULT:      -7.1      4.740      7.874
REMARK  4 active torsions:
REMARK  status: ('A' for Active; 'I' for Inactive)
REMARK    1  A    between atoms: S_2  and  N_4 
REMARK    2  A    between atoms: S_2  and  C_6 
REMARK    3  A    between atoms: C_9  and  C_12 
REMARK    4  A    between atoms: C_16  and  C_17 
ROOT
HETATM    1  C   UNK N   1      33.027  16.971   7.965  0.00  0.00     0.086 A 
HETATM    2  O   UNK N   1      33.165  16.077   8.889  0.00  0.00    -0.310 OA
HETATM    3  C   UNK N   1      34.049  17.902   8.068  0.00  0.00     0.041 A 
HETATM    4  C   UNK N   1      34.823  17.473   9.159  0.00  0.00     0.040 A 
HETATM    5  C   UNK N   1      34.184  16.336   9.632  0.00  0.00     0.077 A 
ENDROOT
BRANCH   1   6
HETATM    6  C   UNK N   1      31.784  16.948   7.188  0.00  0.00    -0.002 A 
HETATM    7  C   UNK N   1      30.616  16.975   7.952  0.00  0.00     0.016 A 
HETATM    8  C   UNK N   1      29.388  17.166   7.372  0.00  0.00     0.026 A 
HETATM    9  C   UNK N   1      29.272  17.325   5.990  0.00  0.00     0.079 A 
HETATM   10  C   UNK N   1      30.435  17.289   5.191  0.00  0.00     0.026 A 
HETATM   11  C   UNK N   1      31.701  17.098   5.794  0.00  0.00     0.016 A 
BRANCH   9  12
HETATM   12  S   UNK N   1      27.631  17.727   5.343  0.00  0.00     0.258 S 
HETATM   13  O   UNK N   1      28.302  19.099   5.514  0.00  0.00    -0.201 OA
HETATM   14  O   UNK N   1      27.788  17.903   3.824  0.00  0.00    -0.201 OA
BRANCH  12  15
HETATM   15  N   UNK N   1      26.270  18.781   5.732  0.00  0.00    -0.320 N 
HETATM   16  C   UNK N   1      26.692  20.152   5.544  0.00  0.00     0.159 C 
HETATM   17  H   UNK N   1      25.346  18.476   6.038  0.00  0.00     0.171 HD
ENDBRANCH  12  15
ENDBRANCH   9  12
ENDBRANCH   1   6
BRANCH   5  18
HETATM   18  C   UNK N   1      34.415  15.561  10.870  0.00  0.00     0.061 C 
HETATM   19  C   UNK N   1      35.551  14.820  11.006  0.00  0.00     0.079 A 
HETATM   20  S   UNK N   1      36.813  14.602   9.706  0.00  0.00    -0.049 SA
HETATM   21  C   UNK N   1      35.899  14.066  12.211  0.00  0.00     0.264 A 
HETATM   22  C   UNK N   1      37.708  13.604  10.889  0.00  0.00     0.145 A 
HETATM   23  N   UNK N   1      38.923  13.253  10.689  0.00  0.00    -0.380 N 
HETATM   24  N   UNK N   1      37.081  13.428  12.135  0.00  0.00    -0.303 N 
HETATM   25  H   UNK N   1      39.424  12.779  11.390  0.00  0.00     0.158 HD
ATOM     26  HN  UNK N   1      39.374  13.467   9.798  1.00  0.00     0.158 HD
HETATM   27  H   UNK N   1      37.464  12.896  12.871  0.00  0.00     0.171 HD
HETATM   28  O   UNK N   1      35.212  14.029  13.211  0.00  0.00    -0.267 OA
ENDBRANCH   5  18
TORSDOF 4
ENDMDL
MODEL 8
REMARK VINA RESULT:      -7.0      6.549     12.742
REMARK  4 active torsions:
REMARK  status: ('A' for Active; 'I' for Inactive)
REMARK    1  A    between atoms: S_2  and  N_4 
REMARK    2  A    between atoms: S_2  and  C_6 
REMARK    3  A    between atoms: C_9  and  C_12 
REMARK    4  A    between atoms: C_16  and  C_17 
ROOT
HETATM    1  C   UNK N   1      34.017  16.715   9.030  0.00  0.00     0.086 A 
HETATM    2  O   UNK N   1      32.739  16.668   8.838  0.00  0.00    -0.310 OA
HETATM    3  C   UNK N   1      34.584  17.619   8.145  0.00  0.00     0.041 A 
HETATM    4  C   UNK N   1      33.506  18.115   7.393  0.00  0.00     0.040 A 
HETATM    5  C   UNK N   1      32.390  17.447   7.875  0.00  0.00     0.077 A 
ENDROOT
BRANCH   1   6
HETATM    6  C   UNK N   1      34.599  15.714   9.929  0.00  0.00    -0.002 A 
HETATM    7  C   UNK N   1      35.390  16.237  10.953  0.00  0.00     0.016 A 
HETATM    8  C   UNK N   1      35.830  15.450  11.987  0.00  0.00     0.026 A 
HETATM    9  C   UNK N   1      35.508  14.093  12.035  0.00  0.00     0.079 A 
HETATM   10  C   UNK N   1      34.720  13.534  11.007  0.00  0.00     0.026 A 
HETATM   11  C   UNK N   1      34.262  14.350   9.944  0.00  0.00     0.016 A 
BRANCH   9  12
HETATM   12  S   UNK N   1      36.003  13.182  13.517  0.00  0.00     0.258 S 
HETATM   13  O   UNK N   1      36.406  14.632  13.829  0.00  0.00    -0.201 OA
HETATM   14  O   UNK N   1      34.861  13.340  14.534  0.00  0.00    -0.201 OA
BRANCH  12  15
HETATM   15  N   UNK N   1      37.427  12.980  14.541  0.00  0.00    -0.320 N 
HETATM   16  C   UNK N   1      37.691  11.563  14.672  0.00  0.00     0.159 C 
HETATM   17  H   UNK N   1      37.969  13.731  14.966  0.00  0.00     0.171 HD
ENDBRANCH  12  15
ENDBRANCH   9  12
ENDBRANCH   1   6
BRANCH   5  18
HETATM   18  C   UNK N   1      31.008  17.404   7.351  0.00  0.00     0.061 C 
HETATM   19  C   UNK N   1      30.594  16.336   6.611  0.00  0.00     0.079 A 
HETATM   20  S   UNK N   1      31.661  14.949   6.098  0.00  0.00    -0.049 SA
HETATM   21  C   UNK N   1      29.232  16.172   6.099  0.00  0.00     0.264 A 
HETATM   22  C   UNK N   1      30.209  14.254   5.322  0.00  0.00     0.145 A 
HETATM   23  N   UNK N   1      30.186  13.047   4.896  0.00  0.00    -0.380 N 
HETATM   24  N   UNK N   1      29.038  15.029   5.418  0.00  0.00    -0.303 N 
HETATM   25  H   UNK N   1      29.351  12.658   4.552  0.00  0.00     0.158 HD
ATOM     26  HN  UNK N   1      31.039  12.486   4.914  1.00  0.00     0.158 HD
HETATM   27  H   UNK N   1      28.173  14.763   5.028  0.00  0.00     0.171 HD
HETATM   28  O   UNK N   1      28.336  16.970   6.284  0.00  0.00    -0.267 OA
ENDBRANCH   5  18
TORSDOF 4
ENDMDL
MODEL 9
REMARK VINA RESULT:      -7.0     10.560     16.594
REMARK  4 active torsions:
REMARK  status: ('A' for Active; 'I' for Inactive)
REMARK    1  A    between atoms: S_2  and  N_4 
REMARK    2  A    between atoms: S_2  and  C_6 
REMARK    3  A    between atoms: C_9  and  C_12 
REMARK    4  A    between atoms: C_16  and  C_17 
ROOT
HETATM    1  C   UNK N   1      35.854  13.016  14.228  0.00  0.00     0.086 A 
HETATM    2  O   UNK N   1      34.886  13.390  13.455  0.00  0.00    -0.310 OA
HETATM    3  C   UNK N   1      36.996  12.809  13.470  0.00  0.00     0.041 A 
HETATM    4  C   UNK N   1      36.612  13.097  12.149  0.00  0.00     0.040 A 
HETATM    5  C   UNK N   1      35.267  13.428  12.226  0.00  0.00     0.077 A 
ENDROOT
BRANCH   1   6
HETATM    6  C   UNK N   1      35.518  12.696  15.618  0.00  0.00    -0.002 A 
HETATM    7  C   UNK N   1      35.771  11.375  15.992  0.00  0.00     0.016 A 
HETATM    8  C   UNK N   1      35.705  10.979  17.303  0.00  0.00     0.026 A 
HETATM    9  C   UNK N   1      35.367  11.891  18.305  0.00  0.00     0.079 A 
HETATM   10  C   UNK N   1      35.094  13.230  17.956  0.00  0.00     0.026 A 
HETATM   11  C   UNK N   1      35.170  13.637  16.601  0.00  0.00     0.016 A 
BRANCH   9  12
HETATM   12  S   UNK N   1      35.462  11.307  20.015  0.00  0.00     0.258 S 
HETATM   13  O   UNK N   1      34.882  10.106  19.251  0.00  0.00    -0.201 OA
HETATM   14  O   UNK N   1      36.776  10.521  20.140  0.00  0.00    -0.201 OA
BRANCH  12  15
HETATM   15  N   UNK N   1      34.421  10.544  21.219  0.00  0.00    -0.320 N 
HETATM   16  C   UNK N   1      35.199   9.544  21.919  0.00  0.00     0.159 C 
HETATM   17  H   UNK N   1      33.441  10.768  21.391  0.00  0.00     0.171 HD
ENDBRANCH  12  15
ENDBRANCH   9  12
ENDBRANCH   1   6
BRANCH   5  18
HETATM   18  C   UNK N   1      34.276  13.636  11.149  0.00  0.00     0.061 C 
HETATM   19  C   UNK N   1      34.249  14.815  10.466  0.00  0.00     0.079 A 
HETATM   20  S   UNK N   1      35.297  16.259  10.845  0.00  0.00    -0.049 SA
HETATM   21  C   UNK N   1      33.348  15.095   9.348  0.00  0.00     0.264 A 
HETATM   22  C   UNK N   1      34.505  17.065   9.460  0.00  0.00     0.145 A 
HETATM   23  N   UNK N   1      34.954  18.162   8.973  0.00  0.00    -0.380 N 
HETATM   24  N   UNK N   1      33.513  16.314   8.804  0.00  0.00    -0.303 N 
HETATM   25  H   UNK N   1      34.555  18.542   8.158  0.00  0.00     0.158 HD
ATOM     26  HN  UNK N   1      35.729  18.642   9.433  1.00  0.00     0.158 HD
HETATM   27  H   UNK N   1      32.997  16.644   8.033  0.00  0.00     0.171 HD
HETATM   28  O   UNK N   1      32.535  14.303   8.916  0.00  0.00    -0.267 OA
ENDBRANCH   5  18
TORSDOF 4
ENDMDL
