MODEL 1
REMARK VINA RESULT:      -7.3      0.000      0.000
REMARK  4 active torsions:
REMARK  status: ('A' for Active; 'I' for Inactive)
REMARK    1  A    between atoms: S_2  and  N_4 
REMARK    2  A    between atoms: S_2  and  C_5 
REMARK    3  A    between atoms: C_8  and  C_11 
REMARK    4  A    between atoms: C_15  and  C_16 
ROOT
HETATM    1  C   UNK N   1      34.059  16.552   9.069  0.00  0.00     0.086 A 
HETATM    2  O   UNK N   1      32.952  16.167   8.523  0.00  0.00    -0.310 OA
HETATM    3  C   UNK N   1      34.514  17.701   8.438  0.00  0.00     0.041 A 
HETATM    4  C   UNK N   1      33.556  17.985   7.457  0.00  0.00     0.040 A 
HETATM    5  C   UNK N   1      32.623  16.965   7.557  0.00  0.00     0.077 A 
ENDROOT
BRANCH   1   6
HETATM    6  C   UNK N   1      34.703  15.686  10.058  0.00  0.00    -0.002 A 
HETATM    7  C   UNK N   1      35.572  16.301  10.971  0.00  0.00     0.016 A 
HETATM    8  C   UNK N   1      36.040  15.614  12.080  0.00  0.00     0.026 A 
HETATM    9  C   UNK N   1      35.645  14.298  12.292  0.00  0.00     0.079 A 
HETATM   10  C   UNK N   1      34.812  13.654  11.365  0.00  0.00     0.026 A 
HETATM   11  C   UNK N   1      34.345  14.346  10.236  0.00  0.00     0.016 A 
BRANCH   9  12
HETATM   12  S   UNK N   1      35.951  13.575  13.890  0.00  0.00     0.256 S 
HETATM   13  O   UNK N   1      34.700  13.173  14.688  0.00  0.00    -0.201 OA
HETATM   14  O   UNK N   1      36.610  12.209  13.661  0.00  0.00    -0.201 OA
BRANCH  12  15
HETATM   15  N   UNK N   1      37.046  14.369  15.021  0.00  0.00    -0.324 N 
HETATM   16  H   UNK N   1      36.707  15.056  15.694  0.00  0.00     0.169 HD
HETATM   17  H   UNK N   1      38.039  14.137  15.002  0.00  0.00     0.169 HD
ENDBRANCH  12  15
ENDBRANCH   9  12
ENDBRANCH   1   6
BRANCH   5  18
HETATM   18  C   UNK N   1      31.439  16.689   6.724  0.00  0.00     0.061 C 
HETATM   19  C   UNK N   1      30.220  17.140   7.116  0.00  0.00     0.079 A 
HETATM   20  S   UNK N   1      29.884  17.940   8.715  0.00  0.00    -0.049 SA
HETATM   21  C   UNK N   1      29.015  17.062   6.291  0.00  0.00     0.264 A 
HETATM   22  C   UNK N   1      28.224  18.209   8.104  0.00  0.00     0.145 A 
HETATM   23  N   UNK N   1      27.443  19.061   8.655  0.00  0.00    -0.380 N 
HETATM   24  N   UNK N   1      27.948  17.670   6.834  0.00  0.00    -0.303 N 
HETATM   25  H   UNK N   1      26.543  19.230   8.294  0.00  0.00     0.158 HD
ATOM     26  HN  UNK N   1      27.757  19.572   9.481  1.00  0.00     0.158 HD
HETATM   27  H   UNK N   1      27.070  17.732   6.391  0.00  0.00     0.171 HD
HETATM   28  O   UNK N   1      28.979  16.556   5.187  0.00  0.00    -0.267 OA
ENDBRANCH   5  18
TORSDOF 4
ENDMDL
MODEL 2
REMARK VINA RESULT:      -7.2      4.137      6.383
REMARK  4 active torsions:
REMARK  status: ('A' for Active; 'I' for Inactive)
REMARK    1  A    between atoms: S_2  and  N_4 
REMARK    2  A    between atoms: S_2  and  C_5 
REMARK    3  A    between atoms: C_8  and  C_11 
REMARK    4  A    between atoms: C_15  and  C_16 
ROOT
HETATM    1  C   UNK N   1      36.524  12.832  13.574  0.00  0.00     0.086 A 
HETATM    2  O   UNK N   1      36.307  14.042  13.171  0.00  0.00    -0.310 OA
HETATM    3  C   UNK N   1      37.108  12.099  12.551  0.00  0.00     0.041 A 
HETATM    4  C   UNK N   1      37.238  12.996  11.484  0.00  0.00     0.040 A 
HETATM    5  C   UNK N   1      36.690  14.184  11.942  0.00  0.00     0.077 A 
ENDROOT
BRANCH   1   6
HETATM    6  C   UNK N   1      35.995  12.409  14.872  0.00  0.00    -0.002 A 
HETATM    7  C   UNK N   1      36.389  11.147  15.338  0.00  0.00     0.016 A 
HETATM    8  C   UNK N   1      36.135  10.761  16.645  0.00  0.00     0.026 A 
HETATM    9  C   UNK N   1      35.481  11.634  17.506  0.00  0.00     0.079 A 
HETATM   10  C   UNK N   1      35.040  12.884  17.043  0.00  0.00     0.026 A 
HETATM   11  C   UNK N   1      35.288  13.272  15.717  0.00  0.00     0.016 A 
BRANCH   9  12
HETATM   12  S   UNK N   1      35.502  11.270  19.249  0.00  0.00     0.256 S 
HETATM   13  O   UNK N   1      34.404  10.315  19.742  0.00  0.00    -0.201 OA
HETATM   14  O   UNK N   1      36.764  10.445  19.534  0.00  0.00    -0.201 OA
BRANCH  12  15
HETATM   15  N   UNK N   1      35.603  12.583  20.421  0.00  0.00    -0.324 N 
HETATM   16  H   UNK N   1      36.479  13.080  20.587  0.00  0.00     0.169 HD
HETATM   17  H   UNK N   1      34.770  12.851  20.945  0.00  0.00     0.169 HD
ENDBRANCH  12  15
ENDBRANCH   9  12
ENDBRANCH   1   6
BRANCH   5  18
HETATM   18  C   UNK N   1      36.471  15.454  11.228  0.00  0.00     0.061 C 
HETATM   19  C   UNK N   1      35.316  15.650  10.541  0.00  0.00     0.079 A 
HETATM   20  S   UNK N   1      34.044  14.375  10.282  0.00  0.00    -0.049 SA
HETATM   21  C   UNK N   1      34.930  16.924   9.936  0.00  0.00     0.264 A 
HETATM   22  C   UNK N   1      33.070  15.663   9.512  0.00  0.00     0.145 A 
HETATM   23  N   UNK N   1      31.810  15.525   9.331  0.00  0.00    -0.380 N 
HETATM   24  N   UNK N   1      33.697  16.919   9.404  0.00  0.00    -0.303 N 
HETATM   25  H   UNK N   1      31.273  16.250   8.938  0.00  0.00     0.158 HD
ATOM     26  HN  UNK N   1      31.356  14.651   9.597  1.00  0.00     0.158 HD
HETATM   27  H   UNK N   1      33.279  17.706   8.985  0.00  0.00     0.171 HD
HETATM   28  O   UNK N   1      35.620  17.924   9.958  0.00  0.00    -0.267 OA
ENDBRANCH   5  18
TORSDOF 4
ENDMDL
MODEL 3
REMARK VINA RESULT:      -7.2      5.724     12.072
REMARK  4 active torsions:
REMARK  status: ('A' for Active; 'I' for Inactive)
REMARK    1  A    between atoms: S_2  and  N_4 
REMARK    2  A    between atoms: S_2  and  C_5 
REMARK    3  A    between atoms: C_8  and  C_11 
REMARK    4  A    between atoms: C_15  and  C_16 
ROOT
HETATM    1  C   UNK N   1      26.331  19.976   5.202  0.00  0.00     0.086 A 
HETATM    2  O   UNK N   1      26.872  18.997   5.852  0.00  0.00    -0.310 OA
HETATM    3  C   UNK N   1      26.965  21.164   5.538  0.00  0.00     0.041 A 
HETATM    4  C   UNK N   1      27.961  20.802   6.453  0.00  0.00     0.040 A 
HETATM    5  C   UNK N   1      27.822  19.433   6.616  0.00  0.00     0.077 A 
ENDROOT
BRANCH   1   6
HETATM    6  C   UNK N   1      25.117  19.727   4.422  0.00  0.00    -0.002 A 
HETATM    7  C   UNK N   1      24.247  18.737   4.899  0.00  0.00     0.016 A 
HETATM    8  C   UNK N   1      22.974  18.594   4.370  0.00  0.00     0.026 A 
HETATM    9  C   UNK N   1      22.553  19.441   3.352  0.00  0.00     0.079 A 
HETATM   10  C   UNK N   1      23.427  20.409   2.831  0.00  0.00     0.026 A 
HETATM   11  C   UNK N   1      24.719  20.548   3.361  0.00  0.00     0.016 A 
BRANCH   9  12
HETATM   12  S   UNK N   1      20.817  19.483   2.956  0.00  0.00     0.256 S 
HETATM   13  O   UNK N   1      20.002  18.263   3.414  0.00  0.00    -0.201 OA
HETATM   14  O   UNK N   1      20.179  20.600   3.792  0.00  0.00    -0.201 OA
BRANCH  12  15
HETATM   15  N   UNK N   1      20.297  19.858   1.314  0.00  0.00    -0.324 N 
HETATM   16  H   UNK N   1      20.969  19.940   0.550  0.00  0.00     0.169 HD
HETATM   17  H   UNK N   1      19.305  19.998   1.123  0.00  0.00     0.169 HD
ENDBRANCH  12  15
ENDBRANCH   9  12
ENDBRANCH   1   6
BRANCH   5  18
HETATM   18  C   UNK N   1      28.538  18.518   7.523  0.00  0.00     0.061 C 
HETATM   19  C   UNK N   1      29.501  17.698   7.030  0.00  0.00     0.079 A 
HETATM   20  S   UNK N   1      29.884  17.508   5.261  0.00  0.00    -0.049 SA
HETATM   21  C   UNK N   1      30.377  16.873   7.860  0.00  0.00     0.264 A 
HETATM   22  C   UNK N   1      31.238  16.461   5.782  0.00  0.00     0.145 A 
HETATM   23  N   UNK N   1      32.203  16.177   4.989  0.00  0.00    -0.380 N 
HETATM   24  N   UNK N   1      31.330  16.228   7.167  0.00  0.00    -0.303 N 
HETATM   25  H   UNK N   1      32.961  15.629   5.292  0.00  0.00     0.158 HD
ATOM     26  HN  UNK N   1      32.184  16.526   4.030  1.00  0.00     0.158 HD
HETATM   27  H   UNK N   1      32.016  15.656   7.582  0.00  0.00     0.171 HD
HETATM   28  O   UNK N   1      30.307  16.813   9.072  0.00  0.00    -0.267 OA
ENDBRANCH   5  18
TORSDOF 4
ENDMDL
MODEL 4
REMARK VINA RESULT:      -7.1      3.215      9.133
REMARK  4 active torsions:
REMARK  status: ('A' for Active; 'I' for Inactive)
REMARK    1  A    between atoms: S_2  and  N_4 
REMARK    2  A    between atoms: S_2  and  C_5 
REMARK    3  A    between atoms: C_8  and  C_11 
REMARK    4  A    between atoms: C_15  and  C_16 
ROOT
HETATM    1  C   UNK N   1      31.519  17.140   5.718  0.00  0.00     0.086 A 
HETATM    2  O   UNK N   1      32.026  17.378   6.884  0.00  0.00    -0.310 OA
HETATM    3  C   UNK N   1      32.538  16.888   4.811  0.00  0.00     0.041 A 
HETATM    4  C   UNK N   1      33.722  16.984   5.553  0.00  0.00     0.040 A 
HETATM    5  C   UNK N   1      33.318  17.318   6.836  0.00  0.00     0.077 A 
ENDROOT
BRANCH   1   6
HETATM    6  C   UNK N   1      30.084  17.339   5.512  0.00  0.00    -0.002 A 
HETATM    7  C   UNK N   1      29.340  17.788   6.613  0.00  0.00     0.016 A 
HETATM    8  C   UNK N   1      28.035  18.229   6.457  0.00  0.00     0.026 A 
HETATM    9  C   UNK N   1      27.453  18.224   5.195  0.00  0.00     0.079 A 
HETATM   10  C   UNK N   1      28.168  17.736   4.090  0.00  0.00     0.026 A 
HETATM   11  C   UNK N   1      29.486  17.281   4.248  0.00  0.00     0.016 A 
BRANCH   9  12
HETATM   12  S   UNK N   1      25.937  19.129   4.964  0.00  0.00     0.256 S 
HETATM   13  O   UNK N   1      25.885  20.517   5.622  0.00  0.00    -0.201 OA
HETATM   14  O   UNK N   1      25.841  19.500   3.478  0.00  0.00    -0.201 OA
BRANCH  12  15
HETATM   15  N   UNK N   1      24.388  18.351   5.289  0.00  0.00    -0.324 N 
HETATM   16  H   UNK N   1      23.525  18.891   5.343  0.00  0.00     0.169 HD
HETATM   17  H   UNK N   1      24.355  17.341   5.427  0.00  0.00     0.169 HD
ENDBRANCH  12  15
ENDBRANCH   9  12
ENDBRANCH   1   6
BRANCH   5  18
HETATM   18  C   UNK N   1      34.131  17.635   8.024  0.00  0.00     0.061 C 
HETATM   19  C   UNK N   1      34.201  16.747   9.049  0.00  0.00     0.079 A 
HETATM   20  S   UNK N   1      33.215  15.222   9.158  0.00  0.00    -0.049 SA
HETATM   21  C   UNK N   1      35.098  16.889  10.194  0.00  0.00     0.264 A 
HETATM   22  C   UNK N   1      34.160  14.850  10.631  0.00  0.00     0.145 A 
HETATM   23  N   UNK N   1      34.194  13.666  11.118  0.00  0.00    -0.380 N 
HETATM   24  N   UNK N   1      35.080  15.838  11.030  0.00  0.00    -0.303 N 
HETATM   25  H   UNK N   1      34.742  13.461  11.909  0.00  0.00     0.158 HD
ATOM     26  HN  UNK N   1      33.644  12.926  10.681  1.00  0.00     0.158 HD
HETATM   27  H   UNK N   1      35.648  15.766  11.831  0.00  0.00     0.171 HD
HETATM   28  O   UNK N   1      35.846  17.833  10.359  0.00  0.00    -0.267 OA
ENDBRANCH   5  18
TORSDOF 4
ENDMDL
MODEL 5
REMARK VINA RESULT:      -6.8      2.245      8.986
REMARK  4 active torsions:
REMARK  status: ('A' for Active; 'I' for Inactive)
REMARK    1  A    between atoms: S_2  and  N_4 
REMARK    2  A    between atoms: S_2  and  C_5 
REMARK    3  A    between atoms: C_8  and  C_11 
REMARK    4  A    between atoms: C_15  and  C_16 
ROOT
HETATM    1  C   UNK N   1      33.173  16.901   7.950  0.00  0.00     0.086 A 
HETATM    2  O   UNK N   1      33.225  16.025   8.901  0.00  0.00    -0.310 OA
HETATM    3  C   UNK N   1      34.197  17.824   8.111  0.00  0.00     0.041 A 
HETATM    4  C   UNK N   1      34.888  17.409   9.256  0.00  0.00     0.040 A 
HETATM    5  C   UNK N   1      34.203  16.291   9.706  0.00  0.00     0.077 A 
ENDROOT
BRANCH   1   6
HETATM    6  C   UNK N   1      32.030  16.891   7.036  0.00  0.00    -0.002 A 
HETATM    7  C   UNK N   1      30.754  16.836   7.616  0.00  0.00     0.016 A 
HETATM    8  C   UNK N   1      29.617  17.060   6.854  0.00  0.00     0.026 A 
HETATM    9  C   UNK N   1      29.741  17.340   5.498  0.00  0.00     0.079 A 
HETATM   10  C   UNK N   1      31.008  17.355   4.893  0.00  0.00     0.026 A 
HETATM   11  C   UNK N   1      32.158  17.120   5.662  0.00  0.00     0.016 A 
BRANCH   9  12
HETATM   12  S   UNK N   1      28.320  17.983   4.639  0.00  0.00     0.256 S 
HETATM   13  O   UNK N   1      27.810  17.128   3.467  0.00  0.00    -0.201 OA
HETATM   14  O   UNK N   1      27.126  17.912   5.601  0.00  0.00    -0.201 OA
BRANCH  12  15
HETATM   15  N   UNK N   1      28.303  19.660   4.095  0.00  0.00    -0.324 N 
HETATM   16  H   UNK N   1      28.433  19.899   3.112  0.00  0.00     0.169 HD
HETATM   17  H   UNK N   1      28.162  20.405   4.776  0.00  0.00     0.169 HD
ENDBRANCH  12  15
ENDBRANCH   9  12
ENDBRANCH   1   6
BRANCH   5  18
HETATM   18  C   UNK N   1      34.419  15.483  10.920  0.00  0.00     0.061 C 
HETATM   19  C   UNK N   1      35.531  14.713  11.028  0.00  0.00     0.079 A 
HETATM   20  S   UNK N   1      36.739  14.457   9.692  0.00  0.00    -0.049 SA
HETATM   21  C   UNK N   1      35.921  14.004  12.246  0.00  0.00     0.264 A 
HETATM   22  C   UNK N   1      37.705  13.545  10.890  0.00  0.00     0.145 A 
HETATM   23  N   UNK N   1      38.944  13.294  10.693  0.00  0.00    -0.380 N 
HETATM   24  N   UNK N   1      37.115  13.396  12.160  0.00  0.00    -0.303 N 
HETATM   25  H   UNK N   1      39.479  12.821  11.371  0.00  0.00     0.158 HD
ATOM     26  HN  UNK N   1      39.384  13.587   9.820  1.00  0.00     0.158 HD
HETATM   27  H   UNK N   1      37.532  12.901  12.903  0.00  0.00     0.171 HD
HETATM   28  O   UNK N   1      35.268  14.005  13.271  0.00  0.00    -0.267 OA
ENDBRANCH   5  18
TORSDOF 4
ENDMDL
MODEL 6
REMARK VINA RESULT:      -6.8      3.643      9.518
REMARK  4 active torsions:
REMARK  status: ('A' for Active; 'I' for Inactive)
REMARK    1  A    between atoms: S_2  and  N_4 
REMARK    2  A    between atoms: S_2  and  C_5 
REMARK    3  A    between atoms: C_8  and  C_11 
REMARK    4  A    between atoms: C_15  and  C_16 
ROOT
HETATM    1  C   UNK N   1      35.584  13.854  12.427  0.00  0.00     0.086 A 
HETATM    2  O   UNK N   1      35.129  13.920  13.636  0.00  0.00    -0.310 OA
HETATM    3  C   UNK N   1      36.737  13.083  12.405  0.00  0.00     0.041 A 
HETATM    4  C   UNK N   1      36.930  12.674  13.730  0.00  0.00     0.040 A 
HETATM    5  C   UNK N   1      35.896  13.260  14.443  0.00  0.00     0.077 A 
ENDROOT
BRANCH   1   6
HETATM    6  C   UNK N   1      34.969  14.684  11.390  0.00  0.00    -0.002 A 
HETATM    7  C   UNK N   1      35.388  16.020  11.314  0.00  0.00     0.016 A 
HETATM    8  C   UNK N   1      35.045  16.812  10.229  0.00  0.00     0.026 A 
HETATM    9  C   UNK N   1      34.274  16.278   9.203  0.00  0.00     0.079 A 
HETATM   10  C   UNK N   1      33.808  14.956   9.284  0.00  0.00     0.026 A 
HETATM   11  C   UNK N   1      34.148  14.156  10.387  0.00  0.00     0.016 A 
BRANCH   9  12
HETATM   12  S   UNK N   1      34.166  17.183   7.673  0.00  0.00     0.256 S 
HETATM   13  O   UNK N   1      34.889  18.539   7.651  0.00  0.00    -0.201 OA
HETATM   14  O   UNK N   1      34.961  16.404   6.617  0.00  0.00    -0.201 OA
BRANCH  12  15
HETATM   15  N   UNK N   1      32.599  17.426   6.903  0.00  0.00    -0.324 N 
HETATM   16  H   UNK N   1      32.272  16.809   6.159  0.00  0.00     0.169 HD
HETATM   17  H   UNK N   1      32.007  18.200   7.206  0.00  0.00     0.169 HD
ENDBRANCH  12  15
ENDBRANCH   9  12
ENDBRANCH   1   6
BRANCH   5  18
HETATM   18  C   UNK N   1      35.634  13.254  15.894  0.00  0.00     0.061 C 
HETATM   19  C   UNK N   1      35.341  12.086  16.521  0.00  0.00     0.079 A 
HETATM   20  S   UNK N   1      35.073  10.501  15.670  0.00  0.00    -0.049 SA
HETATM   21  C   UNK N   1      35.223  11.943  17.971  0.00  0.00     0.264 A 
HETATM   22  C   UNK N   1      34.954   9.774  17.300  0.00  0.00     0.145 A 
HETATM   23  N   UNK N   1      35.065   8.510  17.475  0.00  0.00    -0.380 N 
HETATM   24  N   UNK N   1      35.038  10.677  18.377  0.00  0.00    -0.303 N 
HETATM   25  H   UNK N   1      35.034   8.120  18.378  0.00  0.00     0.158 HD
ATOM     26  HN  UNK N   1      35.188   7.900  16.666  1.00  0.00     0.158 HD
HETATM   27  H   UNK N   1      34.970  10.410  19.323  0.00  0.00     0.171 HD
HETATM   28  O   UNK N   1      35.344  12.863  18.757  0.00  0.00    -0.267 OA
ENDBRANCH   5  18
TORSDOF 4
ENDMDL
MODEL 7
REMARK VINA RESULT:      -6.7      8.301     13.399
REMARK  4 active torsions:
REMARK  status: ('A' for Active; 'I' for Inactive)
REMARK    1  A    between atoms: S_2  and  N_4 
REMARK    2  A    between atoms: S_2  and  C_5 
REMARK    3  A    between atoms: C_8  and  C_11 
REMARK    4  A    between atoms: C_15  and  C_16 
ROOT
HETATM    1  C   UNK N   1      34.971  10.289  18.555  0.00  0.00     0.086 A 
HETATM    2  O   UNK N   1      35.372  10.402  19.779  0.00  0.00    -0.310 OA
HETATM    3  C   UNK N   1      34.221   9.130  18.416  0.00  0.00     0.041 A 
HETATM    4  C   UNK N   1      34.196   8.554  19.692  0.00  0.00     0.040 A 
HETATM    5  C   UNK N   1      34.960   9.397  20.484  0.00  0.00     0.077 A 
ENDROOT
BRANCH   1   6
HETATM    6  C   UNK N   1      35.481  11.224  17.550  0.00  0.00    -0.002 A 
HETATM    7  C   UNK N   1      36.183  10.673  16.469  0.00  0.00     0.016 A 
HETATM    8  C   UNK N   1      36.496  11.443  15.359  0.00  0.00     0.026 A 
HETATM    9  C   UNK N   1      36.111  12.778  15.316  0.00  0.00     0.079 A 
HETATM   10  C   UNK N   1      35.447  13.357  16.409  0.00  0.00     0.026 A 
HETATM   11  C   UNK N   1      35.138  12.580  17.537  0.00  0.00     0.016 A 
BRANCH   9  12
HETATM   12  S   UNK N   1      36.191  13.627  13.752  0.00  0.00     0.256 S 
HETATM   13  O   UNK N   1      34.852  13.790  13.016  0.00  0.00    -0.201 OA
HETATM   14  O   UNK N   1      36.553  15.090  14.039  0.00  0.00    -0.201 OA
BRANCH  12  15
HETATM   15  N   UNK N   1      37.383  13.142  12.547  0.00  0.00    -0.324 N 
HETATM   16  H   UNK N   1      37.136  13.063  11.560  0.00  0.00     0.169 HD
HETATM   17  H   UNK N   1      38.337  12.937  12.842  0.00  0.00     0.169 HD
ENDBRANCH  12  15
ENDBRANCH   9  12
ENDBRANCH   1   6
BRANCH   5  18
HETATM   18  C   UNK N   1      35.360   9.253  21.895  0.00  0.00     0.061 C 
HETATM   19  C   UNK N   1      34.512   9.649  22.879  0.00  0.00     0.079 A 
HETATM   20  S   UNK N   1      32.941  10.521  22.594  0.00  0.00    -0.049 SA
HETATM   21  C   UNK N   1      34.739   9.405  24.302  0.00  0.00     0.264 A 
HETATM   22  C   UNK N   1      32.669  10.375  24.356  0.00  0.00     0.145 A 
HETATM   23  N   UNK N   1      31.506  10.540  24.865  0.00  0.00    -0.380 N 
HETATM   24  N   UNK N   1      33.717   9.784  25.086  0.00  0.00    -0.303 N 
HETATM   25  H   UNK N   1      31.356  10.425  25.831  0.00  0.00     0.158 HD
ATOM     26  HN  UNK N   1      30.724  10.794  24.261  1.00  0.00     0.158 HD
HETATM   27  H   UNK N   1      33.703   9.661  26.063  0.00  0.00     0.171 HD
HETATM   28  O   UNK N   1      35.726   8.854  24.748  0.00  0.00    -0.267 OA
ENDBRANCH   5  18
TORSDOF 4
ENDMDL
MODEL 8
REMARK VINA RESULT:      -6.6      6.486      9.177
REMARK  4 active torsions:
REMARK  status: ('A' for Active; 'I' for Inactive)
REMARK    1  A    between atoms: S_2  and  N_4 
REMARK    2  A    between atoms: S_2  and  C_5 
REMARK    3  A    between atoms: C_8  and  C_11 
REMARK    4  A    between atoms: C_15  and  C_16 
ROOT
HETATM    1  C   UNK N   1      26.185  19.843   4.479  0.00  0.00     0.086 A 
HETATM    2  O   UNK N   1      24.953  19.485   4.644  0.00  0.00    -0.310 OA
HETATM    3  C   UNK N   1      26.337  20.424   3.229  0.00  0.00     0.041 A 
HETATM    4  C   UNK N   1      25.061  20.395   2.653  0.00  0.00     0.040 A 
HETATM    5  C   UNK N   1      24.256  19.769   3.591  0.00  0.00     0.077 A 
ENDROOT
BRANCH   1   6
HETATM    6  C   UNK N   1      27.181  19.446   5.476  0.00  0.00    -0.002 A 
HETATM    7  C   UNK N   1      27.256  20.222   6.642  0.00  0.00     0.016 A 
HETATM    8  C   UNK N   1      27.992  19.791   7.735  0.00  0.00     0.026 A 
HETATM    9  C   UNK N   1      28.667  18.577   7.677  0.00  0.00     0.079 A 
HETATM   10  C   UNK N   1      28.638  17.810   6.501  0.00  0.00     0.026 A 
HETATM   11  C   UNK N   1      27.900  18.249   5.391  0.00  0.00     0.016 A 
BRANCH   9  12
HETATM   12  S   UNK N   1      29.283  17.883   9.196  0.00  0.00     0.256 S 
HETATM   13  O   UNK N   1      29.583  18.893  10.315  0.00  0.00    -0.201 OA
HETATM   14  O   UNK N   1      28.147  17.068   9.827  0.00  0.00    -0.201 OA
BRANCH  12  15
HETATM   15  N   UNK N   1      30.628  16.743   9.162  0.00  0.00    -0.324 N 
HETATM   16  H   UNK N   1      30.510  15.794   8.807  0.00  0.00     0.169 HD
HETATM   17  H   UNK N   1      31.543  17.038   9.503  0.00  0.00     0.169 HD
ENDBRANCH  12  15
ENDBRANCH   9  12
ENDBRANCH   1   6
BRANCH   5  18
HETATM   18  C   UNK N   1      22.836  19.382   3.502  0.00  0.00     0.061 C 
HETATM   19  C   UNK N   1      22.480  18.084   3.681  0.00  0.00     0.079 A 
HETATM   20  S   UNK N   1      23.657  16.710   3.867  0.00  0.00    -0.049 SA
HETATM   21  C   UNK N   1      21.096  17.621   3.773  0.00  0.00     0.264 A 
HETATM   22  C   UNK N   1      22.230  15.675   4.171  0.00  0.00     0.145 A 
HETATM   23  N   UNK N   1      22.348  14.521   4.714  0.00  0.00    -0.380 N 
HETATM   24  N   UNK N   1      20.981  16.315   4.064  0.00  0.00    -0.303 N 
HETATM   25  H   UNK N   1      21.556  13.971   4.910  0.00  0.00     0.158 HD
ATOM     26  HN  UNK N   1      23.277  14.168   4.946  1.00  0.00     0.158 HD
HETATM   27  H   UNK N   1      20.118  15.856   4.188  0.00  0.00     0.171 HD
HETATM   28  O   UNK N   1      20.128  18.347   3.663  0.00  0.00    -0.267 OA
ENDBRANCH   5  18
TORSDOF 4
ENDMDL
MODEL 9
REMARK VINA RESULT:      -6.5      9.387     10.728
REMARK  4 active torsions:
REMARK  status: ('A' for Active; 'I' for Inactive)
REMARK    1  A    between atoms: S_2  and  N_4 
REMARK    2  A    between atoms: S_2  and  C_5 
REMARK    3  A    between atoms: C_8  and  C_11 
REMARK    4  A    between atoms: C_15  and  C_16 
ROOT
HETATM    1  C   UNK N   1      24.946  16.588   5.284  0.00  0.00     0.086 A 
HETATM    2  O   UNK N   1      24.089  17.532   5.062  0.00  0.00    -0.310 OA
HETATM    3  C   UNK N   1      26.058  16.770   4.476  0.00  0.00     0.041 A 
HETATM    4  C   UNK N   1      25.794  17.935   3.745  0.00  0.00     0.040 A 
HETATM    5  C   UNK N   1      24.532  18.338   4.151  0.00  0.00     0.077 A 
ENDROOT
BRANCH   1   6
HETATM    6  C   UNK N   1      24.562  15.468   6.145  0.00  0.00    -0.002 A 
HETATM    7  C   UNK N   1      25.597  14.788   6.802  0.00  0.00     0.016 A 
HETATM    8  C   UNK N   1      25.322  13.878   7.811  0.00  0.00     0.026 A 
HETATM    9  C   UNK N   1      24.003  13.632   8.176  0.00  0.00     0.079 A 
HETATM   10  C   UNK N   1      22.953  14.270   7.497  0.00  0.00     0.026 A 
HETATM   11  C   UNK N   1      23.231  15.186   6.470  0.00  0.00     0.016 A 
BRANCH   9  12
HETATM   12  S   UNK N   1      23.699  12.759   9.697  0.00  0.00     0.256 S 
HETATM   13  O   UNK N   1      22.481  13.235  10.505  0.00  0.00    -0.201 OA
HETATM   14  O   UNK N   1      23.276  11.329   9.334  0.00  0.00    -0.201 OA
BRANCH  12  15
HETATM   15  N   UNK N   1      25.012  12.512  10.848  0.00  0.00    -0.324 N 
HETATM   16  H   UNK N   1      25.413  11.588  11.005  0.00  0.00     0.169 HD
HETATM   17  H   UNK N   1      25.377  13.310  11.369  0.00  0.00     0.169 HD
ENDBRANCH  12  15
ENDBRANCH   9  12
ENDBRANCH   1   6
BRANCH   5  18
HETATM   18  C   UNK N   1      23.699  19.451   3.662  0.00  0.00     0.061 C 
HETATM   19  C   UNK N   1      22.419  19.215   3.276  0.00  0.00     0.079 A 
HETATM   20  S   UNK N   1      21.669  17.561   3.153  0.00  0.00    -0.049 SA
HETATM   21  C   UNK N   1      21.462  20.264   2.930  0.00  0.00     0.264 A 
HETATM   22  C   UNK N   1      20.137  18.406   2.779  0.00  0.00     0.145 A 
HETATM   23  N   UNK N   1      19.009  17.807   2.866  0.00  0.00    -0.380 N 
HETATM   24  N   UNK N   1      20.222  19.808   2.687  0.00  0.00    -0.303 N 
HETATM   25  H   UNK N   1      18.168  18.286   2.692  0.00  0.00     0.158 HD
ATOM     26  HN  UNK N   1      18.983  16.818   3.118  1.00  0.00     0.158 HD
HETATM   27  H   UNK N   1      19.458  20.390   2.469  0.00  0.00     0.171 HD
HETATM   28  O   UNK N   1      21.727  21.450   2.919  0.00  0.00    -0.267 OA
ENDBRANCH   5  18
TORSDOF 4
ENDMDL
