REMARK  4 active torsions:
REMARK  status: ('A' for Active; 'I' for Inactive)
REMARK    1  A    between atoms: S_2  and  N_4 
REMARK    2  A    between atoms: S_2  and  C_5 
REMARK    3  A    between atoms: C_8  and  C_11 
REMARK    4  A    between atoms: C_15  and  C_16 
ROOT
HETATM    1  C   UNK N   1      -1.680  -0.686   0.157  0.00  0.00     0.086 A 
HETATM    2  O   UNK N   1      -0.601  -1.382   0.313  0.00  0.00    -0.310 OA
HETATM    3  C   UNK N   1      -2.713  -1.515  -0.256  0.00  0.00     0.041 A 
HETATM    4  C   UNK N   1      -2.151  -2.796  -0.322  0.00  0.00     0.040 A 
HETATM    5  C   UNK N   1      -0.820  -2.625   0.025  0.00  0.00     0.077 A 
ENDROOT
BRANCH   1   6
HETATM    6  C   UNK N   1      -1.605   0.773   0.252  0.00  0.00    -0.002 A 
HETATM    7  C   UNK N   1      -0.380   1.321   0.659  0.00  0.00     0.016 A 
HETATM    8  C   UNK N   1      -0.140   2.682   0.552  0.00  0.00     0.026 A 
HETATM    9  C   UNK N   1      -1.125   3.517   0.037  0.00  0.00     0.079 A 
HETATM   10  C   UNK N   1      -2.373   2.991  -0.333  0.00  0.00     0.026 A 
HETATM   11  C   UNK N   1      -2.620   1.614  -0.217  0.00  0.00     0.016 A 
BRANCH   9  12
HETATM   12  S   UNK N   1      -0.665   5.172  -0.432  0.00  0.00     0.256 S 
HETATM   13  O   UNK N   1       0.364   5.859   0.480  0.00  0.00    -0.201 OA
HETATM   14  O   UNK N   1       0.118   5.079  -1.748  0.00  0.00    -0.201 OA
BRANCH  12  15
HETATM   15  N   UNK N   1      -1.913   6.366  -0.786  0.00  0.00    -0.324 N 
HETATM   16  H   UNK N   1      -1.675   7.337  -0.990  0.00  0.00     0.169 HD
HETATM   17  H   UNK N   1      -2.892   6.081  -0.786  0.00  0.00     0.169 HD
ENDBRANCH  12  15
ENDBRANCH   9  12
ENDBRANCH   1   6
BRANCH   5  18
HETATM   18  C   UNK N   1       0.279  -3.607   0.045  0.00  0.00     0.061 C 
HETATM   19  C   UNK N   1       1.564  -3.182  -0.060  0.00  0.00     0.079 A 
HETATM   20  S   UNK N   1       2.055  -1.463  -0.398  0.00  0.00    -0.049 SA
HETATM   21  C   UNK N   1       2.729  -4.049   0.109  0.00  0.00     0.264 A 
HETATM   22  C   UNK N   1       3.740  -2.016  -0.164  0.00  0.00     0.145 A 
HETATM   23  N   UNK N   1       4.690  -1.184   0.047  0.00  0.00    -0.380 N 
HETATM   24  N   UNK N   1       3.901  -3.394   0.074  0.00  0.00    -0.303 N 
HETATM   25  H   UNK N   1       5.609  -1.496   0.209  0.00  0.00     0.158 HD
ATOM     26  HN  UNK N   1       4.491  -0.183   0.047  1.00  0.00     0.158 HD
HETATM   27  H   UNK N   1       4.775  -3.830   0.201  0.00  0.00     0.171 HD
HETATM   28  O   UNK N   1       2.662  -5.243   0.326  0.00  0.00    -0.267 OA
ENDBRANCH   5  18
TORSDOF 4
