REMARK  3 active torsions:
REMARK  status: ('A' for Active; 'I' for Inactive)
REMARK       I    between atoms: N_1  and  C_2 
REMARK    1  A    between atoms: C_5  and  C_6 
REMARK    2  A    between atoms: C_6  and  C_7 
REMARK    3  A    between atoms: C_7  and  C_8 
ROOT
HETATM    1  N   UNK N   1      43.260  26.999   0.000  0.00  0.00    -0.234 N 
HETATM    2  C   UNK N   1      42.034  27.689   0.000  0.00  0.00     0.678 A 
HETATM    3  C   UNK N   1      40.835  29.735   0.000  0.00  0.00     0.261 A 
HETATM    4  C   UNK N   1      39.634  29.038  -0.000  0.00  0.00     0.100 A 
HETATM    5  C   UNK N   1      39.670  27.647  -0.000  0.00  0.00     0.032 A 
HETATM    6  N   UNK N   1      40.864  26.996  -0.000  0.00  0.00    -0.196 N 
ATOM      7  HN  UNK N   1      40.883  25.976  -0.000  1.00  0.00     0.184 HD
HETATM    8  N   UNK N   1      42.021  29.049   0.000  0.00  0.00    -0.156 N 
HETATM    9  O   UNK N   1      40.832  30.952   0.000  0.00  0.00    -0.268 OA
HETATM   10  H   UNK N   1      43.271  26.014   0.000  0.00  0.00     0.174 HD
HETATM   11  H   UNK N   1      44.108  27.500   0.000  0.00  0.00     0.174 HD
HETATM   12  H   UNK N   1      42.871  29.545   0.000  0.00  0.00     0.187 HD
ENDROOT
BRANCH   5  13
HETATM   13  C   UNK N   1      38.379  26.910  -0.000  0.00  0.00     0.062 C 
BRANCH  13  14
HETATM   14  C   UNK N   1      38.498  25.388  -0.000  0.00  0.00     0.044 C 
BRANCH  14  15
HETATM   15  C   UNK N   1      37.141  24.742  -0.000  0.00  0.00    -0.056 A 
HETATM   16  C   UNK N   1      37.038  23.331  -0.000  0.00  0.00     0.008 A 
HETATM   17  C   UNK N   1      35.774  22.707   0.000  0.00  0.00     0.014 A 
HETATM   18  C   UNK N   1      34.646  23.525   0.000  0.00  0.00    -0.008 A 
HETATM   19  C   UNK N   1      33.310  23.205   0.000  0.00  0.00     0.030 A 
HETATM   20  C   UNK N   1      34.743  24.881   0.000  0.00  0.00     0.042 A 
HETATM   21  C   UNK N   1      32.642  24.432   0.000  0.00  0.00     0.089 A 
HETATM   22  N   UNK N   1      33.532  25.454   0.000  0.00  0.00    -0.365 N 
HETATM   23  H   UNK N   1      33.331  26.417   0.000  0.00  0.00     0.165 HD
HETATM   24  C   UNK N   1      35.966  25.528  -0.000  0.00  0.00     0.037 A 
ENDBRANCH  14  15
ENDBRANCH  13  14
ENDBRANCH   5  13
TORSDOF 3
