MODEL 1
REMARK VINA RESULT:      -7.4      0.000      0.000
REMARK  3 active torsions:
REMARK  status: ('A' for Active; 'I' for Inactive)
REMARK       I    between atoms: N_1  and  C_2 
REMARK    1  A    between atoms: C_5  and  C_6 
REMARK    2  A    between atoms: C_6  and  C_7 
REMARK    3  A    between atoms: C_7  and  C_8 
ROOT
HETATM    1  N   UNK N   1      33.369  15.288  10.464  0.00  0.00    -0.234 N 
HETATM    2  C   UNK N   1      33.476  16.196   9.395  0.00  0.00     0.678 A 
HETATM    3  C   UNK N   1      34.459  18.133   8.442  0.00  0.00     0.261 A 
HETATM    4  C   UNK N   1      33.683  17.973   7.301  0.00  0.00     0.100 A 
HETATM    5  C   UNK N   1      32.801  16.898   7.240  0.00  0.00     0.032 A 
HETATM    6  N   UNK N   1      32.711  16.030   8.283  0.00  0.00    -0.196 N 
ATOM      7  HN  UNK N   1      32.062  15.244   8.231  1.00  0.00     0.184 HD
HETATM    8  N   UNK N   1      34.344  17.240   9.475  0.00  0.00    -0.156 N 
HETATM    9  O   UNK N   1      35.239  19.064   8.521  0.00  0.00    -0.268 OA
HETATM   10  H   UNK N   1      32.741  14.532  10.407  0.00  0.00     0.174 HD
HETATM   11  H   UNK N   1      33.923  15.408  11.270  0.00  0.00     0.174 HD
HETATM   12  H   UNK N   1      34.895  17.355  10.282  0.00  0.00     0.187 HD
ENDROOT
BRANCH   5  13
HETATM   13  C   UNK N   1      31.974  16.736   6.015  0.00  0.00     0.062 C 
BRANCH  13  14
HETATM   14  C   UNK N   1      30.545  16.254   6.253  0.00  0.00     0.044 C 
BRANCH  14  15
HETATM   15  C   UNK N   1      29.575  17.401   6.198  0.00  0.00    -0.056 A 
HETATM   16  C   UNK N   1      29.076  17.952   7.402  0.00  0.00     0.008 A 
HETATM   17  C   UNK N   1      28.165  19.028   7.370  0.00  0.00     0.014 A 
HETATM   18  C   UNK N   1      27.781  19.518   6.124  0.00  0.00    -0.008 A 
HETATM   19  C   UNK N   1      26.925  20.539   5.790  0.00  0.00     0.030 A 
HETATM   20  C   UNK N   1      28.260  18.989   4.967  0.00  0.00     0.042 A 
HETATM   21  C   UNK N   1      26.930  20.576   4.393  0.00  0.00     0.089 A 
HETATM   22  N   UNK N   1      27.753  19.620   3.899  0.00  0.00    -0.365 N 
HETATM   23  H   UNK N   1      27.940  19.428   2.952  0.00  0.00     0.165 HD
HETATM   24  C   UNK N   1      29.155  17.934   4.958  0.00  0.00     0.037 A 
ENDBRANCH  14  15
ENDBRANCH  13  14
ENDBRANCH   5  13
TORSDOF 3
ENDMDL
MODEL 2
REMARK VINA RESULT:      -7.3      1.576      2.173
REMARK  3 active torsions:
REMARK  status: ('A' for Active; 'I' for Inactive)
REMARK       I    between atoms: N_1  and  C_2 
REMARK    1  A    between atoms: C_5  and  C_6 
REMARK    2  A    between atoms: C_6  and  C_7 
REMARK    3  A    between atoms: C_7  and  C_8 
ROOT
HETATM    1  N   UNK N   1      34.721  16.940  10.315  0.00  0.00    -0.234 N 
HETATM    2  C   UNK N   1      33.937  17.069   9.154  0.00  0.00     0.678 A 
HETATM    3  C   UNK N   1      33.782  17.473   6.822  0.00  0.00     0.261 A 
HETATM    4  C   UNK N   1      32.403  17.322   6.882  0.00  0.00     0.100 A 
HETATM    5  C   UNK N   1      31.815  17.040   8.111  0.00  0.00     0.032 A 
HETATM    6  N   UNK N   1      32.588  16.919   9.224  0.00  0.00    -0.196 N 
ATOM      7  HN  UNK N   1      32.150  16.713  10.122  1.00  0.00     0.184 HD
HETATM    8  N   UNK N   1      34.532  17.344   7.961  0.00  0.00    -0.156 N 
HETATM    9  O   UNK N   1      34.321  17.719   5.759  0.00  0.00    -0.268 OA
HETATM   10  H   UNK N   1      34.292  16.741  11.179  0.00  0.00     0.174 HD
HETATM   11  H   UNK N   1      35.699  17.049  10.265  0.00  0.00     0.174 HD
HETATM   12  H   UNK N   1      35.509  17.452   7.917  0.00  0.00     0.187 HD
ENDROOT
BRANCH   5  13
HETATM   13  C   UNK N   1      30.338  16.880   8.165  0.00  0.00     0.062 C 
BRANCH  13  14
HETATM   14  C   UNK N   1      29.653  16.701   6.813  0.00  0.00     0.044 C 
BRANCH  14  15
HETATM   15  C   UNK N   1      28.864  17.926   6.443  0.00  0.00    -0.056 A 
HETATM   16  C   UNK N   1      28.824  18.351   5.094  0.00  0.00     0.008 A 
HETATM   17  C   UNK N   1      28.089  19.497   4.728  0.00  0.00     0.014 A 
HETATM   18  C   UNK N   1      27.413  20.184   5.735  0.00  0.00    -0.008 A 
HETATM   19  C   UNK N   1      26.632  21.312   5.677  0.00  0.00     0.030 A 
HETATM   20  C   UNK N   1      27.451  19.777   7.031  0.00  0.00     0.042 A 
HETATM   21  C   UNK N   1      26.221  21.538   6.993  0.00  0.00     0.089 A 
HETATM   22  N   UNK N   1      26.730  20.589   7.816  0.00  0.00    -0.365 N 
HETATM   23  H   UNK N   1      26.598  20.512   8.788  0.00  0.00     0.165 HD
HETATM   24  C   UNK N   1      28.161  18.658   7.427  0.00  0.00     0.037 A 
ENDBRANCH  14  15
ENDBRANCH  13  14
ENDBRANCH   5  13
TORSDOF 3
ENDMDL
MODEL 3
REMARK VINA RESULT:      -6.9      6.786     11.509
REMARK  3 active torsions:
REMARK  status: ('A' for Active; 'I' for Inactive)
REMARK       I    between atoms: N_1  and  C_2 
REMARK    1  A    between atoms: C_5  and  C_6 
REMARK    2  A    between atoms: C_6  and  C_7 
REMARK    3  A    between atoms: C_7  and  C_8 
ROOT
HETATM    1  N   UNK N   1      32.738  13.966   9.434  0.00  0.00    -0.234 N 
HETATM    2  C   UNK N   1      33.782  14.516  10.200  0.00  0.00     0.678 A 
HETATM    3  C   UNK N   1      35.230  16.330  10.683  0.00  0.00     0.261 A 
HETATM    4  C   UNK N   1      35.824  15.593  11.699  0.00  0.00     0.100 A 
HETATM    5  C   UNK N   1      35.366  14.302  11.941  0.00  0.00     0.032 A 
HETATM    6  N   UNK N   1      34.356  13.785  11.192  0.00  0.00    -0.196 N 
ATOM      7  HN  UNK N   1      34.025  12.838  11.375  1.00  0.00     0.184 HD
HETATM    8  N   UNK N   1      34.215  15.780   9.946  0.00  0.00    -0.156 N 
HETATM    9  O   UNK N   1      35.612  17.462  10.450  0.00  0.00    -0.268 OA
HETATM   10  H   UNK N   1      32.423  13.050   9.616  0.00  0.00     0.174 HD
HETATM   11  H   UNK N   1      32.321  14.495   8.715  0.00  0.00     0.174 HD
HETATM   12  H   UNK N   1      33.795  16.305   9.227  0.00  0.00     0.187 HD
ENDROOT
BRANCH   5  13
HETATM   13  C   UNK N   1      36.008  13.521  13.031  0.00  0.00     0.062 C 
BRANCH  13  14
HETATM   14  C   UNK N   1      36.195  14.271  14.347  0.00  0.00     0.044 C 
BRANCH  14  15
HETATM   15  C   UNK N   1      35.957  13.363  15.522  0.00  0.00    -0.056 A 
HETATM   16  C   UNK N   1      36.005  11.961  15.343  0.00  0.00     0.008 A 
HETATM   17  C   UNK N   1      35.785  11.094  16.433  0.00  0.00     0.014 A 
HETATM   18  C   UNK N   1      35.522  11.667  17.675  0.00  0.00    -0.008 A 
HETATM   19  C   UNK N   1      35.273  11.083  18.894  0.00  0.00     0.030 A 
HETATM   20  C   UNK N   1      35.476  13.014  17.849  0.00  0.00     0.042 A 
HETATM   21  C   UNK N   1      35.081  12.149  19.776  0.00  0.00     0.089 A 
HETATM   22  N   UNK N   1      35.208  13.330  19.123  0.00  0.00    -0.365 N 
HETATM   23  H   UNK N   1      35.121  14.233  19.505  0.00  0.00     0.165 HD
HETATM   24  C   UNK N   1      35.686  13.895  16.803  0.00  0.00     0.037 A 
ENDBRANCH  14  15
ENDBRANCH  13  14
ENDBRANCH   5  13
TORSDOF 3
ENDMDL
MODEL 4
REMARK VINA RESULT:      -6.6      2.815      6.331
REMARK  3 active torsions:
REMARK  status: ('A' for Active; 'I' for Inactive)
REMARK       I    between atoms: N_1  and  C_2 
REMARK    1  A    between atoms: C_5  and  C_6 
REMARK    2  A    between atoms: C_6  and  C_7 
REMARK    3  A    between atoms: C_7  and  C_8 
ROOT
HETATM    1  N   UNK N   1      27.773  18.641   9.043  0.00  0.00    -0.234 N 
HETATM    2  C   UNK N   1      27.840  18.932   7.668  0.00  0.00     0.678 A 
HETATM    3  C   UNK N   1      27.295  20.346   5.844  0.00  0.00     0.261 A 
HETATM    4  C   UNK N   1      27.973  19.499   4.977  0.00  0.00     0.100 A 
HETATM    5  C   UNK N   1      28.582  18.361   5.497  0.00  0.00     0.032 A 
HETATM    6  N   UNK N   1      28.507  18.096   6.828  0.00  0.00    -0.196 N 
ATOM      7  HN  UNK N   1      28.956  17.260   7.202  1.00  0.00     0.184 HD
HETATM    8  N   UNK N   1      27.238  20.050   7.181  0.00  0.00    -0.156 N 
HETATM    9  O   UNK N   1      26.753  21.348   5.416  0.00  0.00    -0.268 OA
HETATM   10  H   UNK N   1      28.209  17.832   9.397  0.00  0.00     0.174 HD
HETATM   11  H   UNK N   1      27.290  19.246   9.652  0.00  0.00     0.174 HD
HETATM   12  H   UNK N   1      26.757  20.651   7.793  0.00  0.00     0.187 HD
ENDROOT
BRANCH   5  13
HETATM   13  C   UNK N   1      29.306  17.461   4.561  0.00  0.00     0.062 C 
BRANCH  13  14
HETATM   14  C   UNK N   1      29.977  16.253   5.208  0.00  0.00     0.044 C 
BRANCH  14  15
HETATM   15  C   UNK N   1      31.264  16.646   5.877  0.00  0.00    -0.056 A 
HETATM   16  C   UNK N   1      32.305  17.219   5.109  0.00  0.00     0.008 A 
HETATM   17  C   UNK N   1      33.519  17.594   5.720  0.00  0.00     0.014 A 
HETATM   18  C   UNK N   1      33.650  17.381   7.090  0.00  0.00    -0.008 A 
HETATM   19  C   UNK N   1      34.698  17.642   7.939  0.00  0.00     0.030 A 
HETATM   20  C   UNK N   1      32.651  16.830   7.830  0.00  0.00     0.042 A 
HETATM   21  C   UNK N   1      34.261  17.219   9.197  0.00  0.00     0.089 A 
HETATM   22  N   UNK N   1      33.003  16.722   9.118  0.00  0.00    -0.365 N 
HETATM   23  H   UNK N   1      32.460  16.358   9.853  0.00  0.00     0.165 HD
HETATM   24  C   UNK N   1      31.446  16.450   7.265  0.00  0.00     0.037 A 
ENDBRANCH  14  15
ENDBRANCH  13  14
ENDBRANCH   5  13
TORSDOF 3
ENDMDL
MODEL 5
REMARK VINA RESULT:      -6.6      9.596     11.879
REMARK  3 active torsions:
REMARK  status: ('A' for Active; 'I' for Inactive)
REMARK       I    between atoms: N_1  and  C_2 
REMARK    1  A    between atoms: C_5  and  C_6 
REMARK    2  A    between atoms: C_6  and  C_7 
REMARK    3  A    between atoms: C_7  and  C_8 
ROOT
HETATM    1  N   UNK N   1      19.250  17.111   1.125  0.00  0.00    -0.234 N 
HETATM    2  C   UNK N   1      19.982  18.029   1.900  0.00  0.00     0.678 A 
HETATM    3  C   UNK N   1      21.120  20.101   2.089  0.00  0.00     0.261 A 
HETATM    4  C   UNK N   1      21.415  19.825   3.418  0.00  0.00     0.100 A 
HETATM    5  C   UNK N   1      20.972  18.624   3.963  0.00  0.00     0.032 A 
HETATM    6  N   UNK N   1      20.266  17.748   3.200  0.00  0.00    -0.196 N 
ATOM      7  HN  UNK N   1      19.945  16.869   3.606  1.00  0.00     0.184 HD
HETATM    8  N   UNK N   1      20.406  19.197   1.347  0.00  0.00    -0.156 N 
HETATM    9  O   UNK N   1      21.495  21.145   1.587  0.00  0.00    -0.268 OA
HETATM   10  H   UNK N   1      18.943  16.264   1.524  0.00  0.00     0.174 HD
HETATM   11  H   UNK N   1      19.044  17.314   0.184  0.00  0.00     0.174 HD
HETATM   12  H   UNK N   1      20.197  19.396   0.406  0.00  0.00     0.187 HD
ENDROOT
BRANCH   5  13
HETATM   13  C   UNK N   1      21.294  18.337   5.386  0.00  0.00     0.062 C 
BRANCH  13  14
HETATM   14  C   UNK N   1      22.220  17.145   5.617  0.00  0.00     0.044 C 
BRANCH  14  15
HETATM   15  C   UNK N   1      21.749  16.314   6.777  0.00  0.00    -0.056 A 
HETATM   16  C   UNK N   1      20.690  16.783   7.589  0.00  0.00     0.008 A 
HETATM   17  C   UNK N   1      20.234  16.018   8.681  0.00  0.00     0.014 A 
HETATM   18  C   UNK N   1      20.860  14.797   8.925  0.00  0.00    -0.008 A 
HETATM   19  C   UNK N   1      20.633  13.855   9.899  0.00  0.00     0.030 A 
HETATM   20  C   UNK N   1      21.877  14.344   8.145  0.00  0.00     0.042 A 
HETATM   21  C   UNK N   1      21.561  12.842   9.648  0.00  0.00     0.089 A 
HETATM   22  N   UNK N   1      22.320  13.153   8.569  0.00  0.00    -0.365 N 
HETATM   23  H   UNK N   1      23.046  12.616   8.178  0.00  0.00     0.165 HD
HETATM   24  C   UNK N   1      22.351  15.068   7.066  0.00  0.00     0.037 A 
ENDBRANCH  14  15
ENDBRANCH  13  14
ENDBRANCH   5  13
TORSDOF 3
ENDMDL
MODEL 6
REMARK VINA RESULT:      -6.5      2.890      3.876
REMARK  3 active torsions:
REMARK  status: ('A' for Active; 'I' for Inactive)
REMARK       I    between atoms: N_1  and  C_2 
REMARK    1  A    between atoms: C_5  and  C_6 
REMARK    2  A    between atoms: C_6  and  C_7 
REMARK    3  A    between atoms: C_7  and  C_8 
ROOT
HETATM    1  N   UNK N   1      32.688  12.216   9.256  0.00  0.00    -0.234 N 
HETATM    2  C   UNK N   1      33.447  13.400   9.292  0.00  0.00     0.678 A 
HETATM    3  C   UNK N   1      34.729  14.975  10.517  0.00  0.00     0.261 A 
HETATM    4  C   UNK N   1      34.931  15.718   9.361  0.00  0.00     0.100 A 
HETATM    5  C   UNK N   1      34.368  15.267   8.171  0.00  0.00     0.032 A 
HETATM    6  N   UNK N   1      33.638  14.120   8.155  0.00  0.00    -0.196 N 
ATOM      7  HN  UNK N   1      33.228  13.795   7.279  1.00  0.00     0.184 HD
HETATM    8  N   UNK N   1      33.988  13.824  10.466  0.00  0.00    -0.156 N 
HETATM    9  O   UNK N   1      35.210  15.347  11.571  0.00  0.00    -0.268 OA
HETATM   10  H   UNK N   1      32.295  11.908   8.407  0.00  0.00     0.174 HD
HETATM   11  H   UNK N   1      32.549  11.694  10.080  0.00  0.00     0.174 HD
HETATM   12  H   UNK N   1      33.846  13.299  11.286  0.00  0.00     0.187 HD
ENDROOT
BRANCH   5  13
HETATM   13  C   UNK N   1      34.590  16.069   6.940  0.00  0.00     0.062 C 
BRANCH  13  14
HETATM   14  C   UNK N   1      34.061  17.500   6.990  0.00  0.00     0.044 C 
BRANCH  14  15
HETATM   15  C   UNK N   1      32.579  17.517   7.244  0.00  0.00    -0.056 A 
HETATM   16  C   UNK N   1      31.694  17.050   6.244  0.00  0.00     0.008 A 
HETATM   17  C   UNK N   1      30.301  17.058   6.463  0.00  0.00     0.014 A 
HETATM   18  C   UNK N   1      29.839  17.538   7.687  0.00  0.00    -0.008 A 
HETATM   19  C   UNK N   1      28.560  17.663   8.173  0.00  0.00     0.030 A 
HETATM   20  C   UNK N   1      30.689  17.987   8.649  0.00  0.00     0.042 A 
HETATM   21  C   UNK N   1      28.708  18.202   9.453  0.00  0.00     0.089 A 
HETATM   22  N   UNK N   1      30.020  18.397   9.735  0.00  0.00    -0.365 N 
HETATM   23  H   UNK N   1      30.401  18.763  10.564  0.00  0.00     0.165 HD
HETATM   24  C   UNK N   1      32.061  17.994   8.469  0.00  0.00     0.037 A 
ENDBRANCH  14  15
ENDBRANCH  13  14
ENDBRANCH   5  13
TORSDOF 3
ENDMDL
MODEL 7
REMARK VINA RESULT:      -6.4      4.922      8.442
REMARK  3 active torsions:
REMARK  status: ('A' for Active; 'I' for Inactive)
REMARK       I    between atoms: N_1  and  C_2 
REMARK    1  A    between atoms: C_5  and  C_6 
REMARK    2  A    between atoms: C_6  and  C_7 
REMARK    3  A    between atoms: C_7  and  C_8 
ROOT
HETATM    1  N   UNK N   1      22.803  17.373   5.798  0.00  0.00    -0.234 N 
HETATM    2  C   UNK N   1      23.132  18.361   4.852  0.00  0.00     0.678 A 
HETATM    3  C   UNK N   1      22.450  20.030   3.312  0.00  0.00     0.261 A 
HETATM    4  C   UNK N   1      23.777  20.294   3.001  0.00  0.00     0.100 A 
HETATM    5  C   UNK N   1      24.771  19.563   3.643  0.00  0.00     0.032 A 
HETATM    6  N   UNK N   1      24.436  18.611   4.555  0.00  0.00    -0.196 N 
ATOM      7  HN  UNK N   1      25.169  18.079   5.023  1.00  0.00     0.184 HD
HETATM    8  N   UNK N   1      22.145  19.065   4.235  0.00  0.00    -0.156 N 
HETATM    9  O   UNK N   1      21.561  20.655   2.764  0.00  0.00    -0.268 OA
HETATM   10  H   UNK N   1      23.517  16.863   6.245  0.00  0.00     0.174 HD
HETATM   11  H   UNK N   1      21.860  17.191   6.013  0.00  0.00     0.174 HD
HETATM   12  H   UNK N   1      21.204  18.879   4.454  0.00  0.00     0.187 HD
ENDROOT
BRANCH   5  13
HETATM   13  C   UNK N   1      26.189  19.853   3.304  0.00  0.00     0.062 C 
BRANCH  13  14
HETATM   14  C   UNK N   1      26.962  20.644   4.356  0.00  0.00     0.044 C 
BRANCH  14  15
HETATM   15  C   UNK N   1      27.619  19.723   5.346  0.00  0.00    -0.056 A 
HETATM   16  C   UNK N   1      28.573  18.780   4.897  0.00  0.00     0.008 A 
HETATM   17  C   UNK N   1      29.199  17.908   5.811  0.00  0.00     0.014 A 
HETATM   18  C   UNK N   1      28.846  18.011   7.155  0.00  0.00    -0.008 A 
HETATM   19  C   UNK N   1      29.283  17.307   8.250  0.00  0.00     0.030 A 
HETATM   20  C   UNK N   1      27.929  18.917   7.588  0.00  0.00     0.042 A 
HETATM   21  C   UNK N   1      28.580  17.845   9.332  0.00  0.00     0.089 A 
HETATM   22  N   UNK N   1      27.752  18.833   8.913  0.00  0.00    -0.365 N 
HETATM   23  H   UNK N   1      27.147  19.375   9.467  0.00  0.00     0.165 HD
HETATM   24  C   UNK N   1      27.294  19.789   6.720  0.00  0.00     0.037 A 
ENDBRANCH  14  15
ENDBRANCH  13  14
ENDBRANCH   5  13
TORSDOF 3
ENDMDL
MODEL 8
REMARK VINA RESULT:      -6.4     11.652     14.177
REMARK  3 active torsions:
REMARK  status: ('A' for Active; 'I' for Inactive)
REMARK       I    between atoms: N_1  and  C_2 
REMARK    1  A    between atoms: C_5  and  C_6 
REMARK    2  A    between atoms: C_6  and  C_7 
REMARK    3  A    between atoms: C_7  and  C_8 
ROOT
HETATM    1  N   UNK N   1      32.205  23.929  -5.545  0.00  0.00    -0.234 N 
HETATM    2  C   UNK N   1      31.074  23.749  -4.729  0.00  0.00     0.678 A 
HETATM    3  C   UNK N   1      30.136  23.311  -2.595  0.00  0.00     0.261 A 
HETATM    4  C   UNK N   1      28.859  23.397  -3.132  0.00  0.00     0.100 A 
HETATM    5  C   UNK N   1      28.723  23.665  -4.491  0.00  0.00     0.032 A 
HETATM    6  N   UNK N   1      29.828  23.836  -5.266  0.00  0.00    -0.196 N 
ATOM      7  HN  UNK N   1      29.721  24.032  -6.261  1.00  0.00     0.184 HD
HETATM    8  N   UNK N   1      31.228  23.488  -3.403  0.00  0.00    -0.156 N 
HETATM    9  O   UNK N   1      30.283  23.078  -1.410  0.00  0.00    -0.268 OA
HETATM   10  H   UNK N   1      32.095  24.118  -6.506  0.00  0.00     0.174 HD
HETATM   11  H   UNK N   1      33.109  23.867  -5.157  0.00  0.00     0.174 HD
HETATM   12  H   UNK N   1      32.133  23.427  -3.020  0.00  0.00     0.187 HD
ENDROOT
BRANCH   5  13
HETATM   13  C   UNK N   1      27.351  23.755  -5.057  0.00  0.00     0.062 C 
BRANCH  13  14
HETATM   14  C   UNK N   1      26.340  24.508  -4.195  0.00  0.00     0.044 C 
BRANCH  14  15
HETATM   15  C   UNK N   1      26.489  25.994  -4.364  0.00  0.00    -0.056 A 
HETATM   16  C   UNK N   1      26.466  26.556  -5.662  0.00  0.00     0.008 A 
HETATM   17  C   UNK N   1      26.605  27.947  -5.840  0.00  0.00     0.014 A 
HETATM   18  C   UNK N   1      26.763  28.735  -4.702  0.00  0.00    -0.008 A 
HETATM   19  C   UNK N   1      26.917  30.094  -4.570  0.00  0.00     0.030 A 
HETATM   20  C   UNK N   1      26.785  28.197  -3.454  0.00  0.00     0.042 A 
HETATM   21  C   UNK N   1      27.029  30.315  -3.195  0.00  0.00     0.089 A 
HETATM   22  N   UNK N   1      26.946  29.143  -2.520  0.00  0.00    -0.365 N 
HETATM   23  H   UNK N   1      26.995  29.014  -1.546  0.00  0.00     0.165 HD
HETATM   24  C   UNK N   1      26.652  26.836  -3.240  0.00  0.00     0.037 A 
ENDBRANCH  14  15
ENDBRANCH  13  14
ENDBRANCH   5  13
TORSDOF 3
ENDMDL
MODEL 9
REMARK VINA RESULT:      -6.4      6.180     10.251
REMARK  3 active torsions:
REMARK  status: ('A' for Active; 'I' for Inactive)
REMARK       I    between atoms: N_1  and  C_2 
REMARK    1  A    between atoms: C_5  and  C_6 
REMARK    2  A    between atoms: C_6  and  C_7 
REMARK    3  A    between atoms: C_7  and  C_8 
ROOT
HETATM    1  N   UNK N   1      19.172  17.245   0.974  0.00  0.00    -0.234 N 
HETATM    2  C   UNK N   1      19.957  17.819   1.991  0.00  0.00     0.678 A 
HETATM    3  C   UNK N   1      20.475  19.668   3.382  0.00  0.00     0.261 A 
HETATM    4  C   UNK N   1      21.495  18.940   3.981  0.00  0.00     0.100 A 
HETATM    5  C   UNK N   1      21.722  17.635   3.554  0.00  0.00     0.032 A 
HETATM    6  N   UNK N   1      20.953  17.096   2.570  0.00  0.00    -0.196 N 
ATOM      7  HN  UNK N   1      21.125  16.139   2.262  1.00  0.00     0.184 HD
HETATM    8  N   UNK N   1      19.719  19.096   2.393  0.00  0.00    -0.156 N 
HETATM    9  O   UNK N   1      20.255  20.811   3.737  0.00  0.00    -0.268 OA
HETATM   10  H   UNK N   1      19.343  16.320   0.682  0.00  0.00     0.174 HD
HETATM   11  H   UNK N   1      18.450  17.768   0.554  0.00  0.00     0.174 HD
HETATM   12  H   UNK N   1      18.997  19.614   1.971  0.00  0.00     0.187 HD
ENDROOT
BRANCH   5  13
HETATM   13  C   UNK N   1      22.816  16.863   4.201  0.00  0.00     0.062 C 
BRANCH  13  14
HETATM   14  C   UNK N   1      24.151  16.882   3.461  0.00  0.00     0.044 C 
BRANCH  14  15
HETATM   15  C   UNK N   1      25.031  17.990   3.966  0.00  0.00    -0.056 A 
HETATM   16  C   UNK N   1      25.126  19.197   3.234  0.00  0.00     0.008 A 
HETATM   17  C   UNK N   1      25.947  20.248   3.692  0.00  0.00     0.014 A 
HETATM   18  C   UNK N   1      26.650  20.052   4.879  0.00  0.00    -0.008 A 
HETATM   19  C   UNK N   1      27.510  20.883   5.555  0.00  0.00     0.030 A 
HETATM   20  C   UNK N   1      26.560  18.893   5.584  0.00  0.00     0.042 A 
HETATM   21  C   UNK N   1      27.911  20.155   6.678  0.00  0.00     0.089 A 
HETATM   22  N   UNK N   1      27.322  18.935   6.685  0.00  0.00    -0.365 N 
HETATM   23  H   UNK N   1      27.430  18.227   7.359  0.00  0.00     0.165 HD
HETATM   24  C   UNK N   1      25.765  17.841   5.165  0.00  0.00     0.037 A 
ENDBRANCH  14  15
ENDBRANCH  13  14
ENDBRANCH   5  13
TORSDOF 3
ENDMDL
