MODEL 1
REMARK VINA RESULT:      -7.6      0.000      0.000
REMARK  11 active torsions:
REMARK  status: ('A' for Active; 'I' for Inactive)
REMARK    1  A    between atoms: C_1  and  N_18 
REMARK    2  A    between atoms: C_1  and  C_2 
REMARK    3  A    between atoms: C_3  and  C_4 
REMARK    4  A    between atoms: C_4  and  C_6 
REMARK    5  A    between atoms: C_6  and  C_7 
REMARK    6  A    between atoms: C_8  and  O_29 
REMARK    7  A    between atoms: C_11  and  C_8 
REMARK    8  A    between atoms: C_9  and  C_10 
REMARK       I    between atoms: N_28  and  C_10 
REMARK    9  A    between atoms: C_13  and  C_11 
REMARK   10  A    between atoms: C_11  and  N_28 
REMARK       I    between atoms: C_13  and  N_30 
REMARK   11  A    between atoms: O_32  and  N_30 
ROOT
HETATM    1  C   UNK N   1      26.792  17.985   3.854  0.00  0.00     0.009 C 
HETATM    2  C   UNK N   1      24.040  18.269   3.872  0.00  0.00     0.032 C 
HETATM    3  C   UNK N   1      26.231  19.258   3.837  0.00  0.00     0.021 C 
HETATM    4  C   UNK N   1      26.003  16.853   3.716  0.00  0.00     0.021 C 
HETATM    5  C   UNK N   1      24.862  19.400   3.847  0.00  0.00     0.018 C 
HETATM    6  C   UNK N   1      24.616  17.005   3.707  0.00  0.00     0.018 C 
ENDROOT
BRANCH   1   7
HETATM    7  C   UNK N   1      28.152  17.929   4.208  0.00  0.00    -0.116 C 
BRANCH   7   8
HETATM    8  C   UNK N   1      29.222  17.639   4.632  0.00  0.00     0.068 C 
BRANCH   8   9
HETATM    9  C   UNK N   1      30.260  17.508   5.559  0.00  0.00    -0.029 A 
HETATM   10  C   UNK N   1      31.589  17.287   5.196  0.00  0.00     0.012 A 
HETATM   11  C   UNK N   1      32.490  16.867   6.185  0.00  0.00     0.010 A 
HETATM   12  C   UNK N   1      32.042  16.712   7.510  0.00  0.00    -0.030 A 
HETATM   13  C   UNK N   1      30.727  16.996   7.850  0.00  0.00     0.010 A 
HETATM   14  C   UNK N   1      29.840  17.378   6.875  0.00  0.00     0.012 A 
BRANCH  12  15
HETATM   15  C   UNK N   1      32.857  16.006   8.530  0.00  0.00     0.311 C 
BRANCH  15  16
HETATM   16  N   UNK N   1      34.292  16.316   8.379  0.00  0.00     0.096 N 
HETATM   17  C   UNK N   1      35.138  15.159   7.993  0.00  0.00     0.299 C 
HETATM   18  C   UNK N   1      35.353  14.202   9.170  0.00  0.00     0.198 C 
HETATM   19  O   UNK N   1      35.977  14.898  10.214  0.00  0.00    -0.388 OA
HETATM   20  C   UNK N   1      35.023  15.813  10.693  0.00  0.00     0.198 C 
HETATM   21  C   UNK N   1      34.776  16.900   9.634  0.00  0.00     0.299 C 
ENDBRANCH  15  16
ENDBRANCH  12  15
ENDBRANCH   8   9
ENDBRANCH   7   8
ENDBRANCH   1   7
BRANCH   2  22
HETATM   22  C   UNK N   1      22.684  18.459   4.444  0.00  0.00     0.252 C 
HETATM   23  O   UNK N   1      22.591  18.446   5.663  0.00  0.00    -0.268 OA
HETATM   24  N   UNK N   1      21.520  18.520   3.736  0.00  0.00    -0.341 N 
HETATM   25  H   UNK N   1      20.722  18.346   4.287  0.00  0.00     0.163 HD
BRANCH  24  26
HETATM   26  C   UNK N   1      21.202  18.786   2.340  0.00  0.00     0.207 C 
BRANCH  26  27
HETATM   27  C   UNK N   1      19.935  17.964   1.995  0.00  0.00     0.146 C 
HETATM   28  C   UNK N   1      19.880  16.610   2.669  0.00  0.00     0.042 C 
BRANCH  27  29
HETATM   29  O   UNK N   1      18.805  18.678   2.409  0.00  0.00    -0.393 OA
HETATM   30  H   UNK N   1      18.900  19.515   2.889  0.00  0.00     0.210 HD
ENDBRANCH  27  29
ENDBRANCH  26  27
BRANCH  26  31
HETATM   31  C   UNK N   1      21.246  20.256   1.875  0.00  0.00     0.266 C 
HETATM   32  N   UNK N   1      20.798  21.259   2.673  0.00  0.00    -0.236 N 
HETATM   33  H   UNK N   1      20.901  22.190   2.371  0.00  0.00     0.197 HD
HETATM   34  O   UNK N   1      21.582  20.541   0.739  0.00  0.00    -0.269 OA
BRANCH  32  35
HETATM   35  O   UNK N   1      20.220  21.022   3.858  0.00  0.00    -0.287 OA
HETATM   36  H   UNK N   1      20.195  20.149   4.280  0.00  0.00     0.244 HD
ENDBRANCH  32  35
ENDBRANCH  26  31
ENDBRANCH  24  26
ENDBRANCH   2  22
TORSDOF 11
ENDMDL
MODEL 2
REMARK VINA RESULT:      -7.4      1.729     12.436
REMARK  11 active torsions:
REMARK  status: ('A' for Active; 'I' for Inactive)
REMARK    1  A    between atoms: C_1  and  N_18 
REMARK    2  A    between atoms: C_1  and  C_2 
REMARK    3  A    between atoms: C_3  and  C_4 
REMARK    4  A    between atoms: C_4  and  C_6 
REMARK    5  A    between atoms: C_6  and  C_7 
REMARK    6  A    between atoms: C_8  and  O_29 
REMARK    7  A    between atoms: C_11  and  C_8 
REMARK    8  A    between atoms: C_9  and  C_10 
REMARK       I    between atoms: N_28  and  C_10 
REMARK    9  A    between atoms: C_13  and  C_11 
REMARK   10  A    between atoms: C_11  and  N_28 
REMARK       I    between atoms: C_13  and  N_30 
REMARK   11  A    between atoms: O_32  and  N_30 
ROOT
HETATM    1  C   UNK N   1      30.386  17.569   4.986  0.00  0.00     0.009 C 
HETATM    2  C   UNK N   1      32.745  16.899   6.270  0.00  0.00     0.032 C 
HETATM    3  C   UNK N   1      30.349  17.091   6.292  0.00  0.00     0.021 C 
HETATM    4  C   UNK N   1      31.566  17.562   4.257  0.00  0.00     0.021 C 
HETATM    5  C   UNK N   1      31.521  16.760   6.932  0.00  0.00     0.018 C 
HETATM    6  C   UNK N   1      32.749  17.206   4.905  0.00  0.00     0.018 C 
ENDROOT
BRANCH   1   7
HETATM    7  C   UNK N   1      29.219  18.218   4.545  0.00  0.00    -0.116 C 
BRANCH   7   8
HETATM    8  C   UNK N   1      28.251  18.893   4.425  0.00  0.00     0.068 C 
BRANCH   8   9
HETATM    9  C   UNK N   1      26.893  19.216   4.363  0.00  0.00    -0.029 A 
HETATM   10  C   UNK N   1      25.896  18.466   4.990  0.00  0.00     0.012 A 
HETATM   11  C   UNK N   1      24.562  18.687   4.620  0.00  0.00     0.010 A 
HETATM   12  C   UNK N   1      24.263  19.671   3.659  0.00  0.00    -0.030 A 
HETATM   13  C   UNK N   1      25.272  20.440   3.096  0.00  0.00     0.010 A 
HETATM   14  C   UNK N   1      26.579  20.201   3.438  0.00  0.00     0.012 A 
BRANCH  12  15
HETATM   15  C   UNK N   1      22.926  19.756   3.021  0.00  0.00     0.311 C 
BRANCH  15  16
HETATM   16  N   UNK N   1      21.882  19.166   3.883  0.00  0.00     0.096 N 
HETATM   17  C   UNK N   1      21.532  17.761   3.558  0.00  0.00     0.299 C 
HETATM   18  C   UNK N   1      20.688  17.673   2.282  0.00  0.00     0.198 C 
HETATM   19  O   UNK N   1      19.509  18.409   2.464  0.00  0.00    -0.388 OA
HETATM   20  C   UNK N   1      19.901  19.757   2.517  0.00  0.00     0.198 C 
HETATM   21  C   UNK N   1      20.688  20.015   3.812  0.00  0.00     0.299 C 
ENDBRANCH  15  16
ENDBRANCH  12  15
ENDBRANCH   8   9
ENDBRANCH   7   8
ENDBRANCH   1   7
BRANCH   2  22
HETATM   22  C   UNK N   1      33.937  17.086   7.133  0.00  0.00     0.252 C 
HETATM   23  O   UNK N   1      34.412  18.211   7.186  0.00  0.00    -0.268 OA
HETATM   24  N   UNK N   1      34.625  16.094   7.769  0.00  0.00    -0.341 N 
HETATM   25  H   UNK N   1      35.535  16.363   8.034  0.00  0.00     0.163 HD
BRANCH  24  26
HETATM   26  C   UNK N   1      34.304  14.723   8.141  0.00  0.00     0.207 C 
BRANCH  26  27
HETATM   27  C   UNK N   1      35.647  13.982   8.359  0.00  0.00     0.146 C 
HETATM   28  C   UNK N   1      36.622  14.128   7.211  0.00  0.00     0.042 C 
BRANCH  27  29
HETATM   29  O   UNK N   1      36.271  14.502   9.498  0.00  0.00    -0.393 OA
HETATM   30  H   UNK N   1      37.093  15.011   9.421  0.00  0.00     0.210 HD
ENDBRANCH  27  29
ENDBRANCH  26  27
BRANCH  26  31
HETATM   31  C   UNK N   1      33.198  14.520   9.196  0.00  0.00     0.266 C 
HETATM   32  N   UNK N   1      33.196  15.225  10.356  0.00  0.00    -0.236 N 
HETATM   33  H   UNK N   1      32.440  15.117  10.977  0.00  0.00     0.197 HD
HETATM   34  O   UNK N   1      32.363  13.643   9.062  0.00  0.00    -0.269 OA
BRANCH  32  35
HETATM   35  O   UNK N   1      34.188  16.063  10.682  0.00  0.00    -0.287 OA
HETATM   36  H   UNK N   1      34.098  17.029  10.684  0.00  0.00     0.244 HD
ENDBRANCH  32  35
ENDBRANCH  26  31
ENDBRANCH  24  26
ENDBRANCH   2  22
TORSDOF 11
ENDMDL
MODEL 3
REMARK VINA RESULT:      -7.4      1.731      2.448
REMARK  11 active torsions:
REMARK  status: ('A' for Active; 'I' for Inactive)
REMARK    1  A    between atoms: C_1  and  N_18 
REMARK    2  A    between atoms: C_1  and  C_2 
REMARK    3  A    between atoms: C_3  and  C_4 
REMARK    4  A    between atoms: C_4  and  C_6 
REMARK    5  A    between atoms: C_6  and  C_7 
REMARK    6  A    between atoms: C_8  and  O_29 
REMARK    7  A    between atoms: C_11  and  C_8 
REMARK    8  A    between atoms: C_9  and  C_10 
REMARK       I    between atoms: N_28  and  C_10 
REMARK    9  A    between atoms: C_13  and  C_11 
REMARK   10  A    between atoms: C_11  and  N_28 
REMARK       I    between atoms: C_13  and  N_30 
REMARK   11  A    between atoms: O_32  and  N_30 
ROOT
HETATM    1  C   UNK N   1      25.715  18.522   4.785  0.00  0.00     0.009 C 
HETATM    2  C   UNK N   1      23.077  18.465   3.953  0.00  0.00     0.032 C 
HETATM    3  C   UNK N   1      25.181  19.616   4.113  0.00  0.00     0.021 C 
HETATM    4  C   UNK N   1      25.002  17.338   4.904  0.00  0.00     0.021 C 
HETATM    5  C   UNK N   1      23.868  19.589   3.700  0.00  0.00     0.018 C 
HETATM    6  C   UNK N   1      23.678  17.310   4.466  0.00  0.00     0.018 C 
ENDROOT
BRANCH   1   7
HETATM    7  C   UNK N   1      26.913  18.765   5.481  0.00  0.00    -0.116 C 
BRANCH   7   8
HETATM    8  C   UNK N   1      27.838  18.750   6.223  0.00  0.00     0.068 C 
BRANCH   8   9
HETATM    9  C   UNK N   1      28.852  18.216   7.024  0.00  0.00    -0.029 A 
HETATM   10  C   UNK N   1      29.122  18.663   8.319  0.00  0.00     0.012 A 
HETATM   11  C   UNK N   1      30.335  18.287   8.914  0.00  0.00     0.010 A 
HETATM   12  C   UNK N   1      31.223  17.451   8.212  0.00  0.00    -0.030 A 
HETATM   13  C   UNK N   1      30.898  16.976   6.949  0.00  0.00     0.010 A 
HETATM   14  C   UNK N   1      29.725  17.370   6.356  0.00  0.00     0.012 A 
BRANCH  12  15
HETATM   15  C   UNK N   1      32.624  17.253   8.659  0.00  0.00     0.311 C 
BRANCH  15  16
HETATM   16  N   UNK N   1      33.134  15.928   8.256  0.00  0.00     0.096 N 
HETATM   17  C   UNK N   1      32.827  14.831   9.206  0.00  0.00     0.299 C 
HETATM   18  C   UNK N   1      33.704  14.913  10.461  0.00  0.00     0.198 C 
HETATM   19  O   UNK N   1      35.051  14.827  10.081  0.00  0.00    -0.388 OA
HETATM   20  C   UNK N   1      35.334  16.020   9.394  0.00  0.00     0.198 C 
HETATM   21  C   UNK N   1      34.583  16.031   8.052  0.00  0.00     0.299 C 
ENDBRANCH  15  16
ENDBRANCH  12  15
ENDBRANCH   8   9
ENDBRANCH   7   8
ENDBRANCH   1   7
BRANCH   2  22
HETATM   22  C   UNK N   1      21.613  18.697   4.018  0.00  0.00     0.252 C 
HETATM   23  O   UNK N   1      21.241  19.749   4.517  0.00  0.00    -0.268 OA
HETATM   24  N   UNK N   1      20.645  17.792   3.690  0.00  0.00    -0.341 N 
HETATM   25  H   UNK N   1      19.765  18.010   4.077  0.00  0.00     0.163 HD
BRANCH  24  26
HETATM   26  C   UNK N   1      20.633  16.574   2.893  0.00  0.00     0.207 C 
BRANCH  26  27
HETATM   27  C   UNK N   1      19.931  15.482   3.738  0.00  0.00     0.146 C 
HETATM   28  C   UNK N   1      19.137  16.025   4.906  0.00  0.00     0.042 C 
BRANCH  27  29
HETATM   29  O   UNK N   1      19.037  14.782   2.921  0.00  0.00    -0.393 OA
HETATM   30  H   UNK N   1      19.302  13.949   2.501  0.00  0.00     0.210 HD
ENDBRANCH  27  29
ENDBRANCH  26  27
BRANCH  26  31
HETATM   31  C   UNK N   1      20.222  16.705   1.413  0.00  0.00     0.266 C 
HETATM   32  N   UNK N   1      19.251  17.573   1.028  0.00  0.00    -0.236 N 
HETATM   33  H   UNK N   1      19.059  17.677   0.068  0.00  0.00     0.197 HD
HETATM   34  O   UNK N   1      20.679  15.954   0.569  0.00  0.00    -0.269 OA
BRANCH  32  35
HETATM   35  O   UNK N   1      18.546  18.291   1.911  0.00  0.00    -0.287 OA
HETATM   36  H   UNK N   1      18.894  18.580   2.770  0.00  0.00     0.244 HD
ENDBRANCH  32  35
ENDBRANCH  26  31
ENDBRANCH  24  26
ENDBRANCH   2  22
TORSDOF 11
ENDMDL
MODEL 4
REMARK VINA RESULT:      -7.3      1.682     12.883
REMARK  11 active torsions:
REMARK  status: ('A' for Active; 'I' for Inactive)
REMARK    1  A    between atoms: C_1  and  N_18 
REMARK    2  A    between atoms: C_1  and  C_2 
REMARK    3  A    between atoms: C_3  and  C_4 
REMARK    4  A    between atoms: C_4  and  C_6 
REMARK    5  A    between atoms: C_6  and  C_7 
REMARK    6  A    between atoms: C_8  and  O_29 
REMARK    7  A    between atoms: C_11  and  C_8 
REMARK    8  A    between atoms: C_9  and  C_10 
REMARK       I    between atoms: N_28  and  C_10 
REMARK    9  A    between atoms: C_13  and  C_11 
REMARK   10  A    between atoms: C_11  and  N_28 
REMARK       I    between atoms: C_13  and  N_30 
REMARK   11  A    between atoms: O_32  and  N_30 
ROOT
HETATM    1  C   UNK N   1      30.229  16.647   7.006  0.00  0.00     0.009 C 
HETATM    2  C   UNK N   1      32.897  16.175   7.568  0.00  0.00     0.032 C 
HETATM    3  C   UNK N   1      30.890  17.445   7.934  0.00  0.00     0.021 C 
HETATM    4  C   UNK N   1      30.834  15.516   6.476  0.00  0.00     0.021 C 
HETATM    5  C   UNK N   1      32.217  17.212   8.213  0.00  0.00     0.018 C 
HETATM    6  C   UNK N   1      32.174  15.274   6.778  0.00  0.00     0.018 C 
ENDROOT
BRANCH   1   7
HETATM    7  C   UNK N   1      29.017  17.166   6.515  0.00  0.00    -0.116 C 
BRANCH   7   8
HETATM    8  C   UNK N   1      28.168  17.768   5.948  0.00  0.00     0.068 C 
BRANCH   8   9
HETATM    9  C   UNK N   1      26.938  18.007   5.327  0.00  0.00    -0.029 A 
HETATM   10  C   UNK N   1      26.476  19.285   5.007  0.00  0.00     0.012 A 
HETATM   11  C   UNK N   1      25.122  19.441   4.677  0.00  0.00     0.010 A 
HETATM   12  C   UNK N   1      24.281  18.312   4.644  0.00  0.00    -0.030 A 
HETATM   13  C   UNK N   1      24.785  17.047   4.911  0.00  0.00     0.010 A 
HETATM   14  C   UNK N   1      26.103  16.901   5.263  0.00  0.00     0.012 A 
BRANCH  12  15
HETATM   15  C   UNK N   1      22.805  18.443   4.585  0.00  0.00     0.311 C 
BRANCH  15  16
HETATM   16  N   UNK N   1      22.331  18.566   3.193  0.00  0.00     0.096 N 
HETATM   17  C   UNK N   1      21.775  19.897   2.843  0.00  0.00     0.299 C 
HETATM   18  C   UNK N   1      20.384  20.103   3.453  0.00  0.00     0.198 C 
HETATM   19  O   UNK N   1      19.524  19.106   2.973  0.00  0.00    -0.388 OA
HETATM   20  C   UNK N   1      19.970  17.903   3.546  0.00  0.00     0.198 C 
HETATM   21  C   UNK N   1      21.333  17.520   2.947  0.00  0.00     0.299 C 
ENDBRANCH  15  16
ENDBRANCH  12  15
ENDBRANCH   8   9
ENDBRANCH   7   8
ENDBRANCH   1   7
BRANCH   2  22
HETATM   22  C   UNK N   1      34.369  16.326   7.460  0.00  0.00     0.252 C 
HETATM   23  O   UNK N   1      34.786  17.065   6.580  0.00  0.00    -0.268 OA
HETATM   24  N   UNK N   1      35.298  15.620   8.167  0.00  0.00    -0.341 N 
HETATM   25  H   UNK N   1      36.193  15.637   7.754  0.00  0.00     0.163 HD
BRANCH  24  26
HETATM   26  C   UNK N   1      35.253  14.847   9.400  0.00  0.00     0.207 C 
BRANCH  26  27
HETATM   27  C   UNK N   1      36.653  14.213   9.594  0.00  0.00     0.146 C 
HETATM   28  C   UNK N   1      37.347  13.851   8.299  0.00  0.00     0.042 C 
BRANCH  27  29
HETATM   29  O   UNK N   1      37.475  15.127  10.262  0.00  0.00    -0.393 OA
HETATM   30  H   UNK N   1      38.436  15.116  10.126  0.00  0.00     0.210 HD
ENDBRANCH  27  29
ENDBRANCH  26  27
BRANCH  26  31
HETATM   31  C   UNK N   1      34.596  15.513  10.625  0.00  0.00     0.266 C 
HETATM   32  N   UNK N   1      34.869  16.801  10.955  0.00  0.00    -0.236 N 
HETATM   33  H   UNK N   1      34.383  17.214  11.705  0.00  0.00     0.197 HD
HETATM   34  O   UNK N   1      33.902  14.866  11.390  0.00  0.00    -0.269 OA
BRANCH  32  35
HETATM   35  O   UNK N   1      35.778  17.529  10.293  0.00  0.00    -0.287 OA
HETATM   36  H   UNK N   1      35.997  18.447  10.517  0.00  0.00     0.244 HD
ENDBRANCH  32  35
ENDBRANCH  26  31
ENDBRANCH  24  26
ENDBRANCH   2  22
TORSDOF 11
ENDMDL
MODEL 5
REMARK VINA RESULT:      -7.2      3.823     12.307
REMARK  11 active torsions:
REMARK  status: ('A' for Active; 'I' for Inactive)
REMARK    1  A    between atoms: C_1  and  N_18 
REMARK    2  A    between atoms: C_1  and  C_2 
REMARK    3  A    between atoms: C_3  and  C_4 
REMARK    4  A    between atoms: C_4  and  C_6 
REMARK    5  A    between atoms: C_6  and  C_7 
REMARK    6  A    between atoms: C_8  and  O_29 
REMARK    7  A    between atoms: C_11  and  C_8 
REMARK    8  A    between atoms: C_9  and  C_10 
REMARK       I    between atoms: N_28  and  C_10 
REMARK    9  A    between atoms: C_13  and  C_11 
REMARK   10  A    between atoms: C_11  and  N_28 
REMARK       I    between atoms: C_13  and  N_30 
REMARK   11  A    between atoms: O_32  and  N_30 
ROOT
HETATM    1  C   UNK N   1      30.918  16.915   6.575  0.00  0.00     0.009 C 
HETATM    2  C   UNK N   1      33.164  17.980   7.793  0.00  0.00     0.032 C 
HETATM    3  C   UNK N   1      32.098  17.046   5.850  0.00  0.00     0.021 C 
HETATM    4  C   UNK N   1      30.796  17.457   7.847  0.00  0.00     0.021 C 
HETATM    5  C   UNK N   1      33.216  17.574   6.456  0.00  0.00     0.018 C 
HETATM    6  C   UNK N   1      31.927  18.009   8.448  0.00  0.00     0.018 C 
ENDROOT
BRANCH   1   7
HETATM    7  C   UNK N   1      29.958  16.052   6.018  0.00  0.00    -0.116 C 
BRANCH   7   8
HETATM    8  C   UNK N   1      28.966  15.510   5.658  0.00  0.00     0.068 C 
BRANCH   8   9
HETATM    9  C   UNK N   1      27.602  15.214   5.582  0.00  0.00    -0.029 A 
HETATM   10  C   UNK N   1      26.959  14.859   4.395  0.00  0.00     0.012 A 
HETATM   11  C   UNK N   1      25.557  14.883   4.363  0.00  0.00     0.010 A 
HETATM   12  C   UNK N   1      24.843  15.228   5.525  0.00  0.00    -0.030 A 
HETATM   13  C   UNK N   1      25.511  15.520   6.706  0.00  0.00     0.010 A 
HETATM   14  C   UNK N   1      26.883  15.525   6.727  0.00  0.00     0.012 A 
BRANCH  12  15
HETATM   15  C   UNK N   1      23.395  15.548   5.483  0.00  0.00     0.311 C 
BRANCH  15  16
HETATM   16  N   UNK N   1      22.732  15.211   6.758  0.00  0.00     0.096 N 
HETATM   17  C   UNK N   1      22.214  13.823   6.838  0.00  0.00     0.299 C 
HETATM   18  C   UNK N   1      20.942  13.649   6.001  0.00  0.00     0.198 C 
HETATM   19  O   UNK N   1      19.962  14.532   6.473  0.00  0.00    -0.388 OA
HETATM   20  C   UNK N   1      20.411  15.821   6.140  0.00  0.00     0.198 C 
HETATM   21  C   UNK N   1      21.647  16.170   6.986  0.00  0.00     0.299 C 
ENDBRANCH  15  16
ENDBRANCH  12  15
ENDBRANCH   8   9
ENDBRANCH   7   8
ENDBRANCH   1   7
BRANCH   2  22
HETATM   22  C   UNK N   1      34.454  17.985   8.525  0.00  0.00     0.252 C 
HETATM   23  O   UNK N   1      35.155  18.979   8.405  0.00  0.00    -0.268 OA
HETATM   24  N   UNK N   1      34.985  16.934   9.213  0.00  0.00    -0.341 N 
HETATM   25  H   UNK N   1      35.955  17.023   9.367  0.00  0.00     0.163 HD
BRANCH  24  26
HETATM   26  C   UNK N   1      34.429  15.708   9.769  0.00  0.00     0.207 C 
BRANCH  26  27
HETATM   27  C   UNK N   1      34.431  14.651   8.637  0.00  0.00     0.146 C 
HETATM   28  C   UNK N   1      35.669  14.684   7.768  0.00  0.00     0.042 C 
BRANCH  27  29
HETATM   29  O   UNK N   1      34.362  13.376   9.209  0.00  0.00    -0.393 OA
HETATM   30  H   UNK N   1      34.743  12.609   8.752  0.00  0.00     0.210 HD
ENDBRANCH  27  29
ENDBRANCH  26  27
BRANCH  26  31
HETATM   31  C   UNK N   1      34.940  15.270  11.156  0.00  0.00     0.266 C 
HETATM   32  N   UNK N   1      36.217  15.514  11.544  0.00  0.00    -0.236 N 
HETATM   33  H   UNK N   1      36.491  15.278  12.460  0.00  0.00     0.197 HD
HETATM   34  O   UNK N   1      34.242  14.595  11.893  0.00  0.00    -0.269 OA
BRANCH  32  35
HETATM   35  O   UNK N   1      37.119  16.066  10.722  0.00  0.00    -0.287 OA
HETATM   36  H   UNK N   1      37.574  16.903  10.907  0.00  0.00     0.244 HD
ENDBRANCH  32  35
ENDBRANCH  26  31
ENDBRANCH  24  26
ENDBRANCH   2  22
TORSDOF 11
ENDMDL
MODEL 6
REMARK VINA RESULT:      -7.2      4.214     12.376
REMARK  11 active torsions:
REMARK  status: ('A' for Active; 'I' for Inactive)
REMARK    1  A    between atoms: C_1  and  N_18 
REMARK    2  A    between atoms: C_1  and  C_2 
REMARK    3  A    between atoms: C_3  and  C_4 
REMARK    4  A    between atoms: C_4  and  C_6 
REMARK    5  A    between atoms: C_6  and  C_7 
REMARK    6  A    between atoms: C_8  and  O_29 
REMARK    7  A    between atoms: C_11  and  C_8 
REMARK    8  A    between atoms: C_9  and  C_10 
REMARK       I    between atoms: N_28  and  C_10 
REMARK    9  A    between atoms: C_13  and  C_11 
REMARK   10  A    between atoms: C_11  and  N_28 
REMARK       I    between atoms: C_13  and  N_30 
REMARK   11  A    between atoms: O_32  and  N_30 
ROOT
HETATM    1  C   UNK N   1      30.871  17.029   6.668  0.00  0.00     0.009 C 
HETATM    2  C   UNK N   1      33.171  18.023   7.843  0.00  0.00     0.032 C 
HETATM    3  C   UNK N   1      32.026  17.174   5.907  0.00  0.00     0.021 C 
HETATM    4  C   UNK N   1      30.800  17.524   7.962  0.00  0.00     0.021 C 
HETATM    5  C   UNK N   1      33.171  17.667   6.491  0.00  0.00     0.018 C 
HETATM    6  C   UNK N   1      31.959  18.041   8.543  0.00  0.00     0.018 C 
ENDROOT
BRANCH   1   7
HETATM    7  C   UNK N   1      29.882  16.197   6.114  0.00  0.00    -0.116 C 
BRANCH   7   8
HETATM    8  C   UNK N   1      29.231  15.478   5.431  0.00  0.00     0.068 C 
BRANCH   8   9
HETATM    9  C   UNK N   1      28.270  15.101   4.488  0.00  0.00    -0.029 A 
HETATM   10  C   UNK N   1      28.351  15.435   3.135  0.00  0.00     0.012 A 
HETATM   11  C   UNK N   1      27.206  15.281   2.341  0.00  0.00     0.010 A 
HETATM   12  C   UNK N   1      26.028  14.767   2.914  0.00  0.00    -0.030 A 
HETATM   13  C   UNK N   1      25.997  14.390   4.249  0.00  0.00     0.010 A 
HETATM   14  C   UNK N   1      27.110  14.570   5.032  0.00  0.00     0.012 A 
BRANCH  12  15
HETATM   15  C   UNK N   1      24.722  14.848   2.214  0.00  0.00     0.311 C 
BRANCH  15  16
HETATM   16  N   UNK N   1      23.965  13.587   2.342  0.00  0.00     0.096 N 
HETATM   17  C   UNK N   1      24.221  12.600   1.264  0.00  0.00     0.299 C 
HETATM   18  C   UNK N   1      23.537  13.009  -0.046  0.00  0.00     0.198 C 
HETATM   19  O   UNK N   1      22.156  13.103   0.172  0.00  0.00    -0.388 OA
HETATM   20  C   UNK N   1      21.973  14.216   1.010  0.00  0.00     0.198 C 
HETATM   21  C   UNK N   1      22.536  13.906   2.407  0.00  0.00     0.299 C 
ENDBRANCH  15  16
ENDBRANCH  12  15
ENDBRANCH   8   9
ENDBRANCH   7   8
ENDBRANCH   1   7
BRANCH   2  22
HETATM   22  C   UNK N   1      34.487  17.987   8.528  0.00  0.00     0.252 C 
HETATM   23  O   UNK N   1      35.191  18.982   8.427  0.00  0.00    -0.268 OA
HETATM   24  N   UNK N   1      35.033  16.903   9.151  0.00  0.00    -0.341 N 
HETATM   25  H   UNK N   1      36.008  16.979   9.274  0.00  0.00     0.163 HD
BRANCH  24  26
HETATM   26  C   UNK N   1      34.487  15.658   9.672  0.00  0.00     0.207 C 
BRANCH  26  27
HETATM   27  C   UNK N   1      34.612  14.598   8.549  0.00  0.00     0.146 C 
HETATM   28  C   UNK N   1      33.297  14.238   7.895  0.00  0.00     0.042 C 
BRANCH  27  29
HETATM   29  O   UNK N   1      35.449  15.099   7.546  0.00  0.00    -0.393 OA
HETATM   30  H   UNK N   1      36.363  14.783   7.463  0.00  0.00     0.210 HD
ENDBRANCH  27  29
ENDBRANCH  26  27
BRANCH  26  31
HETATM   31  C   UNK N   1      34.912  15.244  11.095  0.00  0.00     0.266 C 
HETATM   32  N   UNK N   1      36.169  15.481  11.549  0.00  0.00    -0.236 N 
HETATM   33  H   UNK N   1      36.387  15.262  12.484  0.00  0.00     0.197 HD
HETATM   34  O   UNK N   1      34.164  14.594  11.805  0.00  0.00    -0.269 OA
BRANCH  32  35
HETATM   35  O   UNK N   1      37.122  16.004  10.768  0.00  0.00    -0.287 OA
HETATM   36  H   UNK N   1      36.990  16.223   9.832  0.00  0.00     0.244 HD
ENDBRANCH  32  35
ENDBRANCH  26  31
ENDBRANCH  24  26
ENDBRANCH   2  22
TORSDOF 11
ENDMDL
MODEL 7
REMARK VINA RESULT:      -7.2      2.393     13.444
REMARK  11 active torsions:
REMARK  status: ('A' for Active; 'I' for Inactive)
REMARK    1  A    between atoms: C_1  and  N_18 
REMARK    2  A    between atoms: C_1  and  C_2 
REMARK    3  A    between atoms: C_3  and  C_4 
REMARK    4  A    between atoms: C_4  and  C_6 
REMARK    5  A    between atoms: C_6  and  C_7 
REMARK    6  A    between atoms: C_8  and  O_29 
REMARK    7  A    between atoms: C_11  and  C_8 
REMARK    8  A    between atoms: C_9  and  C_10 
REMARK       I    between atoms: N_28  and  C_10 
REMARK    9  A    between atoms: C_13  and  C_11 
REMARK   10  A    between atoms: C_11  and  N_28 
REMARK       I    between atoms: C_13  and  N_30 
REMARK   11  A    between atoms: O_32  and  N_30 
ROOT
HETATM    1  C   UNK N   1      32.075  16.523   8.158  0.00  0.00     0.009 C 
HETATM    2  C   UNK N   1      34.557  16.203   9.338  0.00  0.00     0.032 C 
HETATM    3  C   UNK N   1      32.275  15.495   9.073  0.00  0.00     0.021 C 
HETATM    4  C   UNK N   1      33.136  17.290   7.700  0.00  0.00     0.021 C 
HETATM    5  C   UNK N   1      33.509  15.336   9.662  0.00  0.00     0.018 C 
HETATM    6  C   UNK N   1      34.390  17.112   8.287  0.00  0.00     0.018 C 
ENDROOT
BRANCH   1   7
HETATM    7  C   UNK N   1      30.731  16.841   7.890  0.00  0.00    -0.116 C 
BRANCH   7   8
HETATM    8  C   UNK N   1      29.714  17.317   7.509  0.00  0.00     0.068 C 
BRANCH   8   9
HETATM    9  C   UNK N   1      28.862  18.221   6.868  0.00  0.00    -0.029 A 
HETATM   10  C   UNK N   1      28.298  19.327   7.506  0.00  0.00     0.012 A 
HETATM   11  C   UNK N   1      27.232  19.987   6.878  0.00  0.00     0.010 A 
HETATM   12  C   UNK N   1      26.786  19.543   5.619  0.00  0.00    -0.030 A 
HETATM   13  C   UNK N   1      27.407  18.476   4.984  0.00  0.00     0.010 A 
HETATM   14  C   UNK N   1      28.430  17.813   5.614  0.00  0.00     0.012 A 
BRANCH  12  15
HETATM   15  C   UNK N   1      25.501  20.005   5.040  0.00  0.00     0.311 C 
BRANCH  15  16
HETATM   16  N   UNK N   1      25.218  19.336   3.755  0.00  0.00     0.096 N 
HETATM   17  C   UNK N   1      24.867  20.253   2.643  0.00  0.00     0.299 C 
HETATM   18  C   UNK N   1      23.445  20.805   2.797  0.00  0.00     0.198 C 
HETATM   19  O   UNK N   1      22.541  19.735   2.811  0.00  0.00    -0.388 OA
HETATM   20  C   UNK N   1      22.771  19.052   4.018  0.00  0.00     0.198 C 
HETATM   21  C   UNK N   1      24.143  18.361   3.965  0.00  0.00     0.299 C 
ENDBRANCH  15  16
ENDBRANCH  12  15
ENDBRANCH   8   9
ENDBRANCH   7   8
ENDBRANCH   1   7
BRANCH   2  22
HETATM   22  C   UNK N   1      35.619  16.357  10.363  0.00  0.00     0.252 C 
HETATM   23  O   UNK N   1      35.931  17.499  10.669  0.00  0.00    -0.268 OA
HETATM   24  N   UNK N   1      36.363  15.348  10.899  0.00  0.00    -0.341 N 
HETATM   25  H   UNK N   1      37.197  15.663  11.319  0.00  0.00     0.163 HD
BRANCH  24  26
HETATM   26  C   UNK N   1      36.192  13.904  10.984  0.00  0.00     0.207 C 
BRANCH  26  27
HETATM   27  C   UNK N   1      37.533  13.258  10.554  0.00  0.00     0.146 C 
HETATM   28  C   UNK N   1      38.374  14.135   9.651  0.00  0.00     0.042 C 
BRANCH  27  29
HETATM   29  O   UNK N   1      38.294  12.990  11.697  0.00  0.00    -0.393 OA
HETATM   30  H   UNK N   1      39.214  12.693  11.617  0.00  0.00     0.210 HD
ENDBRANCH  27  29
ENDBRANCH  26  27
BRANCH  26  31
HETATM   31  C   UNK N   1      35.507  13.350  12.250  0.00  0.00     0.266 C 
HETATM   32  N   UNK N   1      35.829  13.816  13.484  0.00  0.00    -0.236 N 
HETATM   33  H   UNK N   1      35.327  13.485  14.263  0.00  0.00     0.197 HD
HETATM   34  O   UNK N   1      34.743  12.403  12.182  0.00  0.00    -0.269 OA
BRANCH  32  35
HETATM   35  O   UNK N   1      36.807  14.710  13.675  0.00  0.00    -0.287 OA
HETATM   36  H   UNK N   1      37.179  15.260  12.968  0.00  0.00     0.244 HD
ENDBRANCH  32  35
ENDBRANCH  26  31
ENDBRANCH  24  26
ENDBRANCH   2  22
TORSDOF 11
ENDMDL
MODEL 8
REMARK VINA RESULT:      -7.1      3.098     12.176
REMARK  11 active torsions:
REMARK  status: ('A' for Active; 'I' for Inactive)
REMARK    1  A    between atoms: C_1  and  N_18 
REMARK    2  A    between atoms: C_1  and  C_2 
REMARK    3  A    between atoms: C_3  and  C_4 
REMARK    4  A    between atoms: C_4  and  C_6 
REMARK    5  A    between atoms: C_6  and  C_7 
REMARK    6  A    between atoms: C_8  and  O_29 
REMARK    7  A    between atoms: C_11  and  C_8 
REMARK    8  A    between atoms: C_9  and  C_10 
REMARK       I    between atoms: N_28  and  C_10 
REMARK    9  A    between atoms: C_13  and  C_11 
REMARK   10  A    between atoms: C_11  and  N_28 
REMARK       I    between atoms: C_13  and  N_30 
REMARK   11  A    between atoms: O_32  and  N_30 
ROOT
HETATM    1  C   UNK N   1      30.313  17.206   6.847  0.00  0.00     0.009 C 
HETATM    2  C   UNK N   1      32.842  17.726   7.842  0.00  0.00     0.032 C 
HETATM    3  C   UNK N   1      31.421  17.080   6.014  0.00  0.00     0.021 C 
HETATM    4  C   UNK N   1      30.433  17.745   8.120  0.00  0.00     0.021 C 
HETATM    5  C   UNK N   1      32.679  17.337   6.509  0.00  0.00     0.018 C 
HETATM    6  C   UNK N   1      31.710  18.022   8.609  0.00  0.00     0.018 C 
ENDROOT
BRANCH   1   7
HETATM    7  C   UNK N   1      29.137  16.586   6.388  0.00  0.00    -0.116 C 
BRANCH   7   8
HETATM    8  C   UNK N   1      28.047  16.138   6.256  0.00  0.00     0.068 C 
BRANCH   8   9
HETATM    9  C   UNK N   1      26.650  16.090   6.283  0.00  0.00    -0.029 A 
HETATM   10  C   UNK N   1      25.930  15.130   6.997  0.00  0.00     0.012 A 
HETATM   11  C   UNK N   1      24.564  14.977   6.718  0.00  0.00     0.010 A 
HETATM   12  C   UNK N   1      23.955  15.809   5.760  0.00  0.00    -0.030 A 
HETATM   13  C   UNK N   1      24.686  16.793   5.110  0.00  0.00     0.010 A 
HETATM   14  C   UNK N   1      26.029  16.920   5.362  0.00  0.00     0.012 A 
BRANCH  12  15
HETATM   15  C   UNK N   1      22.606  15.513   5.218  0.00  0.00     0.311 C 
BRANCH  15  16
HETATM   16  N   UNK N   1      21.645  16.582   5.556  0.00  0.00     0.096 N 
HETATM   17  C   UNK N   1      21.273  16.650   6.991  0.00  0.00     0.299 C 
HETATM   18  C   UNK N   1      20.319  15.514   7.378  0.00  0.00     0.198 C 
HETATM   19  O   UNK N   1      19.158  15.610   6.598  0.00  0.00    -0.388 OA
HETATM   20  C   UNK N   1      19.548  15.291   5.287  0.00  0.00     0.198 C 
HETATM   21  C   UNK N   1      20.446  16.408   4.730  0.00  0.00     0.299 C 
ENDBRANCH  15  16
ENDBRANCH  12  15
ENDBRANCH   8   9
ENDBRANCH   7   8
ENDBRANCH   1   7
BRANCH   2  22
HETATM   22  C   UNK N   1      34.164  17.434   8.450  0.00  0.00     0.252 C 
HETATM   23  O   UNK N   1      34.829  18.392   8.816  0.00  0.00    -0.268 OA
HETATM   24  N   UNK N   1      34.755  16.207   8.522  0.00  0.00    -0.341 N 
HETATM   25  H   UNK N   1      35.727  16.254   8.676  0.00  0.00     0.163 HD
BRANCH  24  26
HETATM   26  C   UNK N   1      34.260  14.841   8.420  0.00  0.00     0.207 C 
BRANCH  26  27
HETATM   27  C   UNK N   1      35.393  13.906   8.912  0.00  0.00     0.146 C 
HETATM   28  C   UNK N   1      36.475  14.613   9.697  0.00  0.00     0.042 C 
BRANCH  27  29
HETATM   29  O   UNK N   1      34.843  12.931   9.751  0.00  0.00    -0.393 OA
HETATM   30  H   UNK N   1      34.987  11.989   9.573  0.00  0.00     0.210 HD
ENDBRANCH  27  29
ENDBRANCH  26  27
BRANCH  26  31
HETATM   31  C   UNK N   1      32.834  14.569   8.939  0.00  0.00     0.266 C 
HETATM   32  N   UNK N   1      32.507  14.784  10.239  0.00  0.00    -0.236 N 
HETATM   33  H   UNK N   1      31.572  14.661  10.521  0.00  0.00     0.197 HD
HETATM   34  O   UNK N   1      31.998  14.049   8.222  0.00  0.00    -0.269 OA
BRANCH  32  35
HETATM   35  O   UNK N   1      33.415  15.158  11.150  0.00  0.00    -0.287 OA
HETATM   36  H   UNK N   1      34.225  14.659  11.338  0.00  0.00     0.244 HD
ENDBRANCH  32  35
ENDBRANCH  26  31
ENDBRANCH  24  26
ENDBRANCH   2  22
TORSDOF 11
ENDMDL
MODEL 9
REMARK VINA RESULT:      -7.1      9.122     16.971
REMARK  11 active torsions:
REMARK  status: ('A' for Active; 'I' for Inactive)
REMARK    1  A    between atoms: C_1  and  N_18 
REMARK    2  A    between atoms: C_1  and  C_2 
REMARK    3  A    between atoms: C_3  and  C_4 
REMARK    4  A    between atoms: C_4  and  C_6 
REMARK    5  A    between atoms: C_6  and  C_7 
REMARK    6  A    between atoms: C_8  and  O_29 
REMARK    7  A    between atoms: C_11  and  C_8 
REMARK    8  A    between atoms: C_9  and  C_10 
REMARK       I    between atoms: N_28  and  C_10 
REMARK    9  A    between atoms: C_13  and  C_11 
REMARK   10  A    between atoms: C_11  and  N_28 
REMARK       I    between atoms: C_13  and  N_30 
REMARK   11  A    between atoms: O_32  and  N_30 
ROOT
HETATM    1  C   UNK N   1      35.959  12.053  15.275  0.00  0.00     0.009 C 
HETATM    2  C   UNK N   1      35.187  12.067  17.932  0.00  0.00     0.032 C 
HETATM    3  C   UNK N   1      35.060  13.013  15.726  0.00  0.00     0.021 C 
HETATM    4  C   UNK N   1      36.352  11.002  16.091  0.00  0.00     0.021 C 
HETATM    5  C   UNK N   1      34.676  13.022  17.048  0.00  0.00     0.018 C 
HETATM    6  C   UNK N   1      35.945  11.005  17.425  0.00  0.00     0.018 C 
ENDROOT
BRANCH   1   7
HETATM    7  C   UNK N   1      36.570  12.329  14.038  0.00  0.00    -0.116 C 
BRANCH   7   8
HETATM    8  C   UNK N   1      36.818  12.558  12.901  0.00  0.00     0.068 C 
BRANCH   8   9
HETATM    9  C   UNK N   1      36.606  12.978  11.585  0.00  0.00    -0.029 A 
HETATM   10  C   UNK N   1      37.571  13.645  10.828  0.00  0.00     0.012 A 
HETATM   11  C   UNK N   1      37.167  14.289   9.650  0.00  0.00     0.010 A 
HETATM   12  C   UNK N   1      35.820  14.219   9.248  0.00  0.00    -0.030 A 
HETATM   13  C   UNK N   1      34.897  13.498   9.992  0.00  0.00     0.010 A 
HETATM   14  C   UNK N   1      35.288  12.894  11.160  0.00  0.00     0.012 A 
BRANCH  12  15
HETATM   15  C   UNK N   1      35.278  15.101   8.186  0.00  0.00     0.311 C 
BRANCH  15  16
HETATM   16  N   UNK N   1      34.042  15.776   8.628  0.00  0.00     0.096 N 
HETATM   17  C   UNK N   1      33.059  16.040   7.548  0.00  0.00     0.299 C 
HETATM   18  C   UNK N   1      33.507  17.200   6.652  0.00  0.00     0.198 C 
HETATM   19  O   UNK N   1      33.645  18.353   7.436  0.00  0.00    -0.388 OA
HETATM   20  C   UNK N   1      34.754  18.122   8.268  0.00  0.00     0.198 C 
HETATM   21  C   UNK N   1      34.409  17.030   9.294  0.00  0.00     0.299 C 
ENDBRANCH  15  16
ENDBRANCH  12  15
ENDBRANCH   8   9
ENDBRANCH   7   8
ENDBRANCH   1   7
BRANCH   2  22
HETATM   22  C   UNK N   1      35.211  12.451  19.365  0.00  0.00     0.252 C 
HETATM   23  O   UNK N   1      35.263  13.646  19.617  0.00  0.00    -0.268 OA
HETATM   24  N   UNK N   1      35.309  11.591  20.420  0.00  0.00    -0.341 N 
HETATM   25  H   UNK N   1      35.610  12.029  21.249  0.00  0.00     0.163 HD
BRANCH  24  26
HETATM   26  C   UNK N   1      35.064  10.165  20.584  0.00  0.00     0.207 C 
BRANCH  26  27
HETATM   27  C   UNK N   1      36.172   9.616  21.518  0.00  0.00     0.146 C 
HETATM   28  C   UNK N   1      37.548  10.180  21.236  0.00  0.00     0.042 C 
BRANCH  27  29
HETATM   29  O   UNK N   1      35.854   9.945  22.840  0.00  0.00    -0.393 OA
HETATM   30  H   UNK N   1      36.411   9.635  23.572  0.00  0.00     0.210 HD
ENDBRANCH  27  29
ENDBRANCH  26  27
BRANCH  26  31
HETATM   31  C   UNK N   1      33.613   9.727  20.865  0.00  0.00     0.266 C 
HETATM   32  N   UNK N   1      32.829  10.412  21.737  0.00  0.00    -0.236 N 
HETATM   33  H   UNK N   1      31.888  10.143  21.844  0.00  0.00     0.197 HD
HETATM   34  O   UNK N   1      33.172   8.693  20.397  0.00  0.00    -0.269 OA
BRANCH  32  35
HETATM   35  O   UNK N   1      33.294  11.441  22.457  0.00  0.00    -0.287 OA
HETATM   36  H   UNK N   1      33.093  11.575  23.396  0.00  0.00     0.244 HD
ENDBRANCH  32  35
ENDBRANCH  26  31
ENDBRANCH  24  26
ENDBRANCH   2  22
TORSDOF 11
ENDMDL
