REMARK  7 active torsions:
REMARK  status: ('A' for Active; 'I' for Inactive)
REMARK    1  A    between atoms: C_5  and  C_6 
REMARK    2  A    between atoms: C_6  and  C_7 
REMARK    3  A    between atoms: C_7  and  N_8 
REMARK       I    between atoms: N_8  and  C_9 
REMARK    4  A    between atoms: C_9  and  C_11 
REMARK    5  A    between atoms: C_17  and  C_18 
REMARK       I    between atoms: C_18  and  N_20 
REMARK    6  A    between atoms: N_20  and  C_21 
REMARK    7  A    between atoms: C_24  and  N_25 
ROOT
HETATM    1  C   UNK N   1       0.365   1.250   0.030  0.00  0.00     0.033 A 
HETATM    2  C   UNK N   1       1.660   0.774   0.012  0.00  0.00     0.034 A 
HETATM    3  C   UNK N   1       0.165   2.638   0.040  0.00  0.00     0.017 A 
HETATM    4  C   UNK N   1       1.278   3.504   0.032  0.00  0.00     0.009 A 
HETATM    5  C   UNK N   1       2.592   2.991   0.014  0.00  0.00    -0.046 A 
HETATM    6  C   UNK N   1       3.739   3.944   0.006  0.00  0.00     0.049 C 
HETATM    7  C   UNK N   1       2.783   1.592   0.004  0.00  0.00     0.039 A 
ENDROOT
BRANCH   7   8
HETATM    8  C   UNK N   1       4.076   0.860  -0.010  0.00  0.00     0.256 C 
HETATM    9  O   UNK N   1       5.155   1.437  -0.015  0.00  0.00    -0.267 OA
HETATM   10  N   UNK N   1       3.995  -0.497  -0.012  0.00  0.00    -0.322 N 
HETATM   11  H   UNK N   1       3.074  -0.844  -0.013  0.00  0.00     0.169 HD
BRANCH  10  12
HETATM   12  C   UNK N   1       4.986  -1.502  -0.012  0.00  0.00     0.050 A 
HETATM   13  C   UNK N   1       6.358  -1.234  -0.008  0.00  0.00     0.119 A 
HETATM   14  N   UNK N   1       7.246  -2.270  -0.002  0.00  0.00    -0.351 N 
HETATM   15  C   UNK N   1       6.830  -3.569  -0.001  0.00  0.00     0.098 A 
ATOM     16  HN  UNK N   1       8.246  -2.068   0.000  1.00  0.00     0.166 HD
HETATM   17  C   UNK N   1       5.470  -3.868  -0.005  0.00  0.00     0.050 A 
HETATM   18  C   UNK N   1       4.552  -2.828  -0.010  0.00  0.00     0.035 A 
BRANCH  15  19
HETATM   19  N   UNK N   1       7.772  -4.614   0.005  0.00  0.00    -0.385 N 
HETATM   20  H   UNK N   1       7.468  -5.551   0.010  0.00  0.00     0.157 HD
HETATM   21  H   UNK N   1       8.735  -4.409   0.005  0.00  0.00     0.157 HD
ENDBRANCH  15  19
ENDBRANCH  10  12
ENDBRANCH   7   8
BRANCH   1  22
HETATM   22  C   UNK N   1      -0.703   0.210   0.028  0.00  0.00     0.251 C 
HETATM   23  N   UNK N   1      -2.027   0.469   0.044  0.00  0.00    -0.357 N 
HETATM   24  H   UNK N   1      -2.622  -0.315   0.015  0.00  0.00     0.162 HD
HETATM   25  O   UNK N   1      -0.362  -0.964  -0.002  0.00  0.00    -0.268 OA
BRANCH  23  26
HETATM   26  C   UNK N   1      -2.673   1.749   0.098  0.00  0.00     0.123 C 
BRANCH  26  27
HETATM   27  C   UNK N   1      -4.123   1.588  -0.371  0.00  0.00     0.024 C 
BRANCH  27  28
HETATM   28  C   UNK N   1      -4.865   0.413   0.283  0.00  0.00    -0.013 C 
HETATM   29  C   UNK N   1      -6.333   0.446  -0.060  0.00  0.00     0.005 C 
HETATM   30  C   UNK N   1      -6.808  -0.986   0.122  0.00  0.00     0.000 C 
HETATM   31  C   UNK N   1      -5.572  -1.867   0.043  0.00  0.00     0.000 C 
HETATM   32  C   UNK N   1      -4.420  -0.934  -0.254  0.00  0.00     0.005 C 
ENDBRANCH  27  28
ENDBRANCH  26  27
ENDBRANCH  23  26
ENDBRANCH   1  22
TORSDOF 7
