MODEL 1
REMARK VINA RESULT:      -8.0      0.000      0.000
REMARK  7 active torsions:
REMARK  status: ('A' for Active; 'I' for Inactive)
REMARK    1  A    between atoms: C_5  and  C_6 
REMARK    2  A    between atoms: C_6  and  C_7 
REMARK    3  A    between atoms: C_7  and  N_8 
REMARK       I    between atoms: N_8  and  C_9 
REMARK    4  A    between atoms: C_9  and  C_11 
REMARK    5  A    between atoms: C_17  and  C_18 
REMARK       I    between atoms: C_18  and  N_20 
REMARK    6  A    between atoms: N_20  and  C_21 
REMARK    7  A    between atoms: C_24  and  N_25 
ROOT
HETATM    1  C   UNK N   1      35.991  15.302  10.822  0.00  0.00     0.033 A 
HETATM    2  C   UNK N   1      35.539  14.785  12.019  0.00  0.00     0.034 A 
HETATM    3  C   UNK N   1      37.009  14.618  10.142  0.00  0.00     0.017 A 
HETATM    4  C   UNK N   1      37.540  13.432  10.690  0.00  0.00     0.009 A 
HETATM    5  C   UNK N   1      37.060  12.925  11.916  0.00  0.00    -0.046 A 
HETATM    6  C   UNK N   1      37.652  11.668  12.458  0.00  0.00     0.049 C 
HETATM    7  C   UNK N   1      36.035  13.621  12.593  0.00  0.00     0.039 A 
ENDROOT
BRANCH   7   8
HETATM    8  C   UNK N   1      35.402  13.257  13.887  0.00  0.00     0.256 C 
HETATM    9  O   UNK N   1      34.340  12.653  13.949  0.00  0.00    -0.267 OA
HETATM   10  N   UNK N   1      36.075  13.629  15.008  0.00  0.00    -0.322 N 
HETATM   11  H   UNK N   1      36.914  14.113  14.830  0.00  0.00     0.169 HD
BRANCH  10  12
HETATM   12  C   UNK N   1      35.797  13.451  16.380  0.00  0.00     0.050 A 
HETATM   13  C   UNK N   1      35.728  14.503  17.298  0.00  0.00     0.119 A 
HETATM   14  N   UNK N   1      35.446  14.237  18.606  0.00  0.00    -0.351 N 
HETATM   15  C   UNK N   1      35.229  12.965  19.047  0.00  0.00     0.098 A 
ATOM     16  HN  UNK N   1      35.399  15.009  19.271  1.00  0.00     0.166 HD
HETATM   17  C   UNK N   1      35.290  11.896  18.157  0.00  0.00     0.050 A 
HETATM   18  C   UNK N   1      35.574  12.146  16.823  0.00  0.00     0.035 A 
BRANCH  15  19
HETATM   19  N   UNK N   1      34.941  12.725  20.403  0.00  0.00    -0.385 N 
HETATM   20  H   UNK N   1      34.013  12.787  20.728  0.00  0.00     0.157 HD
HETATM   21  H   UNK N   1      35.666  12.497  21.028  0.00  0.00     0.157 HD
ENDBRANCH  15  19
ENDBRANCH  10  12
ENDBRANCH   7   8
BRANCH   1  22
HETATM   22  C   UNK N   1      35.324  16.557  10.371  0.00  0.00     0.251 C 
HETATM   23  N   UNK N   1      34.180  16.604   9.658  0.00  0.00    -0.357 N 
HETATM   24  H   UNK N   1      33.837  17.503   9.448  0.00  0.00     0.162 HD
HETATM   25  O   UNK N   1      35.840  17.623  10.675  0.00  0.00    -0.268 OA
BRANCH  23  26
HETATM   26  C   UNK N   1      33.401  15.503   9.168  0.00  0.00     0.123 C 
BRANCH  26  27
HETATM   27  C   UNK N   1      33.634  15.370   7.659  0.00  0.00     0.024 C 
BRANCH  27  28
HETATM   28  C   UNK N   1      33.108  16.556   6.838  0.00  0.00    -0.013 C 
HETATM   29  C   UNK N   1      33.853  16.680   5.533  0.00  0.00     0.005 C 
HETATM   30  C   UNK N   1      32.912  17.445   4.617  0.00  0.00     0.000 C 
HETATM   31  C   UNK N   1      31.516  17.283   5.197  0.00  0.00     0.000 C 
HETATM   32  C   UNK N   1      31.670  16.371   6.392  0.00  0.00     0.005 C 
ENDBRANCH  27  28
ENDBRANCH  26  27
ENDBRANCH  23  26
ENDBRANCH   1  22
TORSDOF 7
ENDMDL
MODEL 2
REMARK VINA RESULT:      -8.0     18.468     21.847
REMARK  7 active torsions:
REMARK  status: ('A' for Active; 'I' for Inactive)
REMARK    1  A    between atoms: C_5  and  C_6 
REMARK    2  A    between atoms: C_6  and  C_7 
REMARK    3  A    between atoms: C_7  and  N_8 
REMARK       I    between atoms: N_8  and  C_9 
REMARK    4  A    between atoms: C_9  and  C_11 
REMARK    5  A    between atoms: C_17  and  C_18 
REMARK       I    between atoms: C_18  and  N_20 
REMARK    6  A    between atoms: N_20  and  C_21 
REMARK    7  A    between atoms: C_24  and  N_25 
ROOT
HETATM    1  C   UNK N   1      26.974  28.436  -3.424  0.00  0.00     0.033 A 
HETATM    2  C   UNK N   1      27.387  27.133  -3.233  0.00  0.00     0.034 A 
HETATM    3  C   UNK N   1      25.940  28.680  -4.338  0.00  0.00     0.017 A 
HETATM    4  C   UNK N   1      25.353  27.603  -5.034  0.00  0.00     0.009 A 
HETATM    5  C   UNK N   1      25.795  26.280  -4.821  0.00  0.00    -0.046 A 
HETATM    6  C   UNK N   1      25.146  25.171  -5.578  0.00  0.00     0.049 C 
HETATM    7  C   UNK N   1      26.837  26.044  -3.897  0.00  0.00     0.039 A 
ENDROOT
BRANCH   7   8
HETATM    8  C   UNK N   1      27.443  24.736  -3.538  0.00  0.00     0.256 C 
HETATM    9  O   UNK N   1      26.907  23.958  -2.760  0.00  0.00    -0.267 OA
HETATM   10  N   UNK N   1      28.632  24.445  -4.129  0.00  0.00    -0.322 N 
HETATM   11  H   UNK N   1      28.964  25.150  -4.730  0.00  0.00     0.169 HD
BRANCH  10  12
HETATM   12  C   UNK N   1      29.479  23.319  -4.043  0.00  0.00     0.050 A 
HETATM   13  C   UNK N   1      30.298  23.051  -2.942  0.00  0.00     0.119 A 
HETATM   14  N   UNK N   1      31.081  21.933  -2.942  0.00  0.00    -0.351 N 
HETATM   15  C   UNK N   1      31.088  21.065  -3.993  0.00  0.00     0.098 A 
ATOM     16  HN  UNK N   1      31.677  21.744  -2.136  1.00  0.00     0.166 HD
HETATM   17  C   UNK N   1      30.283  21.304  -5.104  0.00  0.00     0.050 A 
HETATM   18  C   UNK N   1      29.479  22.434  -5.122  0.00  0.00     0.035 A 
BRANCH  15  19
HETATM   19  N   UNK N   1      31.907  19.921  -3.962  0.00  0.00    -0.385 N 
HETATM   20  H   UNK N   1      31.948  19.323  -4.743  0.00  0.00     0.157 HD
HETATM   21  H   UNK N   1      32.439  19.719  -3.158  0.00  0.00     0.157 HD
ENDBRANCH  15  19
ENDBRANCH  10  12
ENDBRANCH   7   8
BRANCH   1  22
HETATM   22  C   UNK N   1      27.685  29.462  -2.609  0.00  0.00     0.251 C 
HETATM   23  N   UNK N   1      28.438  30.459  -3.118  0.00  0.00    -0.357 N 
HETATM   24  H   UNK N   1      28.831  31.082  -2.465  0.00  0.00     0.162 HD
HETATM   25  O   UNK N   1      27.573  29.410  -1.393  0.00  0.00    -0.268 OA
BRANCH  23  26
HETATM   26  C   UNK N   1      28.737  30.722  -4.497  0.00  0.00     0.123 C 
BRANCH  26  27
HETATM   27  C   UNK N   1      29.939  29.867  -4.911  0.00  0.00     0.024 C 
BRANCH  27  28
HETATM   28  C   UNK N   1      29.697  29.013  -6.164  0.00  0.00    -0.013 C 
HETATM   29  C   UNK N   1      29.678  27.545  -5.819  0.00  0.00     0.005 C 
HETATM   30  C   UNK N   1      28.886  26.891  -6.940  0.00  0.00     0.000 C 
HETATM   31  C   UNK N   1      28.053  27.989  -7.580  0.00  0.00     0.000 C 
HETATM   32  C   UNK N   1      28.326  29.237  -6.772  0.00  0.00     0.005 C 
ENDBRANCH  27  28
ENDBRANCH  26  27
ENDBRANCH  23  26
ENDBRANCH   1  22
TORSDOF 7
ENDMDL
MODEL 3
REMARK VINA RESULT:      -7.8      4.270      7.931
REMARK  7 active torsions:
REMARK  status: ('A' for Active; 'I' for Inactive)
REMARK    1  A    between atoms: C_5  and  C_6 
REMARK    2  A    between atoms: C_6  and  C_7 
REMARK    3  A    between atoms: C_7  and  N_8 
REMARK       I    between atoms: N_8  and  C_9 
REMARK    4  A    between atoms: C_9  and  C_11 
REMARK    5  A    between atoms: C_17  and  C_18 
REMARK       I    between atoms: C_18  and  N_20 
REMARK    6  A    between atoms: N_20  and  C_21 
REMARK    7  A    between atoms: C_24  and  N_25 
ROOT
HETATM    1  C   UNK N   1      29.244  17.668   7.557  0.00  0.00     0.033 A 
HETATM    2  C   UNK N   1      30.476  17.484   8.151  0.00  0.00     0.034 A 
HETATM    3  C   UNK N   1      29.146  17.525   6.166  0.00  0.00     0.017 A 
HETATM    4  C   UNK N   1      30.294  17.200   5.415  0.00  0.00     0.009 A 
HETATM    5  C   UNK N   1      31.542  17.018   6.046  0.00  0.00    -0.046 A 
HETATM    6  C   UNK N   1      32.730  16.675   5.212  0.00  0.00     0.049 C 
HETATM    7  C   UNK N   1      31.631  17.164   7.448  0.00  0.00     0.039 A 
ENDROOT
BRANCH   7   8
HETATM    8  C   UNK N   1      32.844  17.020   8.293  0.00  0.00     0.256 C 
HETATM    9  O   UNK N   1      33.549  17.973   8.595  0.00  0.00    -0.267 OA
HETATM   10  N   UNK N   1      33.127  15.761   8.722  0.00  0.00    -0.322 N 
HETATM   11  H   UNK N   1      32.491  15.078   8.410  0.00  0.00     0.169 HD
BRANCH  10  12
HETATM   12  C   UNK N   1      34.164  15.251   9.532  0.00  0.00     0.050 A 
HETATM   13  C   UNK N   1      34.021  14.990  10.898  0.00  0.00     0.119 A 
HETATM   14  N   UNK N   1      35.077  14.490  11.602  0.00  0.00    -0.351 N 
HETATM   15  C   UNK N   1      36.278  14.237  11.007  0.00  0.00     0.098 A 
ATOM     16  HN  UNK N   1      34.966  14.303  12.599  1.00  0.00     0.166 HD
HETATM   17  C   UNK N   1      36.452  14.486   9.649  0.00  0.00     0.050 A 
HETATM   18  C   UNK N   1      35.390  14.993   8.916  0.00  0.00     0.035 A 
BRANCH  15  19
HETATM   19  N   UNK N   1      37.348  13.722  11.763  0.00  0.00    -0.385 N 
HETATM   20  H   UNK N   1      37.168  13.145  12.541  0.00  0.00     0.157 HD
HETATM   21  H   UNK N   1      38.275  13.939  11.515  0.00  0.00     0.157 HD
ENDBRANCH  15  19
ENDBRANCH  10  12
ENDBRANCH   7   8
BRANCH   1  22
HETATM   22  C   UNK N   1      28.125  17.999   8.486  0.00  0.00     0.251 C 
HETATM   23  N   UNK N   1      27.468  19.177   8.508  0.00  0.00    -0.357 N 
HETATM   24  H   UNK N   1      26.732  19.250   9.157  0.00  0.00     0.162 HD
HETATM   25  O   UNK N   1      27.764  17.141   9.279  0.00  0.00    -0.268 OA
BRANCH  23  26
HETATM   26  C   UNK N   1      27.712  20.336   7.699  0.00  0.00     0.123 C 
BRANCH  26  27
HETATM   27  C   UNK N   1      26.379  20.822   7.120  0.00  0.00     0.024 C 
BRANCH  27  28
HETATM   28  C   UNK N   1      26.264  20.666   5.597  0.00  0.00    -0.013 C 
HETATM   29  C   UNK N   1      27.628  20.543   4.964  0.00  0.00     0.005 C 
HETATM   30  C   UNK N   1      27.381  19.837   3.641  0.00  0.00     0.000 C 
HETATM   31  C   UNK N   1      26.045  19.125   3.771  0.00  0.00     0.000 C 
HETATM   32  C   UNK N   1      25.582  19.375   5.189  0.00  0.00     0.005 C 
ENDBRANCH  27  28
ENDBRANCH  26  27
ENDBRANCH  23  26
ENDBRANCH   1  22
TORSDOF 7
ENDMDL
MODEL 4
REMARK VINA RESULT:      -7.8     18.450     21.979
REMARK  7 active torsions:
REMARK  status: ('A' for Active; 'I' for Inactive)
REMARK    1  A    between atoms: C_5  and  C_6 
REMARK    2  A    between atoms: C_6  and  C_7 
REMARK    3  A    between atoms: C_7  and  N_8 
REMARK       I    between atoms: N_8  and  C_9 
REMARK    4  A    between atoms: C_9  and  C_11 
REMARK    5  A    between atoms: C_17  and  C_18 
REMARK       I    between atoms: C_18  and  N_20 
REMARK    6  A    between atoms: N_20  and  C_21 
REMARK    7  A    between atoms: C_24  and  N_25 
ROOT
HETATM    1  C   UNK N   1      26.303  26.724  -4.384  0.00  0.00     0.033 A 
HETATM    2  C   UNK N   1      27.446  25.956  -4.467  0.00  0.00     0.034 A 
HETATM    3  C   UNK N   1      25.370  26.647  -5.428  0.00  0.00     0.017 A 
HETATM    4  C   UNK N   1      25.619  25.796  -6.525  0.00  0.00     0.009 A 
HETATM    5  C   UNK N   1      26.796  25.022  -6.586  0.00  0.00    -0.046 A 
HETATM    6  C   UNK N   1      27.018  24.136  -7.765  0.00  0.00     0.049 C 
HETATM    7  C   UNK N   1      27.729  25.107  -5.529  0.00  0.00     0.039 A 
ENDROOT
BRANCH   7   8
HETATM    8  C   UNK N   1      29.021  24.382  -5.409  0.00  0.00     0.256 C 
HETATM    9  O   UNK N   1      30.091  24.896  -5.706  0.00  0.00    -0.267 OA
HETATM   10  N   UNK N   1      28.950  23.108  -4.941  0.00  0.00    -0.322 N 
HETATM   11  H   UNK N   1      28.035  22.804  -4.741  0.00  0.00     0.169 HD
BRANCH  10  12
HETATM   12  C   UNK N   1      29.944  22.138  -4.687  0.00  0.00     0.050 A 
HETATM   13  C   UNK N   1      30.554  21.966  -3.441  0.00  0.00     0.119 A 
HETATM   14  N   UNK N   1      31.503  20.998  -3.285  0.00  0.00    -0.351 N 
HETATM   15  C   UNK N   1      31.877  20.189  -4.317  0.00  0.00     0.098 A 
ATOM     16  HN  UNK N   1      31.946  20.877  -2.373  1.00  0.00     0.166 HD
HETATM   17  C   UNK N   1      31.287  20.336  -5.570  0.00  0.00     0.050 A 
HETATM   18  C   UNK N   1      30.320  21.314  -5.748  0.00  0.00     0.035 A 
BRANCH  15  19
HETATM   19  N   UNK N   1      32.859  19.200  -4.123  0.00  0.00    -0.385 N 
HETATM   20  H   UNK N   1      33.803  19.459  -4.015  0.00  0.00     0.157 HD
HETATM   21  H   UNK N   1      32.602  18.250  -4.095  0.00  0.00     0.157 HD
ENDBRANCH  15  19
ENDBRANCH  10  12
ENDBRANCH   7   8
BRANCH   1  22
HETATM   22  C   UNK N   1      26.180  27.565  -3.159  0.00  0.00     0.251 C 
HETATM   23  N   UNK N   1      26.335  28.905  -3.129  0.00  0.00    -0.357 N 
HETATM   24  H   UNK N   1      26.201  29.337  -2.254  0.00  0.00     0.162 HD
HETATM   25  O   UNK N   1      25.908  27.008  -2.105  0.00  0.00    -0.268 OA
BRANCH  23  26
HETATM   26  C   UNK N   1      26.670  29.777  -4.217  0.00  0.00     0.123 C 
BRANCH  26  27
HETATM   27  C   UNK N   1      28.196  29.904  -4.293  0.00  0.00     0.024 C 
BRANCH  27  28
HETATM   28  C   UNK N   1      28.781  29.598  -5.680  0.00  0.00    -0.013 C 
HETATM   29  C   UNK N   1      29.823  28.512  -5.597  0.00  0.00     0.005 C 
HETATM   30  C   UNK N   1      29.881  27.920  -6.995  0.00  0.00     0.000 C 
HETATM   31  C   UNK N   1      28.571  28.282  -7.675  0.00  0.00     0.000 C 
HETATM   32  C   UNK N   1      27.756  29.014  -6.633  0.00  0.00     0.005 C 
ENDBRANCH  27  28
ENDBRANCH  26  27
ENDBRANCH  23  26
ENDBRANCH   1  22
TORSDOF 7
ENDMDL
MODEL 5
REMARK VINA RESULT:      -7.7      4.407     11.258
REMARK  7 active torsions:
REMARK  status: ('A' for Active; 'I' for Inactive)
REMARK    1  A    between atoms: C_5  and  C_6 
REMARK    2  A    between atoms: C_6  and  C_7 
REMARK    3  A    between atoms: C_7  and  N_8 
REMARK       I    between atoms: N_8  and  C_9 
REMARK    4  A    between atoms: C_9  and  C_11 
REMARK    5  A    between atoms: C_17  and  C_18 
REMARK       I    between atoms: C_18  and  N_20 
REMARK    6  A    between atoms: N_20  and  C_21 
REMARK    7  A    between atoms: C_24  and  N_25 
ROOT
HETATM    1  C   UNK N   1      35.184  10.335  18.923  0.00  0.00     0.033 A 
HETATM    2  C   UNK N   1      35.124  10.842  17.641  0.00  0.00     0.034 A 
HETATM    3  C   UNK N   1      35.287  11.237  19.992  0.00  0.00     0.017 A 
HETATM    4  C   UNK N   1      35.326  12.623  19.736  0.00  0.00     0.009 A 
HETATM    5  C   UNK N   1      35.264  13.115  18.415  0.00  0.00    -0.046 A 
HETATM    6  C   UNK N   1      35.308  14.588  18.191  0.00  0.00     0.049 C 
HETATM    7  C   UNK N   1      35.160  12.199  17.345  0.00  0.00     0.039 A 
ENDROOT
BRANCH   7   8
HETATM    8  C   UNK N   1      35.088  12.514  15.895  0.00  0.00     0.256 C 
HETATM    9  O   UNK N   1      34.023  12.635  15.304  0.00  0.00    -0.267 OA
HETATM   10  N   UNK N   1      36.278  12.665  15.255  0.00  0.00    -0.322 N 
HETATM   11  H   UNK N   1      37.063  12.538  15.834  0.00  0.00     0.169 HD
BRANCH  10  12
HETATM   12  C   UNK N   1      36.597  12.971  13.915  0.00  0.00     0.050 A 
HETATM   13  C   UNK N   1      36.346  14.214  13.326  0.00  0.00     0.119 A 
HETATM   14  N   UNK N   1      36.695  14.424  12.024  0.00  0.00    -0.351 N 
HETATM   15  C   UNK N   1      37.284  13.448  11.274  0.00  0.00     0.098 A 
ATOM     16  HN  UNK N   1      36.509  15.333  11.599  1.00  0.00     0.166 HD
HETATM   17  C   UNK N   1      37.546  12.200  11.833  0.00  0.00     0.050 A 
HETATM   18  C   UNK N   1      37.200  11.968  13.156  0.00  0.00     0.035 A 
BRANCH  15  19
HETATM   19  N   UNK N   1      37.631  13.697   9.934  0.00  0.00    -0.385 N 
HETATM   20  H   UNK N   1      37.008  14.186   9.347  0.00  0.00     0.157 HD
HETATM   21  H   UNK N   1      38.495  13.383   9.582  0.00  0.00     0.157 HD
ENDBRANCH  15  19
ENDBRANCH  10  12
ENDBRANCH   7   8
BRANCH   1  22
HETATM   22  C   UNK N   1      35.123   8.850  19.031  0.00  0.00     0.251 C 
HETATM   23  N   UNK N   1      34.003   8.144  19.295  0.00  0.00    -0.357 N 
HETATM   24  H   UNK N   1      34.103   7.165  19.313  0.00  0.00     0.162 HD
HETATM   25  O   UNK N   1      36.155   8.218  18.858  0.00  0.00    -0.268 OA
BRANCH  23  26
HETATM   26  C   UNK N   1      32.685   8.649  19.553  0.00  0.00     0.123 C 
BRANCH  26  27
HETATM   27  C   UNK N   1      32.156   8.008  20.841  0.00  0.00     0.024 C 
BRANCH  27  28
HETATM   28  C   UNK N   1      32.725   8.627  22.126  0.00  0.00    -0.013 C 
HETATM   29  C   UNK N   1      32.605  10.129  22.099  0.00  0.00     0.005 C 
HETATM   30  C   UNK N   1      32.635  10.549  23.560  0.00  0.00     0.000 C 
HETATM   31  C   UNK N   1      32.248   9.324  24.372  0.00  0.00     0.000 C 
HETATM   32  C   UNK N   1      31.933   8.244  23.362  0.00  0.00     0.005 C 
ENDBRANCH  27  28
ENDBRANCH  26  27
ENDBRANCH  23  26
ENDBRANCH   1  22
TORSDOF 7
ENDMDL
MODEL 6
REMARK VINA RESULT:      -7.6     17.967     21.498
REMARK  7 active torsions:
REMARK  status: ('A' for Active; 'I' for Inactive)
REMARK    1  A    between atoms: C_5  and  C_6 
REMARK    2  A    between atoms: C_6  and  C_7 
REMARK    3  A    between atoms: C_7  and  N_8 
REMARK       I    between atoms: N_8  and  C_9 
REMARK    4  A    between atoms: C_9  and  C_11 
REMARK    5  A    between atoms: C_17  and  C_18 
REMARK       I    between atoms: C_18  and  N_20 
REMARK    6  A    between atoms: N_20  and  C_21 
REMARK    7  A    between atoms: C_24  and  N_25 
ROOT
HETATM    1  C   UNK N   1      26.755  24.040  -4.903  0.00  0.00     0.033 A 
HETATM    2  C   UNK N   1      28.050  23.623  -5.131  0.00  0.00     0.034 A 
HETATM    3  C   UNK N   1      25.753  23.623  -5.791  0.00  0.00     0.017 A 
HETATM    4  C   UNK N   1      26.089  22.797  -6.884  0.00  0.00     0.009 A 
HETATM    5  C   UNK N   1      27.422  22.386  -7.095  0.00  0.00    -0.046 A 
HETATM    6  C   UNK N   1      27.732  21.513  -8.264  0.00  0.00     0.049 C 
HETATM    7  C   UNK N   1      28.423  22.811  -6.195  0.00  0.00     0.039 A 
ENDROOT
BRANCH   7   8
HETATM    8  C   UNK N   1      29.874  22.494  -6.246  0.00  0.00     0.256 C 
HETATM    9  O   UNK N   1      30.653  23.105  -6.964  0.00  0.00    -0.267 OA
HETATM   10  N   UNK N   1      30.293  21.481  -5.441  0.00  0.00    -0.322 N 
HETATM   11  H   UNK N   1      29.574  21.062  -4.916  0.00  0.00     0.169 HD
BRANCH  10  12
HETATM   12  C   UNK N   1      31.568  20.918  -5.218  0.00  0.00     0.050 A 
HETATM   13  C   UNK N   1      32.222  20.097  -6.141  0.00  0.00     0.119 A 
HETATM   14  N   UNK N   1      33.458  19.601  -5.843  0.00  0.00    -0.351 N 
HETATM   15  C   UNK N   1      34.077  19.886  -4.661  0.00  0.00     0.098 A 
ATOM     16  HN  UNK N   1      33.930  19.002  -6.520  1.00  0.00     0.166 HD
HETATM   17  C   UNK N   1      33.451  20.701  -3.722  0.00  0.00     0.050 A 
HETATM   18  C   UNK N   1      32.195  21.215  -4.007  0.00  0.00     0.035 A 
BRANCH  15  19
HETATM   19  N   UNK N   1      35.352  19.358  -4.385  0.00  0.00    -0.385 N 
HETATM   20  H   UNK N   1      35.670  18.561  -4.868  0.00  0.00     0.157 HD
HETATM   21  H   UNK N   1      35.925  19.785  -3.708  0.00  0.00     0.157 HD
ENDBRANCH  15  19
ENDBRANCH  10  12
ENDBRANCH   7   8
BRANCH   1  22
HETATM   22  C   UNK N   1      26.558  24.902  -3.702  0.00  0.00     0.251 C 
HETATM   23  N   UNK N   1      26.104  26.172  -3.735  0.00  0.00    -0.357 N 
HETATM   24  H   UNK N   1      25.999  26.616  -2.863  0.00  0.00     0.162 HD
HETATM   25  O   UNK N   1      26.814  24.426  -2.605  0.00  0.00    -0.268 OA
BRANCH  23  26
HETATM   26  C   UNK N   1      25.756  26.953  -4.887  0.00  0.00     0.123 C 
BRANCH  26  27
HETATM   27  C   UNK N   1      27.041  27.505  -5.513  0.00  0.00     0.024 C 
BRANCH  27  28
HETATM   28  C   UNK N   1      27.143  27.284  -7.029  0.00  0.00    -0.013 C 
HETATM   29  C   UNK N   1      28.299  26.375  -7.364  0.00  0.00     0.005 C 
HETATM   30  C   UNK N   1      27.953  25.788  -8.722  0.00  0.00     0.000 C 
HETATM   31  C   UNK N   1      26.449  25.936  -8.888  0.00  0.00     0.000 C 
HETATM   32  C   UNK N   1      25.949  26.539  -7.595  0.00  0.00     0.005 C 
ENDBRANCH  27  28
ENDBRANCH  26  27
ENDBRANCH  23  26
ENDBRANCH   1  22
TORSDOF 7
ENDMDL
MODEL 7
REMARK VINA RESULT:      -7.5      5.568     10.781
REMARK  7 active torsions:
REMARK  status: ('A' for Active; 'I' for Inactive)
REMARK    1  A    between atoms: C_5  and  C_6 
REMARK    2  A    between atoms: C_6  and  C_7 
REMARK    3  A    between atoms: C_7  and  N_8 
REMARK       I    between atoms: N_8  and  C_9 
REMARK    4  A    between atoms: C_9  and  C_11 
REMARK    5  A    between atoms: C_17  and  C_18 
REMARK       I    between atoms: C_18  and  N_20 
REMARK    6  A    between atoms: N_20  and  C_21 
REMARK    7  A    between atoms: C_24  and  N_25 
ROOT
HETATM    1  C   UNK N   1      33.717  17.375   7.021  0.00  0.00     0.033 A 
HETATM    2  C   UNK N   1      32.354  17.517   6.852  0.00  0.00     0.034 A 
HETATM    3  C   UNK N   1      34.449  16.732   6.012  0.00  0.00     0.017 A 
HETATM    4  C   UNK N   1      33.785  16.252   4.865  0.00  0.00     0.009 A 
HETATM    5  C   UNK N   1      32.391  16.410   4.718  0.00  0.00    -0.046 A 
HETATM    6  C   UNK N   1      31.731  15.886   3.488  0.00  0.00     0.049 C 
HETATM    7  C   UNK N   1      31.662  17.059   5.739  0.00  0.00     0.039 A 
ENDROOT
BRANCH   7   8
HETATM    8  C   UNK N   1      30.199  17.317   5.775  0.00  0.00     0.256 C 
HETATM    9  O   UNK N   1      29.483  16.899   6.675  0.00  0.00    -0.267 OA
HETATM   10  N   UNK N   1      29.696  18.053   4.749  0.00  0.00    -0.322 N 
HETATM   11  H   UNK N   1      30.369  18.327   4.084  0.00  0.00     0.169 HD
BRANCH  10  12
HETATM   12  C   UNK N   1      28.389  18.499   4.459  0.00  0.00     0.050 A 
HETATM   13  C   UNK N   1      27.393  17.677   3.924  0.00  0.00     0.119 A 
HETATM   14  N   UNK N   1      26.154  18.192   3.681  0.00  0.00    -0.351 N 
HETATM   15  C   UNK N   1      25.856  19.497   3.946  0.00  0.00     0.098 A 
ATOM     16  HN  UNK N   1      25.431  17.588   3.289  1.00  0.00     0.166 HD
HETATM   17  C   UNK N   1      26.827  20.341   4.479  0.00  0.00     0.050 A 
HETATM   18  C   UNK N   1      28.093  19.835   4.734  0.00  0.00     0.035 A 
BRANCH  15  19
HETATM   19  N   UNK N   1      24.568  19.997   3.683  0.00  0.00    -0.385 N 
HETATM   20  H   UNK N   1      24.459  20.855   3.211  0.00  0.00     0.157 HD
HETATM   21  H   UNK N   1      23.775  19.490   3.972  0.00  0.00     0.157 HD
ENDBRANCH  15  19
ENDBRANCH  10  12
ENDBRANCH   7   8
BRANCH   1  22
HETATM   22  C   UNK N   1      34.272  17.942   8.282  0.00  0.00     0.251 C 
HETATM   23  N   UNK N   1      34.320  17.290   9.462  0.00  0.00    -0.357 N 
HETATM   24  H   UNK N   1      34.737  17.776  10.210  0.00  0.00     0.162 HD
HETATM   25  O   UNK N   1      34.729  19.076   8.250  0.00  0.00    -0.268 OA
BRANCH  23  26
HETATM   26  C   UNK N   1      33.836  15.972   9.759  0.00  0.00     0.123 C 
BRANCH  26  27
HETATM   27  C   UNK N   1      34.944  14.960   9.448  0.00  0.00     0.024 C 
BRANCH  27  28
HETATM   28  C   UNK N   1      34.488  13.781   8.575  0.00  0.00    -0.013 C 
HETATM   29  C   UNK N   1      33.097  14.014   8.042  0.00  0.00     0.005 C 
HETATM   30  C   UNK N   1      33.004  13.141   6.801  0.00  0.00     0.000 C 
HETATM   31  C   UNK N   1      34.431  12.857   6.362  0.00  0.00     0.000 C 
HETATM   32  C   UNK N   1      35.316  13.630   7.314  0.00  0.00     0.005 C 
ENDBRANCH  27  28
ENDBRANCH  26  27
ENDBRANCH  23  26
ENDBRANCH   1  22
TORSDOF 7
ENDMDL
MODEL 8
REMARK VINA RESULT:      -7.5      5.365     10.385
REMARK  7 active torsions:
REMARK  status: ('A' for Active; 'I' for Inactive)
REMARK    1  A    between atoms: C_5  and  C_6 
REMARK    2  A    between atoms: C_6  and  C_7 
REMARK    3  A    between atoms: C_7  and  N_8 
REMARK       I    between atoms: N_8  and  C_9 
REMARK    4  A    between atoms: C_9  and  C_11 
REMARK    5  A    between atoms: C_17  and  C_18 
REMARK       I    between atoms: C_18  and  N_20 
REMARK    6  A    between atoms: N_20  and  C_21 
REMARK    7  A    between atoms: C_24  and  N_25 
ROOT
HETATM    1  C   UNK N   1      33.182  17.776   7.918  0.00  0.00     0.033 A 
HETATM    2  C   UNK N   1      33.293  17.325   6.619  0.00  0.00     0.034 A 
HETATM    3  C   UNK N   1      31.907  17.824   8.500  0.00  0.00     0.017 A 
HETATM    4  C   UNK N   1      30.782  17.415   7.753  0.00  0.00     0.009 A 
HETATM    5  C   UNK N   1      30.924  16.958   6.426  0.00  0.00    -0.046 A 
HETATM    6  C   UNK N   1      29.708  16.536   5.674  0.00  0.00     0.049 C 
HETATM    7  C   UNK N   1      32.212  16.914   5.849  0.00  0.00     0.039 A 
ENDROOT
BRANCH   7   8
HETATM    8  C   UNK N   1      32.569  16.473   4.476  0.00  0.00     0.256 C 
HETATM    9  O   UNK N   1      32.762  17.265   3.563  0.00  0.00    -0.267 OA
HETATM   10  N   UNK N   1      32.674  15.131   4.287  0.00  0.00    -0.322 N 
HETATM   11  H   UNK N   1      32.491  14.597   5.093  0.00  0.00     0.169 HD
BRANCH  10  12
HETATM   12  C   UNK N   1      32.999  14.360   3.150  0.00  0.00     0.050 A 
HETATM   13  C   UNK N   1      34.215  14.464   2.469  0.00  0.00     0.119 A 
HETATM   14  N   UNK N   1      34.446  13.673   1.381  0.00  0.00    -0.351 N 
HETATM   15  C   UNK N   1      33.518  12.778   0.936  0.00  0.00     0.098 A 
ATOM     16  HN  UNK N   1      35.335  13.754   0.887  1.00  0.00     0.166 HD
HETATM   17  C   UNK N   1      32.297  12.652   1.594  0.00  0.00     0.050 A 
HETATM   18  C   UNK N   1      32.044  13.447   2.703  0.00  0.00     0.035 A 
BRANCH  15  19
HETATM   19  N   UNK N   1      33.788  11.978  -0.189  0.00  0.00    -0.385 N 
HETATM   20  H   UNK N   1      33.440  11.057  -0.233  0.00  0.00     0.157 HD
HETATM   21  H   UNK N   1      34.325  12.337  -0.931  0.00  0.00     0.157 HD
ENDBRANCH  15  19
ENDBRANCH  10  12
ENDBRANCH   7   8
BRANCH   1  22
HETATM   22  C   UNK N   1      34.461  18.164   8.577  0.00  0.00     0.251 C 
HETATM   23  N   UNK N   1      35.046  17.478   9.581  0.00  0.00    -0.357 N 
HETATM   24  H   UNK N   1      35.905  17.835   9.906  0.00  0.00     0.162 HD
HETATM   25  O   UNK N   1      35.033  19.167   8.176  0.00  0.00    -0.268 OA
BRANCH  23  26
HETATM   26  C   UNK N   1      34.569  16.292  10.233  0.00  0.00     0.123 C 
BRANCH  26  27
HETATM   27  C   UNK N   1      35.523  15.137   9.911  0.00  0.00     0.024 C 
BRANCH  27  28
HETATM   28  C   UNK N   1      34.943  14.098   8.940  0.00  0.00    -0.013 C 
HETATM   29  C   UNK N   1      33.440  14.202   8.876  0.00  0.00     0.005 C 
HETATM   30  C   UNK N   1      33.063  13.592   7.536  0.00  0.00     0.000 C 
HETATM   31  C   UNK N   1      34.312  13.639   6.671  0.00  0.00     0.000 C 
HETATM   32  C   UNK N   1      35.362  14.341   7.502  0.00  0.00     0.005 C 
ENDBRANCH  27  28
ENDBRANCH  26  27
ENDBRANCH  23  26
ENDBRANCH   1  22
TORSDOF 7
ENDMDL
MODEL 9
REMARK VINA RESULT:      -7.3     13.509     16.985
REMARK  7 active torsions:
REMARK  status: ('A' for Active; 'I' for Inactive)
REMARK    1  A    between atoms: C_5  and  C_6 
REMARK    2  A    between atoms: C_6  and  C_7 
REMARK    3  A    between atoms: C_7  and  N_8 
REMARK       I    between atoms: N_8  and  C_9 
REMARK    4  A    between atoms: C_9  and  C_11 
REMARK    5  A    between atoms: C_17  and  C_18 
REMARK       I    between atoms: C_18  and  N_20 
REMARK    6  A    between atoms: N_20  and  C_21 
REMARK    7  A    between atoms: C_24  and  N_25 
ROOT
HETATM    1  C   UNK N   1      20.999  13.088   7.316  0.00  0.00     0.033 A 
HETATM    2  C   UNK N   1      20.564  14.047   6.425  0.00  0.00     0.034 A 
HETATM    3  C   UNK N   1      21.106  13.436   8.671  0.00  0.00     0.017 A 
HETATM    4  C   UNK N   1      20.772  14.743   9.084  0.00  0.00     0.009 A 
HETATM    5  C   UNK N   1      20.330  15.704   8.151  0.00  0.00    -0.046 A 
HETATM    6  C   UNK N   1      19.987  17.073   8.633  0.00  0.00     0.049 C 
HETATM    7  C   UNK N   1      20.225  15.344   6.790  0.00  0.00     0.039 A 
ENDROOT
BRANCH   7   8
HETATM    8  C   UNK N   1      19.788  16.205   5.661  0.00  0.00     0.256 C 
HETATM    9  O   UNK N   1      18.630  16.230   5.267  0.00  0.00    -0.267 OA
HETATM   10  N   UNK N   1      20.752  16.975   5.088  0.00  0.00    -0.322 N 
HETATM   11  H   UNK N   1      21.644  16.864   5.488  0.00  0.00     0.169 HD
BRANCH  10  12
HETATM   12  C   UNK N   1      20.711  17.904   4.027  0.00  0.00     0.050 A 
HETATM   13  C   UNK N   1      20.955  19.272   4.188  0.00  0.00     0.119 A 
HETATM   14  N   UNK N   1      20.899  20.097   3.103  0.00  0.00    -0.351 N 
HETATM   15  C   UNK N   1      20.610  19.623   1.857  0.00  0.00     0.098 A 
ATOM     16  HN  UNK N   1      21.077  21.094   3.227  1.00  0.00     0.166 HD
HETATM   17  C   UNK N   1      20.362  18.266   1.665  0.00  0.00     0.050 A 
HETATM   18  C   UNK N   1      20.415  17.411   2.756  0.00  0.00     0.035 A 
BRANCH  15  19
HETATM   19  N   UNK N   1      20.561  20.502   0.759  0.00  0.00    -0.385 N 
HETATM   20  H   UNK N   1      20.777  20.173  -0.144  0.00  0.00     0.157 HD
HETATM   21  H   UNK N   1      20.312  21.445   0.894  0.00  0.00     0.157 HD
ENDBRANCH  15  19
ENDBRANCH  10  12
ENDBRANCH   7   8
BRANCH   1  22
HETATM   22  C   UNK N   1      21.305  11.753   6.728  0.00  0.00     0.251 C 
HETATM   23  N   UNK N   1      22.511  11.151   6.776  0.00  0.00    -0.357 N 
HETATM   24  H   UNK N   1      22.566  10.257   6.367  0.00  0.00     0.162 HD
HETATM   25  O   UNK N   1      20.400  11.149   6.170  0.00  0.00    -0.268 OA
BRANCH  23  26
HETATM   26  C   UNK N   1      23.725  11.656   7.351  0.00  0.00     0.123 C 
BRANCH  26  27
HETATM   27  C   UNK N   1      24.718  11.951   6.223  0.00  0.00     0.024 C 
BRANCH  27  28
HETATM   28  C   UNK N   1      24.829  13.440   5.861  0.00  0.00    -0.013 C 
HETATM   29  C   UNK N   1      23.941  13.776   4.690  0.00  0.00     0.005 C 
HETATM   30  C   UNK N   1      23.691  15.271   4.807  0.00  0.00     0.000 C 
HETATM   31  C   UNK N   1      23.971  15.646   6.253  0.00  0.00     0.000 C 
HETATM   32  C   UNK N   1      24.308  14.350   6.956  0.00  0.00     0.005 C 
ENDBRANCH  27  28
ENDBRANCH  26  27
ENDBRANCH  23  26
ENDBRANCH   1  22
TORSDOF 7
ENDMDL
