MODEL 1
REMARK VINA RESULT:      -8.2      0.000      0.000
REMARK  5 active torsions:
REMARK  status: ('A' for Active; 'I' for Inactive)
REMARK    1  A    between atoms: S_2  and  N_4 
REMARK    2  A    between atoms: S_2  and  C_5 
REMARK    3  A    between atoms: C_6  and  C_7 
REMARK    4  A    between atoms: C_12  and  C_15 
REMARK    5  A    between atoms: C_19  and  C_20 
ROOT
HETATM    1  C   UNK N   1      22.617  19.866   3.144  0.00  0.00     0.094 A 
HETATM    2  C   UNK N   1      22.932  18.844   4.067  0.00  0.00     0.072 A 
HETATM    3  C   UNK N   1      24.254  18.668   4.424  0.00  0.00     0.032 A 
HETATM    4  C   UNK N   1      25.288  19.449   3.911  0.00  0.00    -0.001 A 
HETATM    5  C   UNK N   1      24.996  20.452   2.987  0.00  0.00     0.016 A 
HETATM    6  C   UNK N   1      23.657  20.660   2.608  0.00  0.00     0.027 A 
ENDROOT
BRANCH   4   7
HETATM    7  C   UNK N   1      26.617  19.128   4.437  0.00  0.00     0.086 A 
HETATM    8  O   UNK N   1      26.782  19.196   5.716  0.00  0.00    -0.310 OA
HETATM    9  C   UNK N   1      27.990  18.902   6.045  0.00  0.00     0.077 A 
HETATM   10  C   UNK N   1      28.713  18.586   4.903  0.00  0.00     0.040 A 
HETATM   11  C   UNK N   1      27.808  18.747   3.838  0.00  0.00     0.041 A 
BRANCH   9  12
HETATM   12  C   UNK N   1      28.370  18.859   7.472  0.00  0.00     0.061 C 
HETATM   13  C   UNK N   1      29.339  18.003   7.905  0.00  0.00     0.079 A 
HETATM   14  S   UNK N   1      30.165  16.748   6.871  0.00  0.00    -0.049 SA
HETATM   15  C   UNK N   1      29.895  18.024   9.257  0.00  0.00     0.264 A 
HETATM   16  C   UNK N   1      31.220  16.436   8.282  0.00  0.00     0.145 A 
HETATM   17  N   UNK N   1      32.296  15.750   8.176  0.00  0.00    -0.380 N 
HETATM   18  N   UNK N   1      30.928  17.184   9.438  0.00  0.00    -0.303 N 
HETATM   19  H   UNK N   1      32.807  15.509   8.983  0.00  0.00     0.158 HD
ATOM     20  HN  UNK N   1      32.624  15.452   7.257  1.00  0.00     0.158 HD
HETATM   21  H   UNK N   1      31.425  17.101  10.284  0.00  0.00     0.171 HD
HETATM   22  O   UNK N   1      29.514  18.775  10.135  0.00  0.00    -0.267 OA
ENDBRANCH   9  12
ENDBRANCH   4   7
BRANCH   2  23
HETATM   23  C   UNK N   1      21.911  17.932   4.705  0.00  0.00     0.419 C 
HETATM   24  F   UNK N   1      21.290  17.167   3.738  0.00  0.00    -0.166 F 
HETATM   25  F   UNK N   1      22.515  17.059   5.599  0.00  0.00    -0.166 F 
HETATM   26  F   UNK N   1      20.975  18.674   5.400  0.00  0.00    -0.166 F 
ENDBRANCH   2  23
BRANCH   1  27
HETATM   27  S   UNK N   1      20.918  20.237   2.676  0.00  0.00     0.257 S 
HETATM   28  O   UNK N   1      20.138  20.871   3.837  0.00  0.00    -0.201 OA
HETATM   29  O   UNK N   1      20.834  21.338   1.610  0.00  0.00    -0.201 OA
BRANCH  27  30
HETATM   30  N   UNK N   1      19.859  18.962   2.070  0.00  0.00    -0.324 N 
HETATM   31  H   UNK N   1      19.685  18.767   1.085  0.00  0.00     0.169 HD
HETATM   32  H   UNK N   1      19.385  18.376   2.759  0.00  0.00     0.169 HD
ENDBRANCH  27  30
ENDBRANCH   1  27
TORSDOF 5
ENDMDL
MODEL 2
REMARK VINA RESULT:      -8.0      5.205      6.423
REMARK  5 active torsions:
REMARK  status: ('A' for Active; 'I' for Inactive)
REMARK    1  A    between atoms: S_2  and  N_4 
REMARK    2  A    between atoms: S_2  and  C_5 
REMARK    3  A    between atoms: C_6  and  C_7 
REMARK    4  A    between atoms: C_12  and  C_15 
REMARK    5  A    between atoms: C_19  and  C_20 
ROOT
HETATM    1  C   UNK N   1      22.048  18.771   3.265  0.00  0.00     0.094 A 
HETATM    2  C   UNK N   1      21.150  17.732   2.933  0.00  0.00     0.072 A 
HETATM    3  C   UNK N   1      21.312  16.505   3.545  0.00  0.00     0.032 A 
HETATM    4  C   UNK N   1      22.324  16.246   4.468  0.00  0.00    -0.001 A 
HETATM    5  C   UNK N   1      23.228  17.257   4.795  0.00  0.00     0.016 A 
HETATM    6  C   UNK N   1      23.084  18.521   4.193  0.00  0.00     0.027 A 
ENDROOT
BRANCH   4   7
HETATM    7  C   UNK N   1      22.311  14.893   5.028  0.00  0.00     0.086 A 
HETATM    8  O   UNK N   1      21.805  14.744   6.207  0.00  0.00    -0.310 OA
HETATM    9  C   UNK N   1      21.863  13.516   6.586  0.00  0.00     0.077 A 
HETATM   10  C   UNK N   1      22.440  12.752   5.579  0.00  0.00     0.040 A 
HETATM   11  C   UNK N   1      22.746  13.665   4.554  0.00  0.00     0.041 A 
BRANCH   9  12
HETATM   12  C   UNK N   1      21.278  13.121   7.883  0.00  0.00     0.061 C 
HETATM   13  C   UNK N   1      22.081  12.763   8.925  0.00  0.00     0.079 A 
HETATM   14  S   UNK N   1      23.894  12.585   8.835  0.00  0.00    -0.049 SA
HETATM   15  C   UNK N   1      21.593  12.532  10.283  0.00  0.00     0.264 A 
HETATM   16  C   UNK N   1      23.847  12.318  10.604  0.00  0.00     0.145 A 
HETATM   17  N   UNK N   1      24.911  12.351  11.316  0.00  0.00    -0.380 N 
HETATM   18  N   UNK N   1      22.566  12.314  11.185  0.00  0.00    -0.303 N 
HETATM   19  H   UNK N   1      24.873  12.104  12.268  0.00  0.00     0.158 HD
ATOM     20  HN  UNK N   1      25.797  12.633  10.897  1.00  0.00     0.158 HD
HETATM   21  H   UNK N   1      22.400  12.168  12.145  0.00  0.00     0.171 HD
HETATM   22  O   UNK N   1      20.421  12.594  10.603  0.00  0.00    -0.267 OA
ENDBRANCH   9  12
ENDBRANCH   4   7
BRANCH   2  23
HETATM   23  C   UNK N   1      20.006  17.876   1.957  0.00  0.00     0.419 C 
HETATM   24  F   UNK N   1      20.474  18.350   0.747  0.00  0.00    -0.166 F 
HETATM   25  F   UNK N   1      19.400  16.651   1.717  0.00  0.00    -0.166 F 
HETATM   26  F   UNK N   1      19.048  18.734   2.465  0.00  0.00    -0.166 F 
ENDBRANCH   2  23
BRANCH   1  27
HETATM   27  S   UNK N   1      21.873  20.432   2.592  0.00  0.00     0.257 S 
HETATM   28  O   UNK N   1      23.050  21.332   2.995  0.00  0.00    -0.201 OA
HETATM   29  O   UNK N   1      21.975  20.455   1.061  0.00  0.00    -0.201 OA
BRANCH  27  30
HETATM   30  N   UNK N   1      20.435  21.394   2.947  0.00  0.00    -0.324 N 
HETATM   31  H   UNK N   1      19.549  21.017   3.282  0.00  0.00     0.169 HD
HETATM   32  H   UNK N   1      20.497  22.402   2.805  0.00  0.00     0.169 HD
ENDBRANCH  27  30
ENDBRANCH   1  27
TORSDOF 5
ENDMDL
MODEL 3
REMARK VINA RESULT:      -8.0      4.101      5.526
REMARK  5 active torsions:
REMARK  status: ('A' for Active; 'I' for Inactive)
REMARK    1  A    between atoms: S_2  and  N_4 
REMARK    2  A    between atoms: S_2  and  C_5 
REMARK    3  A    between atoms: C_6  and  C_7 
REMARK    4  A    between atoms: C_12  and  C_15 
REMARK    5  A    between atoms: C_19  and  C_20 
ROOT
HETATM    1  C   UNK N   1      26.997  17.044   5.180  0.00  0.00     0.094 A 
HETATM    2  C   UNK N   1      27.735  18.218   4.911  0.00  0.00     0.072 A 
HETATM    3  C   UNK N   1      29.107  18.179   5.063  0.00  0.00     0.032 A 
HETATM    4  C   UNK N   1      29.792  17.037   5.474  0.00  0.00    -0.001 A 
HETATM    5  C   UNK N   1      29.077  15.874   5.759  0.00  0.00     0.016 A 
HETATM    6  C   UNK N   1      27.677  15.881   5.606  0.00  0.00     0.027 A 
ENDROOT
BRANCH   4   7
HETATM    7  C   UNK N   1      31.247  17.187   5.545  0.00  0.00     0.086 A 
HETATM    8  O   UNK N   1      31.765  17.409   6.707  0.00  0.00    -0.310 OA
HETATM    9  C   UNK N   1      33.043  17.531   6.632  0.00  0.00     0.077 A 
HETATM   10  C   UNK N   1      33.442  17.362   5.312  0.00  0.00     0.040 A 
HETATM   11  C   UNK N   1      32.254  17.147   4.592  0.00  0.00     0.041 A 
BRANCH   9  12
HETATM   12  C   UNK N   1      33.835  17.726   7.863  0.00  0.00     0.061 C 
HETATM   13  C   UNK N   1      33.949  16.723   8.778  0.00  0.00     0.079 A 
HETATM   14  S   UNK N   1      33.071  15.127   8.697  0.00  0.00    -0.049 SA
HETATM   15  C   UNK N   1      34.852  16.772   9.927  0.00  0.00     0.264 A 
HETATM   16  C   UNK N   1      34.039  14.644  10.122  0.00  0.00     0.145 A 
HETATM   17  N   UNK N   1      34.103  13.424  10.508  0.00  0.00    -0.380 N 
HETATM   18  N   UNK N   1      34.905  15.629  10.632  0.00  0.00    -0.303 N 
HETATM   19  H   UNK N   1      34.561  13.199  11.350  0.00  0.00     0.158 HD
ATOM     20  HN  UNK N   1      33.679  12.687   9.945  1.00  0.00     0.158 HD
HETATM   21  H   UNK N   1      35.484  15.496  11.417  0.00  0.00     0.171 HD
HETATM   22  O   UNK N   1      35.552  17.729  10.200  0.00  0.00    -0.267 OA
ENDBRANCH   9  12
ENDBRANCH   4   7
BRANCH   2  23
HETATM   23  C   UNK N   1      27.124  19.521   4.451  0.00  0.00     0.419 C 
HETATM   24  F   UNK N   1      26.351  20.061   5.460  0.00  0.00    -0.166 F 
HETATM   25  F   UNK N   1      28.107  20.448   4.138  0.00  0.00    -0.166 F 
HETATM   26  F   UNK N   1      26.355  19.315   3.321  0.00  0.00    -0.166 F 
ENDBRANCH   2  23
BRANCH   1  27
HETATM   27  S   UNK N   1      25.216  16.961   4.930  0.00  0.00     0.257 S 
HETATM   28  O   UNK N   1      24.860  16.792   3.446  0.00  0.00    -0.201 OA
HETATM   29  O   UNK N   1      24.600  15.695   5.542  0.00  0.00    -0.201 OA
BRANCH  27  30
HETATM   30  N   UNK N   1      24.172  18.269   5.492  0.00  0.00    -0.324 N 
HETATM   31  H   UNK N   1      23.653  18.265   6.369  0.00  0.00     0.169 HD
HETATM   32  H   UNK N   1      24.083  19.091   4.894  0.00  0.00     0.169 HD
ENDBRANCH  27  30
ENDBRANCH   1  27
TORSDOF 5
ENDMDL
MODEL 4
REMARK VINA RESULT:      -7.9      2.355      3.050
REMARK  5 active torsions:
REMARK  status: ('A' for Active; 'I' for Inactive)
REMARK    1  A    between atoms: S_2  and  N_4 
REMARK    2  A    between atoms: S_2  and  C_5 
REMARK    3  A    between atoms: C_6  and  C_7 
REMARK    4  A    between atoms: C_12  and  C_15 
REMARK    5  A    between atoms: C_19  and  C_20 
ROOT
HETATM    1  C   UNK N   1      21.780  17.706   3.437  0.00  0.00     0.094 A 
HETATM    2  C   UNK N   1      22.157  19.059   3.289  0.00  0.00     0.072 A 
HETATM    3  C   UNK N   1      23.419  19.438   3.704  0.00  0.00     0.032 A 
HETATM    4  C   UNK N   1      24.331  18.547   4.267  0.00  0.00    -0.001 A 
HETATM    5  C   UNK N   1      23.968  17.210   4.435  0.00  0.00     0.016 A 
HETATM    6  C   UNK N   1      22.692  16.792   4.015  0.00  0.00     0.027 A 
ENDROOT
BRANCH   4   7
HETATM    7  C   UNK N   1      25.626  19.134   4.614  0.00  0.00     0.086 A 
HETATM    8  O   UNK N   1      26.607  18.322   4.830  0.00  0.00    -0.310 OA
HETATM    9  C   UNK N   1      27.681  18.961   5.135  0.00  0.00     0.077 A 
HETATM   10  C   UNK N   1      27.426  20.325   5.109  0.00  0.00     0.040 A 
HETATM   11  C   UNK N   1      26.064  20.440   4.776  0.00  0.00     0.041 A 
BRANCH   9  12
HETATM   12  C   UNK N   1      28.938  18.217   5.358  0.00  0.00     0.061 C 
HETATM   13  C   UNK N   1      29.362  17.938   6.623  0.00  0.00     0.079 A 
HETATM   14  S   UNK N   1      28.562  18.534   8.150  0.00  0.00    -0.049 SA
HETATM   15  C   UNK N   1      30.491  17.060   6.925  0.00  0.00     0.264 A 
HETATM   16  C   UNK N   1      29.727  17.503   9.034  0.00  0.00     0.145 A 
HETATM   17  N   UNK N   1      29.577  17.235  10.278  0.00  0.00    -0.380 N 
HETATM   18  N   UNK N   1      30.661  16.817   8.236  0.00  0.00    -0.303 N 
HETATM   19  H   UNK N   1      30.281  16.748  10.764  0.00  0.00     0.158 HD
ATOM     20  HN  UNK N   1      28.729  17.527  10.764  1.00  0.00     0.158 HD
HETATM   21  H   UNK N   1      31.361  16.226   8.597  0.00  0.00     0.171 HD
HETATM   22  O   UNK N   1      31.186  16.532   6.077  0.00  0.00    -0.267 OA
ENDBRANCH   9  12
ENDBRANCH   4   7
BRANCH   2  23
HETATM   23  C   UNK N   1      21.273  20.127   2.689  0.00  0.00     0.419 C 
HETATM   24  F   UNK N   1      21.910  21.351   2.738  0.00  0.00    -0.166 F 
HETATM   25  F   UNK N   1      20.999  19.855   1.357  0.00  0.00    -0.166 F 
HETATM   26  F   UNK N   1      20.071  20.189   3.368  0.00  0.00    -0.166 F 
ENDBRANCH   2  23
BRANCH   1  27
HETATM   27  S   UNK N   1      20.194  17.089   2.850  0.00  0.00     0.257 S 
HETATM   28  O   UNK N   1      20.152  15.554   2.841  0.00  0.00    -0.201 OA
HETATM   29  O   UNK N   1      19.046  17.424   3.812  0.00  0.00    -0.201 OA
BRANCH  27  30
HETATM   30  N   UNK N   1      19.583  17.561   1.262  0.00  0.00    -0.324 N 
HETATM   31  H   UNK N   1      19.988  17.273   0.373  0.00  0.00     0.169 HD
HETATM   32  H   UNK N   1      18.763  18.168   1.234  0.00  0.00     0.169 HD
ENDBRANCH  27  30
ENDBRANCH   1  27
TORSDOF 5
ENDMDL
MODEL 5
REMARK VINA RESULT:      -7.8      2.075      2.526
REMARK  5 active torsions:
REMARK  status: ('A' for Active; 'I' for Inactive)
REMARK    1  A    between atoms: S_2  and  N_4 
REMARK    2  A    between atoms: S_2  and  C_5 
REMARK    3  A    between atoms: C_6  and  C_7 
REMARK    4  A    between atoms: C_12  and  C_15 
REMARK    5  A    between atoms: C_19  and  C_20 
ROOT
HETATM    1  C   UNK N   1      22.699  19.162   3.434  0.00  0.00     0.094 A 
HETATM    2  C   UNK N   1      22.457  17.806   3.747  0.00  0.00     0.072 A 
HETATM    3  C   UNK N   1      23.506  17.048   4.230  0.00  0.00     0.032 A 
HETATM    4  C   UNK N   1      24.789  17.560   4.416  0.00  0.00    -0.001 A 
HETATM    5  C   UNK N   1      25.048  18.893   4.097  0.00  0.00     0.016 A 
HETATM    6  C   UNK N   1      23.997  19.693   3.609  0.00  0.00     0.027 A 
ENDROOT
BRANCH   4   7
HETATM    7  C   UNK N   1      25.755  16.607   4.967  0.00  0.00     0.086 A 
HETATM    8  O   UNK N   1      26.985  16.989   5.048  0.00  0.00    -0.310 OA
HETATM    9  C   UNK N   1      27.730  16.060   5.536  0.00  0.00     0.077 A 
HETATM   10  C   UNK N   1      26.946  14.953   5.833  0.00  0.00     0.040 A 
HETATM   11  C   UNK N   1      25.642  15.310   5.445  0.00  0.00     0.041 A 
BRANCH   9  12
HETATM   12  C   UNK N   1      29.165  16.319   5.771  0.00  0.00     0.061 C 
HETATM   13  C   UNK N   1      29.570  17.041   6.854  0.00  0.00     0.079 A 
HETATM   14  S   UNK N   1      28.455  17.875   8.033  0.00  0.00    -0.049 SA
HETATM   15  C   UNK N   1      30.968  17.190   7.253  0.00  0.00     0.264 A 
HETATM   16  C   UNK N   1      29.922  18.258   8.983  0.00  0.00     0.145 A 
HETATM   17  N   UNK N   1      29.848  18.687  10.187  0.00  0.00    -0.380 N 
HETATM   18  N   UNK N   1      31.140  17.833   8.421  0.00  0.00    -0.303 N 
HETATM   19  H   UNK N   1      30.662  18.983  10.654  0.00  0.00     0.158 HD
ATOM     20  HN  UNK N   1      28.946  18.722  10.662  1.00  0.00     0.158 HD
HETATM   21  H   UNK N   1      32.019  17.989   8.836  0.00  0.00     0.171 HD
HETATM   22  O   UNK N   1      31.905  16.723   6.632  0.00  0.00    -0.267 OA
ENDBRANCH   9  12
ENDBRANCH   4   7
BRANCH   2  23
HETATM   23  C   UNK N   1      21.117  17.125   3.602  0.00  0.00     0.419 C 
HETATM   24  F   UNK N   1      21.203  15.815   4.028  0.00  0.00    -0.166 F 
HETATM   25  F   UNK N   1      20.154  17.753   4.380  0.00  0.00    -0.166 F 
HETATM   26  F   UNK N   1      20.698  17.172   2.285  0.00  0.00    -0.166 F 
ENDBRANCH   2  23
BRANCH   1  27
HETATM   27  S   UNK N   1      21.384  20.260   2.881  0.00  0.00     0.257 S 
HETATM   28  O   UNK N   1      20.314  20.453   3.966  0.00  0.00    -0.201 OA
HETATM   29  O   UNK N   1      21.875  21.699   2.672  0.00  0.00    -0.201 OA
BRANCH  27  30
HETATM   30  N   UNK N   1      20.471  19.894   1.415  0.00  0.00    -0.324 N 
HETATM   31  H   UNK N   1      19.457  19.808   1.366  0.00  0.00     0.169 HD
HETATM   32  H   UNK N   1      20.999  19.759   0.553  0.00  0.00     0.169 HD
ENDBRANCH  27  30
ENDBRANCH   1  27
TORSDOF 5
ENDMDL
MODEL 6
REMARK VINA RESULT:      -7.8      5.521      7.701
REMARK  5 active torsions:
REMARK  status: ('A' for Active; 'I' for Inactive)
REMARK    1  A    between atoms: S_2  and  N_4 
REMARK    2  A    between atoms: S_2  and  C_5 
REMARK    3  A    between atoms: C_6  and  C_7 
REMARK    4  A    between atoms: C_12  and  C_15 
REMARK    5  A    between atoms: C_19  and  C_20 
ROOT
HETATM    1  C   UNK N   1      29.160  17.595   6.319  0.00  0.00     0.094 A 
HETATM    2  C   UNK N   1      29.335  17.638   7.720  0.00  0.00     0.072 A 
HETATM    3  C   UNK N   1      30.596  17.396   8.231  0.00  0.00     0.032 A 
HETATM    4  C   UNK N   1      31.697  17.107   7.426  0.00  0.00    -0.001 A 
HETATM    5  C   UNK N   1      31.537  17.046   6.042  0.00  0.00     0.016 A 
HETATM    6  C   UNK N   1      30.266  17.295   5.491  0.00  0.00     0.027 A 
ENDROOT
BRANCH   4   7
HETATM    7  C   UNK N   1      32.952  16.912   8.154  0.00  0.00     0.086 A 
HETATM    8  O   UNK N   1      32.925  16.139   9.188  0.00  0.00    -0.310 OA
HETATM    9  C   UNK N   1      34.084  16.060   9.741  0.00  0.00     0.077 A 
HETATM   10  C   UNK N   1      34.989  16.826   9.018  0.00  0.00     0.040 A 
HETATM   11  C   UNK N   1      34.238  17.399   7.976  0.00  0.00     0.041 A 
BRANCH   9  12
HETATM   12  C   UNK N   1      34.282  15.173  10.905  0.00  0.00     0.061 C 
HETATM   13  C   UNK N   1      35.430  14.451  11.038  0.00  0.00     0.079 A 
HETATM   14  S   UNK N   1      36.761  14.363   9.794  0.00  0.00    -0.049 SA
HETATM   15  C   UNK N   1      35.777  13.693  12.239  0.00  0.00     0.264 A 
HETATM   16  C   UNK N   1      37.682  13.419  11.004  0.00  0.00     0.145 A 
HETATM   17  N   UNK N   1      38.935  13.193  10.866  0.00  0.00    -0.380 N 
HETATM   18  N   UNK N   1      37.010  13.159  12.213  0.00  0.00    -0.303 N 
HETATM   19  H   UNK N   1      39.397  12.590  11.492  0.00  0.00     0.158 HD
ATOM     20  HN  UNK N   1      39.453  13.636  10.108  1.00  0.00     0.158 HD
HETATM   21  H   UNK N   1      37.399  12.643  12.955  0.00  0.00     0.171 HD
HETATM   22  O   UNK N   1      35.055  13.598  13.214  0.00  0.00    -0.267 OA
ENDBRANCH   9  12
ENDBRANCH   4   7
BRANCH   2  23
HETATM   23  C   UNK N   1      28.233  17.946   8.706  0.00  0.00     0.419 C 
HETATM   24  F   UNK N   1      27.273  16.955   8.666  0.00  0.00    -0.166 F 
HETATM   25  F   UNK N   1      28.725  17.995  10.002  0.00  0.00    -0.166 F 
HETATM   26  F   UNK N   1      27.664  19.172   8.419  0.00  0.00    -0.166 F 
ENDBRANCH   2  23
BRANCH   1  27
HETATM   27  S   UNK N   1      27.581  17.980   5.545  0.00  0.00     0.257 S 
HETATM   28  O   UNK N   1      27.216  19.463   5.711  0.00  0.00    -0.201 OA
HETATM   29  O   UNK N   1      27.631  17.843   4.017  0.00  0.00    -0.201 OA
BRANCH  27  30
HETATM   30  N   UNK N   1      26.119  17.107   6.013  0.00  0.00    -0.324 N 
HETATM   31  H   UNK N   1      25.642  16.416   5.435  0.00  0.00     0.169 HD
HETATM   32  H   UNK N   1      25.723  17.310   6.930  0.00  0.00     0.169 HD
ENDBRANCH  27  30
ENDBRANCH   1  27
TORSDOF 5
ENDMDL
MODEL 7
REMARK VINA RESULT:      -7.7     11.976     16.879
REMARK  5 active torsions:
REMARK  status: ('A' for Active; 'I' for Inactive)
REMARK    1  A    between atoms: S_2  and  N_4 
REMARK    2  A    between atoms: S_2  and  C_5 
REMARK    3  A    between atoms: C_6  and  C_7 
REMARK    4  A    between atoms: C_12  and  C_15 
REMARK    5  A    between atoms: C_19  and  C_20 
ROOT
HETATM    1  C   UNK N   1      35.524  11.765  17.992  0.00  0.00     0.094 A 
HETATM    2  C   UNK N   1      36.088  10.827  17.099  0.00  0.00     0.072 A 
HETATM    3  C   UNK N   1      36.344  11.228  15.803  0.00  0.00     0.032 A 
HETATM    4  C   UNK N   1      36.065  12.512  15.337  0.00  0.00    -0.001 A 
HETATM    5  C   UNK N   1      35.494  13.445  16.202  0.00  0.00     0.016 A 
HETATM    6  C   UNK N   1      35.228  13.068  17.532  0.00  0.00     0.027 A 
ENDROOT
BRANCH   4   7
HETATM    7  C   UNK N   1      36.437  12.752  13.942  0.00  0.00     0.086 A 
HETATM    8  O   UNK N   1      36.180  13.918  13.451  0.00  0.00    -0.310 OA
HETATM    9  C   UNK N   1      36.545  13.995  12.220  0.00  0.00     0.077 A 
HETATM   10  C   UNK N   1      37.117  12.790  11.834  0.00  0.00     0.040 A 
HETATM   11  C   UNK N   1      37.035  11.964  12.970  0.00  0.00     0.041 A 
BRANCH   9  12
HETATM   12  C   UNK N   1      36.396  15.271  11.490  0.00  0.00     0.061 C 
HETATM   13  C   UNK N   1      35.295  15.505  10.722  0.00  0.00     0.079 A 
HETATM   14  S   UNK N   1      33.980  14.288  10.379  0.00  0.00    -0.049 SA
HETATM   15  C   UNK N   1      34.989  16.800  10.115  0.00  0.00     0.264 A 
HETATM   16  C   UNK N   1      33.114  15.618   9.553  0.00  0.00     0.145 A 
HETATM   17  N   UNK N   1      31.879  15.516   9.230  0.00  0.00    -0.380 N 
HETATM   18  N   UNK N   1      33.793  16.850   9.505  0.00  0.00    -0.303 N 
HETATM   19  H   UNK N   1      31.452  16.220   8.691  0.00  0.00     0.158 HD
ATOM     20  HN  UNK N   1      31.338  14.705   9.531  1.00  0.00     0.158 HD
HETATM   21  H   UNK N   1      33.432  17.657   9.072  0.00  0.00     0.171 HD
HETATM   22  O   UNK N   1      35.709  17.776  10.201  0.00  0.00    -0.267 OA
ENDBRANCH   9  12
ENDBRANCH   4   7
BRANCH   2  23
HETATM   23  C   UNK N   1      36.446   9.408  17.472  0.00  0.00     0.419 C 
HETATM   24  F   UNK N   1      35.300   8.684  17.732  0.00  0.00    -0.166 F 
HETATM   25  F   UNK N   1      37.111   8.774  16.432  0.00  0.00    -0.166 F 
HETATM   26  F   UNK N   1      37.276   9.398  18.577  0.00  0.00    -0.166 F 
ENDBRANCH   2  23
BRANCH   1  27
HETATM   27  S   UNK N   1      35.231  11.373  19.725  0.00  0.00     0.257 S 
HETATM   28  O   UNK N   1      34.407  12.467  20.421  0.00  0.00    -0.201 OA
HETATM   29  O   UNK N   1      34.326  10.146  19.900  0.00  0.00    -0.201 OA
BRANCH  27  30
HETATM   30  N   UNK N   1      36.586  11.075  20.816  0.00  0.00    -0.324 N 
HETATM   31  H   UNK N   1      37.079  10.188  20.905  0.00  0.00     0.169 HD
HETATM   32  H   UNK N   1      36.900  11.850  21.401  0.00  0.00     0.169 HD
ENDBRANCH  27  30
ENDBRANCH   1  27
TORSDOF 5
ENDMDL
MODEL 8
REMARK VINA RESULT:      -7.5      4.741      6.186
REMARK  5 active torsions:
REMARK  status: ('A' for Active; 'I' for Inactive)
REMARK    1  A    between atoms: S_2  and  N_4 
REMARK    2  A    between atoms: S_2  and  C_5 
REMARK    3  A    between atoms: C_6  and  C_7 
REMARK    4  A    between atoms: C_12  and  C_15 
REMARK    5  A    between atoms: C_19  and  C_20 
ROOT
HETATM    1  C   UNK N   1      28.026  17.273   4.987  0.00  0.00     0.094 A 
HETATM    2  C   UNK N   1      28.629  17.287   6.265  0.00  0.00     0.072 A 
HETATM    3  C   UNK N   1      29.993  17.084   6.348  0.00  0.00     0.032 A 
HETATM    4  C   UNK N   1      30.795  16.862   5.230  0.00  0.00    -0.001 A 
HETATM    5  C   UNK N   1      30.212  16.829   3.964  0.00  0.00     0.016 A 
HETATM    6  C   UNK N   1      28.826  17.039   3.846  0.00  0.00     0.027 A 
ENDROOT
BRANCH   4   7
HETATM    7  C   UNK N   1      32.221  16.700   5.523  0.00  0.00     0.086 A 
HETATM    8  O   UNK N   1      32.646  17.133   6.662  0.00  0.00    -0.310 OA
HETATM    9  C   UNK N   1      33.912  16.941   6.790  0.00  0.00     0.077 A 
HETATM   10  C   UNK N   1      34.396  16.307   5.654  0.00  0.00     0.040 A 
HETATM   11  C   UNK N   1      33.280  16.158   4.810  0.00  0.00     0.041 A 
BRANCH   9  12
HETATM   12  C   UNK N   1      34.585  17.309   8.053  0.00  0.00     0.061 C 
HETATM   13  C   UNK N   1      34.523  16.485   9.136  0.00  0.00     0.079 A 
HETATM   14  S   UNK N   1      33.533  14.956   9.233  0.00  0.00    -0.049 SA
HETATM   15  C   UNK N   1      35.303  16.688  10.356  0.00  0.00     0.264 A 
HETATM   16  C   UNK N   1      34.307  14.684  10.823  0.00  0.00     0.145 A 
HETATM   17  N   UNK N   1      34.232  13.554  11.421  0.00  0.00    -0.380 N 
HETATM   18  N   UNK N   1      35.191  15.691  11.251  0.00  0.00    -0.303 N 
HETATM   19  H   UNK N   1      34.581  13.458  12.337  0.00  0.00     0.158 HD
ATOM     20  HN  UNK N   1      33.811  12.753  10.949  1.00  0.00     0.158 HD
HETATM   21  H   UNK N   1      35.673  15.669  12.109  0.00  0.00     0.171 HD
HETATM   22  O   UNK N   1      36.045  17.635  10.537  0.00  0.00    -0.267 OA
ENDBRANCH   9  12
ENDBRANCH   4   7
BRANCH   2  23
HETATM   23  C   UNK N   1      27.881  17.524   7.556  0.00  0.00     0.419 C 
HETATM   24  F   UNK N   1      26.840  16.625   7.671  0.00  0.00    -0.166 F 
HETATM   25  F   UNK N   1      28.712  17.341   8.652  0.00  0.00    -0.166 F 
HETATM   26  F   UNK N   1      27.399  18.819   7.598  0.00  0.00    -0.166 F 
ENDBRANCH   2  23
BRANCH   1  27
HETATM   27  S   UNK N   1      26.272  17.612   4.759  0.00  0.00     0.257 S 
HETATM   28  O   UNK N   1      25.875  17.562   3.276  0.00  0.00    -0.201 OA
HETATM   29  O   UNK N   1      25.383  16.511   5.354  0.00  0.00    -0.201 OA
BRANCH  27  30
HETATM   30  N   UNK N   1      25.566  19.114   5.359  0.00  0.00    -0.324 N 
HETATM   31  H   UNK N   1      24.778  19.600   4.933  0.00  0.00     0.169 HD
HETATM   32  H   UNK N   1      25.978  19.527   6.196  0.00  0.00     0.169 HD
ENDBRANCH  27  30
ENDBRANCH   1  27
TORSDOF 5
ENDMDL
MODEL 9
REMARK VINA RESULT:      -7.4      1.709      1.959
REMARK  5 active torsions:
REMARK  status: ('A' for Active; 'I' for Inactive)
REMARK    1  A    between atoms: S_2  and  N_4 
REMARK    2  A    between atoms: S_2  and  C_5 
REMARK    3  A    between atoms: C_6  and  C_7 
REMARK    4  A    between atoms: C_12  and  C_15 
REMARK    5  A    between atoms: C_19  and  C_20 
ROOT
HETATM    1  C   UNK N   1      21.602  18.290   3.252  0.00  0.00     0.094 A 
HETATM    2  C   UNK N   1      22.574  17.415   3.789  0.00  0.00     0.072 A 
HETATM    3  C   UNK N   1      23.830  17.920   4.063  0.00  0.00     0.032 A 
HETATM    4  C   UNK N   1      24.181  19.248   3.828  0.00  0.00    -0.001 A 
HETATM    5  C   UNK N   1      23.238  20.120   3.284  0.00  0.00     0.016 A 
HETATM    6  C   UNK N   1      21.946  19.637   3.000  0.00  0.00     0.027 A 
ENDROOT
BRANCH   4   7
HETATM    7  C   UNK N   1      25.549  19.597   4.213  0.00  0.00     0.086 A 
HETATM    8  O   UNK N   1      25.918  19.314   5.417  0.00  0.00    -0.310 OA
HETATM    9  C   UNK N   1      27.133  19.679   5.631  0.00  0.00     0.077 A 
HETATM   10  C   UNK N   1      27.651  20.245   4.473  0.00  0.00     0.040 A 
HETATM   11  C   UNK N   1      26.601  20.201   3.539  0.00  0.00     0.041 A 
BRANCH   9  12
HETATM   12  C   UNK N   1      27.768  19.387   6.932  0.00  0.00     0.061 C 
HETATM   13  C   UNK N   1      28.635  18.343   7.060  0.00  0.00     0.079 A 
HETATM   14  S   UNK N   1      29.009  17.127   5.753  0.00  0.00    -0.049 SA
HETATM   15  C   UNK N   1      29.437  18.097   8.257  0.00  0.00     0.264 A 
HETATM   16  C   UNK N   1      30.245  16.470   6.868  0.00  0.00     0.145 A 
HETATM   17  N   UNK N   1      31.141  15.648   6.468  0.00  0.00    -0.380 N 
HETATM   18  N   UNK N   1      30.320  17.092   8.129  0.00  0.00    -0.303 N 
HETATM   19  H   UNK N   1      31.747  15.226   7.118  0.00  0.00     0.158 HD
ATOM     20  HN  UNK N   1      31.226  15.429   5.475  1.00  0.00     0.158 HD
HETATM   21  H   UNK N   1      30.948  16.820   8.837  0.00  0.00     0.171 HD
HETATM   22  O   UNK N   1      29.373  18.772   9.268  0.00  0.00    -0.267 OA
ENDBRANCH   9  12
ENDBRANCH   4   7
BRANCH   2  23
HETATM   23  C   UNK N   1      22.327  15.958   4.099  0.00  0.00     0.419 C 
HETATM   24  F   UNK N   1      21.808  15.320   2.990  0.00  0.00    -0.166 F 
HETATM   25  F   UNK N   1      23.510  15.314   4.433  0.00  0.00    -0.166 F 
HETATM   26  F   UNK N   1      21.459  15.836   5.168  0.00  0.00    -0.166 F 
ENDBRANCH   2  23
BRANCH   1  27
HETATM   27  S   UNK N   1      19.911  17.757   2.940  0.00  0.00     0.257 S 
HETATM   28  O   UNK N   1      19.263  17.163   4.199  0.00  0.00    -0.201 OA
HETATM   29  O   UNK N   1      18.975  18.935   2.637  0.00  0.00    -0.201 OA
BRANCH  27  30
HETATM   30  N   UNK N   1      19.563  16.585   1.666  0.00  0.00    -0.324 N 
HETATM   31  H   UNK N   1      19.225  16.821   0.733  0.00  0.00     0.169 HD
HETATM   32  H   UNK N   1      19.712  15.599   1.879  0.00  0.00     0.169 HD
ENDBRANCH  27  30
ENDBRANCH   1  27
TORSDOF 5
ENDMDL
