REMARK  4 active torsions:
REMARK  status: ('A' for Active; 'I' for Inactive)
REMARK    1  A    between atoms: O_2  and  C_21 
REMARK    2  A    between atoms: C_3  and  C_21 
REMARK    3  A    between atoms: C_6  and  C_9 
REMARK    4  A    between atoms: C_13  and  C_14 
ROOT
HETATM    1  C   UNK N   1      -1.656  -0.472  -0.008  0.00  0.00     0.086 A 
HETATM    2  O   UNK N   1      -0.590  -1.208  -0.021  0.00  0.00    -0.310 OA
HETATM    3  C   UNK N   1      -2.782  -1.281   0.019  0.00  0.00     0.041 A 
HETATM    4  C   UNK N   1      -2.290  -2.591   0.020  0.00  0.00     0.040 A 
HETATM    5  C   UNK N   1      -0.910  -2.462  -0.005  0.00  0.00     0.077 A 
ENDROOT
BRANCH   5   6
HETATM    6  C   UNK N   1       0.115  -3.525  -0.006  0.00  0.00     0.061 C 
HETATM    7  C   UNK N   1       1.441  -3.239  -0.002  0.00  0.00     0.079 A 
HETATM    8  S   UNK N   1       2.149  -1.563   0.012  0.00  0.00    -0.049 SA
HETATM    9  C   UNK N   1       2.485  -4.264  -0.005  0.00  0.00     0.264 A 
HETATM   10  C   UNK N   1       3.751  -2.367   0.013  0.00  0.00     0.145 A 
HETATM   11  N   UNK N   1       4.846  -1.703   0.015  0.00  0.00    -0.380 N 
HETATM   12  N   UNK N   1       3.734  -3.774   0.002  0.00  0.00    -0.303 N 
HETATM   13  H   UNK N   1       5.709  -2.177   0.017  0.00  0.00     0.158 HD
ATOM     14  HN  UNK N   1       4.824  -0.683   0.015  1.00  0.00     0.158 HD
HETATM   15  H   UNK N   1       4.544  -4.334   0.001  0.00  0.00     0.171 HD
HETATM   16  O   UNK N   1       2.262  -5.461  -0.014  0.00  0.00    -0.267 OA
ENDBRANCH   5   6
BRANCH   1  17
HETATM   17  C   UNK N   1      -1.525   0.987  -0.012  0.00  0.00    -0.002 A 
HETATM   18  C   UNK N   1      -0.224   1.502  -0.044  0.00  0.00     0.015 A 
HETATM   19  C   UNK N   1       0.004   2.868  -0.040  0.00  0.00     0.019 A 
HETATM   20  C   UNK N   1      -1.069   3.755  -0.002  0.00  0.00     0.037 A 
HETATM   21  C   UNK N   1      -2.385   3.252   0.029  0.00  0.00     0.019 A 
HETATM   22  C   UNK N   1      -2.616   1.865   0.024  0.00  0.00     0.015 A 
BRANCH  20  23
HETATM   23  C   UNK N   1      -0.794   5.203   0.007  0.00  0.00     0.176 C 
HETATM   24  O   UNK N   1      -1.710   6.007   0.044  0.00  0.00    -0.646 OA
BRANCH  23  25
HETATM   25  O   UNK N   1       0.480   5.647  -0.022  0.00  0.00    -0.773 OA
HETATM   26  H   UNK N   1       1.189   5.035  -0.043  0.00  0.00     0.167 HD
ENDBRANCH  23  25
ENDBRANCH  20  23
ENDBRANCH   1  17
TORSDOF 4
