MODEL 1
REMARK VINA RESULT:      -7.5      0.000      0.000
REMARK  4 active torsions:
REMARK  status: ('A' for Active; 'I' for Inactive)
REMARK    1  A    between atoms: O_2  and  C_21 
REMARK    2  A    between atoms: C_3  and  C_21 
REMARK    3  A    between atoms: C_6  and  C_9 
REMARK    4  A    between atoms: C_13  and  C_14 
ROOT
HETATM    1  C   UNK N   1      36.233  12.979  14.340  0.00  0.00     0.086 A 
HETATM    2  O   UNK N   1      35.950  14.149  13.861  0.00  0.00    -0.310 OA
HETATM    3  C   UNK N   1      36.826  12.202  13.356  0.00  0.00     0.041 A 
HETATM    4  C   UNK N   1      36.875  13.023  12.223  0.00  0.00     0.040 A 
HETATM    5  C   UNK N   1      36.309  14.224  12.620  0.00  0.00     0.077 A 
ENDROOT
BRANCH   5   6
HETATM    6  C   UNK N   1      36.110  15.455  11.828  0.00  0.00     0.061 C 
HETATM    7  C   UNK N   1      35.116  15.563  10.912  0.00  0.00     0.079 A 
HETATM    8  S   UNK N   1      33.904  14.262  10.526  0.00  0.00    -0.049 SA
HETATM    9  C   UNK N   1      34.890  16.764  10.108  0.00  0.00     0.264 A 
HETATM   10  C   UNK N   1      33.213  15.419   9.345  0.00  0.00     0.145 A 
HETATM   11  N   UNK N   1      32.204  15.124   8.614  0.00  0.00    -0.380 N 
HETATM   12  N   UNK N   1      33.853  16.669   9.261  0.00  0.00    -0.303 N 
HETATM   13  H   UNK N   1      31.849  15.785   7.976  0.00  0.00     0.158 HD
ATOM     14  HN  UNK N   1      31.767  14.206   8.693  1.00  0.00     0.158 HD
HETATM   15  H   UNK N   1      33.573  17.391   8.653  0.00  0.00     0.171 HD
HETATM   16  O   UNK N   1      35.570  17.771  10.184  0.00  0.00    -0.267 OA
ENDBRANCH   5   6
BRANCH   1  17
HETATM   17  C   UNK N   1      35.921  12.677  15.739  0.00  0.00    -0.002 A 
HETATM   18  C   UNK N   1      35.574  13.761  16.554  0.00  0.00     0.015 A 
HETATM   19  C   UNK N   1      35.271  13.579  17.893  0.00  0.00     0.019 A 
HETATM   20  C   UNK N   1      35.311  12.304  18.452  0.00  0.00     0.037 A 
HETATM   21  C   UNK N   1      35.657  11.202  17.644  0.00  0.00     0.019 A 
HETATM   22  C   UNK N   1      35.963  11.387  16.284  0.00  0.00     0.015 A 
BRANCH  20  23
HETATM   23  C   UNK N   1      34.989  12.144  19.881  0.00  0.00     0.176 C 
HETATM   24  O   UNK N   1      35.029  11.044  20.405  0.00  0.00    -0.646 OA
BRANCH  23  25
HETATM   25  O   UNK N   1      34.651  13.221  20.620  0.00  0.00    -0.773 OA
HETATM   26  H   UNK N   1      34.647  13.165  21.555  0.00  0.00     0.167 HD
ENDBRANCH  23  25
ENDBRANCH  20  23
ENDBRANCH   1  17
TORSDOF 4
ENDMDL
MODEL 2
REMARK VINA RESULT:      -7.5     14.428     15.943
REMARK  4 active torsions:
REMARK  status: ('A' for Active; 'I' for Inactive)
REMARK    1  A    between atoms: O_2  and  C_21 
REMARK    2  A    between atoms: C_3  and  C_21 
REMARK    3  A    between atoms: C_6  and  C_9 
REMARK    4  A    between atoms: C_13  and  C_14 
ROOT
HETATM    1  C   UNK N   1      22.561  15.461   6.968  0.00  0.00     0.086 A 
HETATM    2  O   UNK N   1      21.871  16.499   6.615  0.00  0.00    -0.310 OA
HETATM    3  C   UNK N   1      23.652  15.316   6.125  0.00  0.00     0.041 A 
HETATM    4  C   UNK N   1      23.555  16.377   5.217  0.00  0.00     0.040 A 
HETATM    5  C   UNK N   1      22.415  17.072   5.590  0.00  0.00     0.077 A 
ENDROOT
BRANCH   5   6
HETATM    6  C   UNK N   1      21.837  18.288   4.983  0.00  0.00     0.061 C 
HETATM    7  C   UNK N   1      21.095  18.237   3.849  0.00  0.00     0.079 A 
HETATM    8  S   UNK N   1      20.698  16.720   2.926  0.00  0.00    -0.049 SA
HETATM    9  C   UNK N   1      20.509  19.419   3.217  0.00  0.00     0.264 A 
HETATM   10  C   UNK N   1      19.798  17.782   1.797  0.00  0.00     0.145 A 
HETATM   11  N   UNK N   1      19.189  17.322   0.769  0.00  0.00    -0.380 N 
HETATM   12  N   UNK N   1      19.809  19.155   2.103  0.00  0.00    -0.303 N 
HETATM   13  H   UNK N   1      18.703  17.934   0.171  0.00  0.00     0.158 HD
ATOM     14  HN  UNK N   1      19.207  16.321   0.571  1.00  0.00     0.158 HD
HETATM   15  H   UNK N   1      19.354  19.843   1.564  0.00  0.00     0.171 HD
HETATM   16  O   UNK N   1      20.634  20.552   3.647  0.00  0.00    -0.267 OA
ENDBRANCH   5   6
BRANCH   1  17
HETATM   17  C   UNK N   1      22.129  14.665   8.119  0.00  0.00    -0.002 A 
HETATM   18  C   UNK N   1      23.022  13.693   8.584  0.00  0.00     0.015 A 
HETATM   19  C   UNK N   1      22.700  12.883   9.660  0.00  0.00     0.019 A 
HETATM   20  C   UNK N   1      21.471  13.026  10.299  0.00  0.00     0.037 A 
HETATM   21  C   UNK N   1      20.561  14.001   9.844  0.00  0.00     0.019 A 
HETATM   22  C   UNK N   1      20.889  14.824   8.752  0.00  0.00     0.015 A 
BRANCH  20  23
HETATM   23  C   UNK N   1      21.155  12.145  11.438  0.00  0.00     0.176 C 
HETATM   24  O   UNK N   1      20.002  11.994  11.803  0.00  0.00    -0.646 OA
BRANCH  23  25
HETATM   25  O   UNK N   1      22.147  11.496  12.083  0.00  0.00    -0.773 OA
HETATM   26  H   UNK N   1      22.593  11.911  12.795  0.00  0.00     0.167 HD
ENDBRANCH  23  25
ENDBRANCH  20  23
ENDBRANCH   1  17
TORSDOF 4
ENDMDL
MODEL 3
REMARK VINA RESULT:      -7.1      1.600      2.289
REMARK  4 active torsions:
REMARK  status: ('A' for Active; 'I' for Inactive)
REMARK    1  A    between atoms: O_2  and  C_21 
REMARK    2  A    between atoms: C_3  and  C_21 
REMARK    3  A    between atoms: C_6  and  C_9 
REMARK    4  A    between atoms: C_13  and  C_14 
ROOT
HETATM    1  C   UNK N   1      36.070  14.165  12.464  0.00  0.00     0.086 A 
HETATM    2  O   UNK N   1      35.707  15.328  12.026  0.00  0.00    -0.310 OA
HETATM    3  C   UNK N   1      36.695  13.457  11.449  0.00  0.00     0.041 A 
HETATM    4  C   UNK N   1      36.674  14.312  10.342  0.00  0.00     0.040 A 
HETATM    5  C   UNK N   1      36.040  15.463  10.782  0.00  0.00     0.077 A 
ENDROOT
BRANCH   5   6
HETATM    6  C   UNK N   1      35.752  16.702  10.032  0.00  0.00     0.061 C 
HETATM    7  C   UNK N   1      34.633  16.837   9.277  0.00  0.00     0.079 A 
HETATM    8  S   UNK N   1      33.348  15.565   9.078  0.00  0.00    -0.049 SA
HETATM    9  C   UNK N   1      34.315  18.046   8.518  0.00  0.00     0.264 A 
HETATM   10  C   UNK N   1      32.512  16.743   8.016  0.00  0.00     0.145 A 
HETATM   11  N   UNK N   1      31.397  16.475   7.446  0.00  0.00    -0.380 N 
HETATM   12  N   UNK N   1      33.161  17.979   7.838  0.00  0.00    -0.303 N 
HETATM   13  H   UNK N   1      30.965  17.146   6.870  0.00  0.00     0.158 HD
ATOM     14  HN  UNK N   1      30.957  15.566   7.589  1.00  0.00     0.158 HD
HETATM   15  H   UNK N   1      32.808  18.710   7.280  0.00  0.00     0.171 HD
HETATM   16  O   UNK N   1      35.022  19.037   8.492  0.00  0.00    -0.267 OA
ENDBRANCH   5   6
BRANCH   1  17
HETATM   17  C   UNK N   1      35.799  13.802  13.857  0.00  0.00    -0.002 A 
HETATM   18  C   UNK N   1      36.605  14.402  14.832  0.00  0.00     0.015 A 
HETATM   19  C   UNK N   1      36.433  14.116  16.176  0.00  0.00     0.019 A 
HETATM   20  C   UNK N   1      35.448  13.218  16.579  0.00  0.00     0.037 A 
HETATM   21  C   UNK N   1      34.627  12.607  15.609  0.00  0.00     0.019 A 
HETATM   22  C   UNK N   1      34.801  12.898  14.245  0.00  0.00     0.015 A 
BRANCH  20  23
HETATM   23  C   UNK N   1      35.293  12.929  18.016  0.00  0.00     0.176 C 
HETATM   24  O   UNK N   1      35.288  13.835  18.832  0.00  0.00    -0.646 OA
BRANCH  23  25
HETATM   25  O   UNK N   1      35.153  11.655  18.436  0.00  0.00    -0.773 OA
HETATM   26  H   UNK N   1      34.553  11.453  19.127  0.00  0.00     0.167 HD
ENDBRANCH  23  25
ENDBRANCH  20  23
ENDBRANCH   1  17
TORSDOF 4
ENDMDL
MODEL 4
REMARK VINA RESULT:      -7.1      2.074      2.592
REMARK  4 active torsions:
REMARK  status: ('A' for Active; 'I' for Inactive)
REMARK    1  A    between atoms: O_2  and  C_21 
REMARK    2  A    between atoms: C_3  and  C_21 
REMARK    3  A    between atoms: C_6  and  C_9 
REMARK    4  A    between atoms: C_13  and  C_14 
ROOT
HETATM    1  C   UNK N   1      34.654  11.381  14.103  0.00  0.00     0.086 A 
HETATM    2  O   UNK N   1      35.335  12.021  13.206  0.00  0.00    -0.310 OA
HETATM    3  C   UNK N   1      33.828  10.453  13.488  0.00  0.00     0.041 A 
HETATM    4  C   UNK N   1      34.076  10.595  12.118  0.00  0.00     0.040 A 
HETATM    5  C   UNK N   1      35.031  11.595  12.023  0.00  0.00     0.077 A 
ENDROOT
BRANCH   5   6
HETATM    6  C   UNK N   1      35.669  12.148  10.811  0.00  0.00     0.061 C 
HETATM    7  C   UNK N   1      35.494  13.441  10.438  0.00  0.00     0.079 A 
HETATM    8  S   UNK N   1      34.490  14.662  11.339  0.00  0.00    -0.049 SA
HETATM    9  C   UNK N   1      36.106  14.024   9.244  0.00  0.00     0.264 A 
HETATM   10  C   UNK N   1      34.970  15.824  10.062  0.00  0.00     0.145 A 
HETATM   11  N   UNK N   1      34.566  17.040  10.061  0.00  0.00    -0.380 N 
HETATM   12  N   UNK N   1      35.811  15.319   9.054  0.00  0.00    -0.303 N 
HETATM   13  H   UNK N   1      34.850  17.652   9.344  0.00  0.00     0.158 HD
ATOM     14  HN  UNK N   1      33.950  17.373  10.803  1.00  0.00     0.158 HD
HETATM   15  H   UNK N   1      36.145  15.853   8.297  0.00  0.00     0.171 HD
HETATM   16  O   UNK N   1      36.823  13.406   8.478  0.00  0.00    -0.267 OA
ENDBRANCH   5   6
BRANCH   1  17
HETATM   17  C   UNK N   1      34.850  11.698  15.520  0.00  0.00    -0.002 A 
HETATM   18  C   UNK N   1      35.136  10.625  16.371  0.00  0.00     0.015 A 
HETATM   19  C   UNK N   1      35.327  10.822  17.729  0.00  0.00     0.019 A 
HETATM   20  C   UNK N   1      35.234  12.102  18.269  0.00  0.00     0.037 A 
HETATM   21  C   UNK N   1      34.948  13.193  17.424  0.00  0.00     0.019 A 
HETATM   22  C   UNK N   1      34.755  12.993  16.046  0.00  0.00     0.015 A 
BRANCH  20  23
HETATM   23  C   UNK N   1      35.437  12.278  19.718  0.00  0.00     0.176 C 
HETATM   24  O   UNK N   1      36.165  11.522  20.338  0.00  0.00    -0.646 OA
BRANCH  23  25
HETATM   25  O   UNK N   1      34.817  13.286  20.368  0.00  0.00    -0.773 OA
HETATM   26  H   UNK N   1      34.933  13.389  21.292  0.00  0.00     0.167 HD
ENDBRANCH  23  25
ENDBRANCH  20  23
ENDBRANCH   1  17
TORSDOF 4
ENDMDL
MODEL 5
REMARK VINA RESULT:      -6.9      1.612      2.064
REMARK  4 active torsions:
REMARK  status: ('A' for Active; 'I' for Inactive)
REMARK    1  A    between atoms: O_2  and  C_21 
REMARK    2  A    between atoms: C_3  and  C_21 
REMARK    3  A    between atoms: C_6  and  C_9 
REMARK    4  A    between atoms: C_13  and  C_14 
ROOT
HETATM    1  C   UNK N   1      36.283  12.043  14.275  0.00  0.00     0.086 A 
HETATM    2  O   UNK N   1      35.387  12.387  13.406  0.00  0.00    -0.310 OA
HETATM    3  C   UNK N   1      37.455  11.690  13.623  0.00  0.00     0.041 A 
HETATM    4  C   UNK N   1      37.179  11.855  12.261  0.00  0.00     0.040 A 
HETATM    5  C   UNK N   1      35.865  12.294  12.207  0.00  0.00     0.077 A 
ENDROOT
BRANCH   5   6
HETATM    6  C   UNK N   1      35.057  12.637  11.019  0.00  0.00     0.061 C 
HETATM    7  C   UNK N   1      34.949  13.912  10.572  0.00  0.00     0.079 A 
HETATM    8  S   UNK N   1      35.758  15.357  11.326  0.00  0.00    -0.049 SA
HETATM    9  C   UNK N   1      34.156  14.290   9.401  0.00  0.00     0.264 A 
HETATM   10  C   UNK N   1      34.979  16.322  10.033  0.00  0.00     0.145 A 
HETATM   11  N   UNK N   1      35.130  17.590   9.945  0.00  0.00    -0.380 N 
HETATM   12  N   UNK N   1      34.182  15.602   9.123  0.00  0.00    -0.303 N 
HETATM   13  H   UNK N   1      34.688  18.090   9.220  0.00  0.00     0.158 HD
ATOM     14  HN  UNK N   1      35.708  18.084  10.625  1.00  0.00     0.158 HD
HETATM   15  H   UNK N   1      33.700  16.013   8.369  0.00  0.00     0.171 HD
HETATM   16  O   UNK N   1      33.522  13.500   8.727  0.00  0.00    -0.267 OA
ENDBRANCH   5   6
BRANCH   1  17
HETATM   17  C   UNK N   1      35.956  12.084  15.703  0.00  0.00    -0.002 A 
HETATM   18  C   UNK N   1      35.580  13.326  16.227  0.00  0.00     0.015 A 
HETATM   19  C   UNK N   1      35.262  13.469  17.567  0.00  0.00     0.019 A 
HETATM   20  C   UNK N   1      35.315  12.369  18.419  0.00  0.00     0.037 A 
HETATM   21  C   UNK N   1      35.692  11.111  17.906  0.00  0.00     0.019 A 
HETATM   22  C   UNK N   1      36.013  10.966  16.545  0.00  0.00     0.015 A 
BRANCH  20  23
HETATM   23  C   UNK N   1      34.977  12.554  19.841  0.00  0.00     0.176 C 
HETATM   24  O   UNK N   1      34.626  13.645  20.257  0.00  0.00    -0.646 OA
BRANCH  23  25
HETATM   25  O   UNK N   1      35.050  11.510  20.693  0.00  0.00    -0.773 OA
HETATM   26  H   UNK N   1      34.776  10.658  20.415  0.00  0.00     0.167 HD
ENDBRANCH  23  25
ENDBRANCH  20  23
ENDBRANCH   1  17
TORSDOF 4
ENDMDL
MODEL 6
REMARK VINA RESULT:      -6.9     13.257     15.851
REMARK  4 active torsions:
REMARK  status: ('A' for Active; 'I' for Inactive)
REMARK    1  A    between atoms: O_2  and  C_21 
REMARK    2  A    between atoms: C_3  and  C_21 
REMARK    3  A    between atoms: C_6  and  C_9 
REMARK    4  A    between atoms: C_13  and  C_14 
ROOT
HETATM    1  C   UNK N   1      21.157  14.372   7.103  0.00  0.00     0.086 A 
HETATM    2  O   UNK N   1      21.330  15.636   6.879  0.00  0.00    -0.310 OA
HETATM    3  C   UNK N   1      20.342  13.831   6.121  0.00  0.00     0.041 A 
HETATM    4  C   UNK N   1      20.035  14.900   5.272  0.00  0.00     0.040 A 
HETATM    5  C   UNK N   1      20.690  15.995   5.813  0.00  0.00     0.077 A 
ENDROOT
BRANCH   5   6
HETATM    6  C   UNK N   1      20.722  17.386   5.319  0.00  0.00     0.061 C 
HETATM    7  C   UNK N   1      20.562  17.682   4.005  0.00  0.00     0.079 A 
HETATM    8  S   UNK N   1      20.285  16.461   2.685  0.00  0.00    -0.049 SA
HETATM    9  C   UNK N   1      20.589  19.047   3.479  0.00  0.00     0.264 A 
HETATM   10  C   UNK N   1      20.231  17.859   1.565  0.00  0.00     0.145 A 
HETATM   11  N   UNK N   1      20.050  17.716   0.305  0.00  0.00    -0.380 N 
HETATM   12  N   UNK N   1      20.409  19.126   2.152  0.00  0.00    -0.303 N 
HETATM   13  H   UNK N   1      20.024  18.507  -0.281  0.00  0.00     0.158 HD
ATOM     14  HN  UNK N   1      19.932  16.783  -0.090  1.00  0.00     0.158 HD
HETATM   15  H   UNK N   1      20.402  19.972   1.647  0.00  0.00     0.171 HD
HETATM   16  O   UNK N   1      20.760  20.037   4.166  0.00  0.00    -0.267 OA
ENDBRANCH   5   6
BRANCH   1  17
HETATM   17  C   UNK N   1      21.804  13.750   8.261  0.00  0.00    -0.002 A 
HETATM   18  C   UNK N   1      20.999  13.517   9.382  0.00  0.00     0.015 A 
HETATM   19  C   UNK N   1      21.521  12.943  10.529  0.00  0.00     0.019 A 
HETATM   20  C   UNK N   1      22.866  12.588  10.583  0.00  0.00     0.037 A 
HETATM   21  C   UNK N   1      23.690  12.814   9.462  0.00  0.00     0.019 A 
HETATM   22  C   UNK N   1      23.159  13.397   8.297  0.00  0.00     0.015 A 
BRANCH  20  23
HETATM   23  C   UNK N   1      23.393  11.984  11.820  0.00  0.00     0.176 C 
HETATM   24  O   UNK N   1      24.592  11.973  12.042  0.00  0.00    -0.646 OA
BRANCH  23  25
HETATM   25  O   UNK N   1      22.546  11.440  12.718  0.00  0.00    -0.773 OA
HETATM   26  H   UNK N   1      22.203  11.964  13.415  0.00  0.00     0.167 HD
ENDBRANCH  23  25
ENDBRANCH  20  23
ENDBRANCH   1  17
TORSDOF 4
ENDMDL
MODEL 7
REMARK VINA RESULT:      -6.9      8.045     13.627
REMARK  4 active torsions:
REMARK  status: ('A' for Active; 'I' for Inactive)
REMARK    1  A    between atoms: O_2  and  C_21 
REMARK    2  A    between atoms: C_3  and  C_21 
REMARK    3  A    between atoms: C_6  and  C_9 
REMARK    4  A    between atoms: C_13  and  C_14 
ROOT
HETATM    1  C   UNK N   1      29.013  17.366   3.992  0.00  0.00     0.086 A 
HETATM    2  O   UNK N   1      29.969  17.878   4.700  0.00  0.00    -0.310 OA
HETATM    3  C   UNK N   1      29.432  16.162   3.444  0.00  0.00     0.041 A 
HETATM    4  C   UNK N   1      30.746  15.995   3.892  0.00  0.00     0.040 A 
HETATM    5  C   UNK N   1      31.010  17.109   4.673  0.00  0.00     0.077 A 
ENDROOT
BRANCH   5   6
HETATM    6  C   UNK N   1      32.246  17.450   5.406  0.00  0.00     0.061 C 
HETATM    7  C   UNK N   1      32.497  16.966   6.648  0.00  0.00     0.079 A 
HETATM    8  S   UNK N   1      31.398  15.854   7.579  0.00  0.00    -0.049 SA
HETATM    9  C   UNK N   1      33.708  17.282   7.405  0.00  0.00     0.264 A 
HETATM   10  C   UNK N   1      32.634  15.909   8.876  0.00  0.00     0.145 A 
HETATM   11  N   UNK N   1      32.492  15.273   9.978  0.00  0.00    -0.380 N 
HETATM   12  N   UNK N   1      33.766  16.701   8.613  0.00  0.00    -0.303 N 
HETATM   13  H   UNK N   1      33.192  15.325  10.669  0.00  0.00     0.158 HD
ATOM     14  HN  UNK N   1      31.655  14.714  10.141  1.00  0.00     0.158 HD
HETATM   15  H   UNK N   1      34.516  16.816   9.242  0.00  0.00     0.171 HD
HETATM   16  O   UNK N   1      34.596  18.007   6.995  0.00  0.00    -0.267 OA
ENDBRANCH   5   6
BRANCH   1  17
HETATM   17  C   UNK N   1      27.733  18.069   3.892  0.00  0.00    -0.002 A 
HETATM   18  C   UNK N   1      26.603  17.287   3.626  0.00  0.00     0.015 A 
HETATM   19  C   UNK N   1      25.349  17.861   3.504  0.00  0.00     0.019 A 
HETATM   20  C   UNK N   1      25.194  19.238   3.643  0.00  0.00     0.037 A 
HETATM   21  C   UNK N   1      26.322  20.039   3.912  0.00  0.00     0.019 A 
HETATM   22  C   UNK N   1      27.595  19.456   4.038  0.00  0.00     0.015 A 
BRANCH  20  23
HETATM   23  C   UNK N   1      23.848  19.820   3.501  0.00  0.00     0.176 C 
HETATM   24  O   UNK N   1      22.862  19.190   3.844  0.00  0.00    -0.646 OA
BRANCH  23  25
HETATM   25  O   UNK N   1      23.700  21.060   2.991  0.00  0.00    -0.773 OA
HETATM   26  H   UNK N   1      24.404  21.460   2.519  0.00  0.00     0.167 HD
ENDBRANCH  23  25
ENDBRANCH  20  23
ENDBRANCH   1  17
TORSDOF 4
ENDMDL
MODEL 8
REMARK VINA RESULT:      -6.8      8.807     11.954
REMARK  4 active torsions:
REMARK  status: ('A' for Active; 'I' for Inactive)
REMARK    1  A    between atoms: O_2  and  C_21 
REMARK    2  A    between atoms: C_3  and  C_21 
REMARK    3  A    between atoms: C_6  and  C_9 
REMARK    4  A    between atoms: C_13  and  C_14 
ROOT
HETATM    1  C   UNK N   1      30.587  16.735   4.655  0.00  0.00     0.086 A 
HETATM    2  O   UNK N   1      29.325  16.607   4.918  0.00  0.00    -0.310 OA
HETATM    3  C   UNK N   1      30.811  16.496   3.308  0.00  0.00     0.041 A 
HETATM    4  C   UNK N   1      29.551  16.205   2.775  0.00  0.00     0.040 A 
HETATM    5  C   UNK N   1      28.673  16.296   3.844  0.00  0.00     0.077 A 
ENDROOT
BRANCH   5   6
HETATM    6  C   UNK N   1      27.210  16.096   3.854  0.00  0.00     0.061 C 
HETATM    7  C   UNK N   1      26.346  17.142   3.827  0.00  0.00     0.079 A 
HETATM    8  S   UNK N   1      26.828  18.895   3.768  0.00  0.00    -0.049 SA
HETATM    9  C   UNK N   1      24.891  16.984   3.839  0.00  0.00     0.264 A 
HETATM   10  C   UNK N   1      25.072  19.256   3.764  0.00  0.00     0.145 A 
HETATM   11  N   UNK N   1      24.624  20.455   3.734  0.00  0.00    -0.380 N 
HETATM   12  N   UNK N   1      24.214  18.142   3.805  0.00  0.00    -0.303 N 
HETATM   13  H   UNK N   1      23.653  20.618   3.731  0.00  0.00     0.158 HD
ATOM     14  HN  UNK N   1      25.273  21.242   3.712  1.00  0.00     0.158 HD
HETATM   15  H   UNK N   1      23.232  18.204   3.808  0.00  0.00     0.171 HD
HETATM   16  O   UNK N   1      24.325  15.907   3.876  0.00  0.00    -0.267 OA
ENDBRANCH   5   6
BRANCH   1  17
HETATM   17  C   UNK N   1      31.514  17.097   5.731  0.00  0.00    -0.002 A 
HETATM   18  C   UNK N   1      32.853  17.286   5.370  0.00  0.00     0.015 A 
HETATM   19  C   UNK N   1      33.807  17.620   6.317  0.00  0.00     0.019 A 
HETATM   20  C   UNK N   1      33.443  17.770   7.653  0.00  0.00     0.037 A 
HETATM   21  C   UNK N   1      32.099  17.584   8.031  0.00  0.00     0.019 A 
HETATM   22  C   UNK N   1      31.130  17.247   7.070  0.00  0.00     0.015 A 
BRANCH  20  23
HETATM   23  C   UNK N   1      34.483  18.120   8.638  0.00  0.00     0.176 C 
HETATM   24  O   UNK N   1      35.233  19.060   8.438  0.00  0.00    -0.646 OA
BRANCH  23  25
HETATM   25  O   UNK N   1      34.606  17.399   9.772  0.00  0.00    -0.773 OA
HETATM   26  H   UNK N   1      35.423  17.384  10.230  0.00  0.00     0.167 HD
ENDBRANCH  23  25
ENDBRANCH  20  23
ENDBRANCH   1  17
TORSDOF 4
ENDMDL
MODEL 9
REMARK VINA RESULT:      -6.8      1.935      2.691
REMARK  4 active torsions:
REMARK  status: ('A' for Active; 'I' for Inactive)
REMARK    1  A    between atoms: O_2  and  C_21 
REMARK    2  A    between atoms: C_3  and  C_21 
REMARK    3  A    between atoms: C_6  and  C_9 
REMARK    4  A    between atoms: C_13  and  C_14 
ROOT
HETATM    1  C   UNK N   1      35.852  13.245  12.756  0.00  0.00     0.086 A 
HETATM    2  O   UNK N   1      34.848  13.615  12.025  0.00  0.00    -0.310 OA
HETATM    3  C   UNK N   1      36.873  12.777  11.942  0.00  0.00     0.041 A 
HETATM    4  C   UNK N   1      36.385  12.900  10.637  0.00  0.00     0.040 A 
HETATM    5  C   UNK N   1      35.113  13.433  10.772  0.00  0.00     0.077 A 
ENDROOT
BRANCH   5   6
HETATM    6  C   UNK N   1      34.142  13.780   9.714  0.00  0.00     0.061 C 
HETATM    7  C   UNK N   1      34.039  15.040   9.225  0.00  0.00     0.079 A 
HETATM    8  S   UNK N   1      35.046  16.457   9.764  0.00  0.00    -0.049 SA
HETATM    9  C   UNK N   1      33.089  15.422   8.180  0.00  0.00     0.264 A 
HETATM   10  C   UNK N   1      34.124  17.418   8.564  0.00  0.00     0.145 A 
HETATM   11  N   UNK N   1      34.334  18.669   8.388  0.00  0.00    -0.380 N 
HETATM   12  N   UNK N   1      33.147  16.717   7.833  0.00  0.00    -0.303 N 
HETATM   13  H   UNK N   1      33.810  19.167   7.719  0.00  0.00     0.158 HD
ATOM     14  HN  UNK N   1      35.044  19.150   8.940  1.00  0.00     0.158 HD
HETATM   15  H   UNK N   1      32.573  17.129   7.147  0.00  0.00     0.171 HD
HETATM   16  O   UNK N   1      32.305  14.650   7.658  0.00  0.00    -0.267 OA
ENDBRANCH   5   6
BRANCH   1  17
HETATM   17  C   UNK N   1      35.770  13.374  14.212  0.00  0.00    -0.002 A 
HETATM   18  C   UNK N   1      34.716  12.708  14.846  0.00  0.00     0.015 A 
HETATM   19  C   UNK N   1      34.548  12.778  16.219  0.00  0.00     0.019 A 
HETATM   20  C   UNK N   1      35.434  13.522  16.994  0.00  0.00     0.037 A 
HETATM   21  C   UNK N   1      36.503  14.197  16.371  0.00  0.00     0.019 A 
HETATM   22  C   UNK N   1      36.673  14.125  14.977  0.00  0.00     0.015 A 
BRANCH  20  23
HETATM   23  C   UNK N   1      35.226  13.582  18.451  0.00  0.00     0.176 C 
HETATM   24  O   UNK N   1      35.112  14.656  19.017  0.00  0.00    -0.646 OA
BRANCH  23  25
HETATM   25  O   UNK N   1      35.158  12.441  19.170  0.00  0.00    -0.773 OA
HETATM   26  H   UNK N   1      35.832  12.234  19.786  0.00  0.00     0.167 HD
ENDBRANCH  23  25
ENDBRANCH  20  23
ENDBRANCH   1  17
TORSDOF 4
ENDMDL
