REMARK  4 active torsions:
REMARK  status: ('A' for Active; 'I' for Inactive)
REMARK    1  A    between atoms: S_2  and  N_4 
REMARK    2  A    between atoms: S_2  and  C_5 
REMARK    3  A    between atoms: C_8  and  C_11 
REMARK    4  A    between atoms: C_15  and  C_16 
ROOT
HETATM    1  C   UNK N   1      -1.906  -0.580  -0.292  0.00  0.00     0.086 A 
HETATM    2  O   UNK N   1      -0.822  -1.270  -0.443  0.00  0.00    -0.309 OA
HETATM    3  C   UNK N   1      -2.941  -1.415   0.099  0.00  0.00     0.041 A 
HETATM    4  C   UNK N   1      -2.374  -2.691   0.161  0.00  0.00     0.040 A 
HETATM    5  C   UNK N   1      -1.036  -2.515  -0.168  0.00  0.00     0.083 A 
ENDROOT
BRANCH   1   6
HETATM    6  C   UNK N   1      -1.802   0.877  -0.270  0.00  0.00    -0.002 A 
HETATM    7  C   UNK N   1      -2.699   1.678   0.443  0.00  0.00     0.016 A 
HETATM    8  C   UNK N   1      -2.380   3.022   0.693  0.00  0.00     0.026 A 
HETATM    9  C   UNK N   1      -1.172   3.582   0.223  0.00  0.00     0.079 A 
HETATM   10  C   UNK N   1      -0.301   2.756  -0.528  0.00  0.00     0.026 A 
HETATM   11  C   UNK N   1      -0.614   1.429  -0.757  0.00  0.00     0.016 A 
BRANCH   9  12
HETATM   12  S   UNK N   1      -0.736   5.294   0.768  0.00  0.00     0.256 S 
HETATM   13  O   UNK N   1      -0.232   6.509  -0.022  0.00  0.00    -0.201 OA
HETATM   14  O   UNK N   1       0.713   4.811   0.574  0.00  0.00    -0.201 OA
BRANCH  12  15
HETATM   15  N   UNK N   1      -1.374   5.222  -0.881  0.00  0.00    -0.324 N 
HETATM   16  H   UNK N   1      -1.594   5.520  -1.831  0.00  0.00     0.169 HD
HETATM   17  H   UNK N   1      -1.783   4.288  -0.881  0.00  0.00     0.169 HD
ENDBRANCH  12  15
ENDBRANCH   9  12
ENDBRANCH   1   6
BRANCH   5  18
HETATM   18  C   UNK N   1       0.084  -3.476   0.005  0.00  0.00    -0.005 C 
HETATM   19  C   UNK N   1       1.388  -3.052  -0.069  0.00  0.00     0.085 A 
HETATM   20  S   UNK N   1       1.892  -1.342  -0.458  0.00  0.00    -0.048 SA
HETATM   21  C   UNK N   1       2.573  -3.886   0.225  0.00  0.00     0.265 A 
HETATM   22  C   UNK N   1       3.571  -1.861  -0.131  0.00  0.00     0.145 A 
HETATM   23  N   UNK N   1       4.534  -1.022  -0.042  0.00  0.00    -0.380 N 
HETATM   24  N   UNK N   1       3.736  -3.216   0.202  0.00  0.00    -0.303 N 
HETATM   25  H   UNK N   1       5.463  -1.341   0.027  0.00  0.00     0.158 HD
ATOM     26  HN  UNK N   1       4.338  -0.021  -0.042  1.00  0.00     0.158 HD
HETATM   27  H   UNK N   1       4.609  -3.629   0.397  0.00  0.00     0.171 HD
HETATM   28  O   UNK N   1       2.526  -5.065   0.522  0.00  0.00    -0.267 OA
HETATM   29  C   UNK N   1      -0.250  -4.886   0.382  0.00  0.00     0.052 C 
ENDBRANCH   5  18
TORSDOF 4
