MODEL 1
REMARK VINA RESULT:      -7.4      0.000      0.000
REMARK  4 active torsions:
REMARK  status: ('A' for Active; 'I' for Inactive)
REMARK    1  A    between atoms: S_2  and  N_4 
REMARK    2  A    between atoms: S_2  and  C_5 
REMARK    3  A    between atoms: C_8  and  C_11 
REMARK    4  A    between atoms: C_15  and  C_16 
ROOT
HETATM    1  C   UNK N   1      34.242  16.513   8.912  0.00  0.00     0.086 A 
HETATM    2  O   UNK N   1      33.311  16.135   8.097  0.00  0.00    -0.309 OA
HETATM    3  C   UNK N   1      34.594  17.826   8.644  0.00  0.00     0.041 A 
HETATM    4  C   UNK N   1      33.784  18.207   7.571  0.00  0.00     0.040 A 
HETATM    5  C   UNK N   1      32.988  17.101   7.300  0.00  0.00     0.083 A 
ENDROOT
BRANCH   1   6
HETATM    6  C   UNK N   1      34.534  15.669  10.069  0.00  0.00    -0.002 A 
HETATM    7  C   UNK N   1      34.258  14.298  10.080  0.00  0.00     0.016 A 
HETATM    8  C   UNK N   1      34.836  13.484  11.068  0.00  0.00     0.026 A 
HETATM    9  C   UNK N   1      35.680  14.031  12.058  0.00  0.00     0.079 A 
HETATM   10  C   UNK N   1      35.910  15.428  12.043  0.00  0.00     0.026 A 
HETATM   11  C   UNK N   1      35.352  16.221  11.058  0.00  0.00     0.016 A 
BRANCH   9  12
HETATM   12  S   UNK N   1      36.559  12.865  13.193  0.00  0.00     0.256 S 
HETATM   13  O   UNK N   1      37.638  11.809  12.920  0.00  0.00    -0.201 OA
HETATM   14  O   UNK N   1      35.638  11.808  12.556  0.00  0.00    -0.201 OA
BRANCH  12  15
HETATM   15  N   UNK N   1      37.542  13.380  11.814  0.00  0.00    -0.324 N 
HETATM   16  H   UNK N   1      38.172  13.954  11.256  0.00  0.00     0.169 HD
HETATM   17  H   UNK N   1      37.363  12.615  11.164  0.00  0.00     0.169 HD
ENDBRANCH  12  15
ENDBRANCH   9  12
ENDBRANCH   1   6
BRANCH   5  18
HETATM   18  C   UNK N   1      31.770  17.034   6.452  0.00  0.00    -0.005 C 
HETATM   19  C   UNK N   1      30.529  17.277   6.988  0.00  0.00     0.085 A 
HETATM   20  S   UNK N   1      30.222  17.616   8.754  0.00  0.00    -0.048 SA
HETATM   21  C   UNK N   1      29.272  17.376   6.216  0.00  0.00     0.265 A 
HETATM   22  C   UNK N   1      28.519  17.921   8.304  0.00  0.00     0.145 A 
HETATM   23  N   UNK N   1      27.681  18.429   9.128  0.00  0.00    -0.380 N 
HETATM   24  N   UNK N   1      28.207  17.742   6.946  0.00  0.00    -0.303 N 
HETATM   25  H   UNK N   1      26.726  18.483   8.892  0.00  0.00     0.158 HD
ATOM     26  HN  UNK N   1      28.003  18.778  10.030  1.00  0.00     0.158 HD
HETATM   27  H   UNK N   1      27.305  17.870   6.570  0.00  0.00     0.171 HD
HETATM   28  O   UNK N   1      29.190  17.205   5.014  0.00  0.00    -0.267 OA
HETATM   29  C   UNK N   1      31.947  16.816   4.981  0.00  0.00     0.052 C 
ENDBRANCH   5  18
TORSDOF 4
ENDMDL
MODEL 2
REMARK VINA RESULT:      -7.3      3.160      4.654
REMARK  4 active torsions:
REMARK  status: ('A' for Active; 'I' for Inactive)
REMARK    1  A    between atoms: S_2  and  N_4 
REMARK    2  A    between atoms: S_2  and  C_5 
REMARK    3  A    between atoms: C_8  and  C_11 
REMARK    4  A    between atoms: C_15  and  C_16 
ROOT
HETATM    1  C   UNK N   1      30.409  17.879   8.075  0.00  0.00     0.086 A 
HETATM    2  O   UNK N   1      29.730  17.475   7.050  0.00  0.00    -0.309 OA
HETATM    3  C   UNK N   1      29.585  18.601   8.925  0.00  0.00     0.041 A 
HETATM    4  C   UNK N   1      28.333  18.602   8.303  0.00  0.00     0.040 A 
HETATM    5  C   UNK N   1      28.498  17.854   7.144  0.00  0.00     0.083 A 
ENDROOT
BRANCH   1   6
HETATM    6  C   UNK N   1      31.735  17.309   8.296  0.00  0.00    -0.002 A 
HETATM    7  C   UNK N   1      32.896  18.087   8.269  0.00  0.00     0.016 A 
HETATM    8  C   UNK N   1      34.091  17.569   8.792  0.00  0.00     0.026 A 
HETATM    9  C   UNK N   1      34.142  16.266   9.334  0.00  0.00     0.079 A 
HETATM   10  C   UNK N   1      32.959  15.488   9.314  0.00  0.00     0.026 A 
HETATM   11  C   UNK N   1      31.782  16.010   8.811  0.00  0.00     0.016 A 
BRANCH   9  12
HETATM   12  S   UNK N   1      35.696  15.737  10.184  0.00  0.00     0.256 S 
HETATM   13  O   UNK N   1      36.049  15.632  11.673  0.00  0.00    -0.201 OA
HETATM   14  O   UNK N   1      35.871  17.244  10.448  0.00  0.00    -0.201 OA
BRANCH  12  15
HETATM   15  N   UNK N   1      34.231  15.368  11.104  0.00  0.00    -0.324 N 
HETATM   16  H   UNK N   1      33.344  15.519  11.585  0.00  0.00     0.169 HD
HETATM   17  H   UNK N   1      34.347  14.364  11.244  0.00  0.00     0.169 HD
ENDBRANCH  12  15
ENDBRANCH   9  12
ENDBRANCH   1   6
BRANCH   5  18
HETATM   18  C   UNK N   1      27.445  17.302   6.252  0.00  0.00    -0.005 C 
HETATM   19  C   UNK N   1      26.860  18.089   5.291  0.00  0.00     0.085 A 
HETATM   20  S   UNK N   1      27.224  19.861   5.052  0.00  0.00    -0.048 SA
HETATM   21  C   UNK N   1      25.911  17.613   4.262  0.00  0.00     0.265 A 
HETATM   22  C   UNK N   1      26.171  19.787   3.608  0.00  0.00     0.145 A 
HETATM   23  N   UNK N   1      26.104  20.751   2.769  0.00  0.00    -0.380 N 
HETATM   24  N   UNK N   1      25.569  18.543   3.357  0.00  0.00    -0.303 N 
HETATM   25  H   UNK N   1      25.436  20.732   2.046  0.00  0.00     0.158 HD
ATOM     26  HN  UNK N   1      26.745  21.541   2.849  1.00  0.00     0.158 HD
HETATM   27  H   UNK N   1      24.962  18.372   2.600  0.00  0.00     0.171 HD
HETATM   28  O   UNK N   1      25.502  16.469   4.182  0.00  0.00    -0.267 OA
HETATM   29  C   UNK N   1      27.132  15.842   6.351  0.00  0.00     0.052 C 
ENDBRANCH   5  18
TORSDOF 4
ENDMDL
MODEL 3
REMARK VINA RESULT:      -7.3     14.118     15.842
REMARK  4 active torsions:
REMARK  status: ('A' for Active; 'I' for Inactive)
REMARK    1  A    between atoms: S_2  and  N_4 
REMARK    2  A    between atoms: S_2  and  C_5 
REMARK    3  A    between atoms: C_8  and  C_11 
REMARK    4  A    between atoms: C_15  and  C_16 
ROOT
HETATM    1  C   UNK N   1      29.839  22.605  -3.284  0.00  0.00     0.086 A 
HETATM    2  O   UNK N   1      29.214  23.129  -4.288  0.00  0.00    -0.309 OA
HETATM    3  C   UNK N   1      29.172  22.911  -2.107  0.00  0.00     0.041 A 
HETATM    4  C   UNK N   1      28.078  23.687  -2.502  0.00  0.00     0.040 A 
HETATM    5  C   UNK N   1      28.159  23.758  -3.887  0.00  0.00     0.083 A 
ENDROOT
BRANCH   1   6
HETATM    6  C   UNK N   1      30.881  21.618  -3.554  0.00  0.00    -0.002 A 
HETATM    7  C   UNK N   1      30.848  20.788  -4.679  0.00  0.00     0.016 A 
HETATM    8  C   UNK N   1      32.005  20.092  -5.061  0.00  0.00     0.026 A 
HETATM    9  C   UNK N   1      33.201  20.207  -4.319  0.00  0.00     0.079 A 
HETATM   10  C   UNK N   1      33.193  21.026  -3.164  0.00  0.00     0.026 A 
HETATM   11  C   UNK N   1      32.054  21.720  -2.802  0.00  0.00     0.016 A 
BRANCH   9  12
HETATM   12  S   UNK N   1      34.729  19.423  -5.003  0.00  0.00     0.256 S 
HETATM   13  O   UNK N   1      35.694  18.393  -4.400  0.00  0.00    -0.201 OA
HETATM   14  O   UNK N   1      35.454  20.379  -4.038  0.00  0.00    -0.201 OA
BRANCH  12  15
HETATM   15  N   UNK N   1      33.841  18.375  -3.888  0.00  0.00    -0.324 N 
HETATM   16  H   UNK N   1      33.596  17.541  -3.355  0.00  0.00     0.169 HD
HETATM   17  H   UNK N   1      33.102  19.010  -3.586  0.00  0.00     0.169 HD
ENDBRANCH  12  15
ENDBRANCH   9  12
ENDBRANCH   1   6
BRANCH   5  18
HETATM   18  C   UNK N   1      27.118  24.218  -4.842  0.00  0.00    -0.005 C 
HETATM   19  C   UNK N   1      26.483  25.422  -4.660  0.00  0.00     0.085 A 
HETATM   20  S   UNK N   1      26.763  26.526  -3.234  0.00  0.00    -0.048 SA
HETATM   21  C   UNK N   1      25.540  26.041  -5.616  0.00  0.00     0.265 A 
HETATM   22  C   UNK N   1      25.693  27.701  -4.051  0.00  0.00     0.145 A 
HETATM   23  N   UNK N   1      25.569  28.906  -3.638  0.00  0.00    -0.380 N 
HETATM   24  N   UNK N   1      25.142  27.277  -5.273  0.00  0.00    -0.303 N 
HETATM   25  H   UNK N   1      24.891  29.499  -4.037  0.00  0.00     0.158 HD
ATOM     26  HN  UNK N   1      26.175  29.253  -2.894  1.00  0.00     0.158 HD
HETATM   27  H   UNK N   1      24.532  27.826  -5.818  0.00  0.00     0.171 HD
HETATM   28  O   UNK N   1      25.182  25.526  -6.658  0.00  0.00    -0.267 OA
HETATM   29  C   UNK N   1      26.873  23.393  -6.067  0.00  0.00     0.052 C 
ENDBRANCH   5  18
TORSDOF 4
ENDMDL
MODEL 4
REMARK VINA RESULT:      -7.1      1.662      2.396
REMARK  4 active torsions:
REMARK  status: ('A' for Active; 'I' for Inactive)
REMARK    1  A    between atoms: S_2  and  N_4 
REMARK    2  A    between atoms: S_2  and  C_5 
REMARK    3  A    between atoms: C_8  and  C_11 
REMARK    4  A    between atoms: C_15  and  C_16 
ROOT
HETATM    1  C   UNK N   1      34.026  16.638   9.049  0.00  0.00     0.086 A 
HETATM    2  O   UNK N   1      32.742  16.510   8.951  0.00  0.00    -0.309 OA
HETATM    3  C   UNK N   1      34.444  17.733   8.310  0.00  0.00     0.041 A 
HETATM    4  C   UNK N   1      33.278  18.255   7.743  0.00  0.00     0.040 A 
HETATM    5  C   UNK N   1      32.249  17.449   8.212  0.00  0.00     0.083 A 
ENDROOT
BRANCH   1   6
HETATM    6  C   UNK N   1      34.724  15.857  10.068  0.00  0.00    -0.002 A 
HETATM    7  C   UNK N   1      35.669  16.427  10.926  0.00  0.00     0.016 A 
HETATM    8  C   UNK N   1      36.072  15.729  12.075  0.00  0.00     0.026 A 
HETATM    9  C   UNK N   1      35.546  14.452  12.371  0.00  0.00     0.079 A 
HETATM   10  C   UNK N   1      34.618  13.885  11.464  0.00  0.00     0.026 A 
HETATM   11  C   UNK N   1      34.214  14.585  10.342  0.00  0.00     0.016 A 
BRANCH   9  12
HETATM   12  S   UNK N   1      35.972  13.692  14.002  0.00  0.00     0.256 S 
HETATM   13  O   UNK N   1      36.707  12.391  14.350  0.00  0.00    -0.201 OA
HETATM   14  O   UNK N   1      34.822  12.725  13.667  0.00  0.00    -0.201 OA
BRANCH  12  15
HETATM   15  N   UNK N   1      37.145  13.328  12.728  0.00  0.00    -0.324 N 
HETATM   16  H   UNK N   1      37.675  13.431  11.863  0.00  0.00     0.169 HD
HETATM   17  H   UNK N   1      37.546  12.462  13.088  0.00  0.00     0.169 HD
ENDBRANCH  12  15
ENDBRANCH   9  12
ENDBRANCH   1   6
BRANCH   5  18
HETATM   18  C   UNK N   1      30.786  17.704   8.153  0.00  0.00    -0.005 C 
HETATM   19  C   UNK N   1      29.992  17.022   7.264  0.00  0.00     0.085 A 
HETATM   20  S   UNK N   1      30.617  15.828   6.034  0.00  0.00    -0.048 SA
HETATM   21  C   UNK N   1      28.516  17.091   7.214  0.00  0.00     0.265 A 
HETATM   22  C   UNK N   1      28.909  15.488   5.633  0.00  0.00     0.145 A 
HETATM   23  N   UNK N   1      28.572  14.510   4.879  0.00  0.00    -0.380 N 
HETATM   24  N   UNK N   1      27.955  16.241   6.339  0.00  0.00    -0.303 N 
HETATM   25  H   UNK N   1      27.638  14.411   4.584  0.00  0.00     0.158 HD
ATOM     26  HN  UNK N   1      29.273  13.831   4.583  1.00  0.00     0.158 HD
HETATM   27  H   UNK N   1      26.983  16.155   6.206  0.00  0.00     0.171 HD
HETATM   28  O   UNK N   1      27.837  17.802   7.931  0.00  0.00    -0.267 OA
HETATM   29  C   UNK N   1      30.191  18.630   9.168  0.00  0.00     0.052 C 
ENDBRANCH   5  18
TORSDOF 4
ENDMDL
MODEL 5
REMARK VINA RESULT:      -7.0      5.765     11.859
REMARK  4 active torsions:
REMARK  status: ('A' for Active; 'I' for Inactive)
REMARK    1  A    between atoms: S_2  and  N_4 
REMARK    2  A    between atoms: S_2  and  C_5 
REMARK    3  A    between atoms: C_8  and  C_11 
REMARK    4  A    between atoms: C_15  and  C_16 
ROOT
HETATM    1  C   UNK N   1      25.785  19.686   5.138  0.00  0.00     0.086 A 
HETATM    2  O   UNK N   1      26.610  18.712   5.351  0.00  0.00    -0.309 OA
HETATM    3  C   UNK N   1      26.320  20.868   5.627  0.00  0.00     0.041 A 
HETATM    4  C   UNK N   1      27.557  20.508   6.171  0.00  0.00     0.040 A 
HETATM    5  C   UNK N   1      27.678  19.144   5.937  0.00  0.00     0.083 A 
ENDROOT
BRANCH   1   6
HETATM    6  C   UNK N   1      24.661  19.456   4.234  0.00  0.00    -0.002 A 
HETATM    7  C   UNK N   1      23.760  18.403   4.417  0.00  0.00     0.016 A 
HETATM    8  C   UNK N   1      22.537  18.409   3.727  0.00  0.00     0.026 A 
HETATM    9  C   UNK N   1      22.209  19.457   2.839  0.00  0.00     0.079 A 
HETATM   10  C   UNK N   1      23.158  20.490   2.646  0.00  0.00     0.026 A 
HETATM   11  C   UNK N   1      24.353  20.486   3.341  0.00  0.00     0.016 A 
BRANCH   9  12
HETATM   12  S   UNK N   1      20.502  19.494   2.129  0.00  0.00     0.256 S 
HETATM   13  O   UNK N   1      19.129  19.315   2.790  0.00  0.00    -0.201 OA
HETATM   14  O   UNK N   1      20.571  17.966   2.308  0.00  0.00    -0.201 OA
BRANCH  12  15
HETATM   15  N   UNK N   1      20.581  20.066   3.802  0.00  0.00    -0.324 N 
HETATM   16  H   UNK N   1      20.529  20.043   4.820  0.00  0.00     0.169 HD
HETATM   17  H   UNK N   1      20.847  21.039   3.653  0.00  0.00     0.169 HD
ENDBRANCH  12  15
ENDBRANCH   9  12
ENDBRANCH   1   6
BRANCH   5  18
HETATM   18  C   UNK N   1      28.895  18.299   6.055  0.00  0.00    -0.005 C 
HETATM   19  C   UNK N   1      29.334  17.872   7.283  0.00  0.00     0.085 A 
HETATM   20  S   UNK N   1      28.563  18.337   8.870  0.00  0.00    -0.048 SA
HETATM   21  C   UNK N   1      30.442  16.919   7.507  0.00  0.00     0.265 A 
HETATM   22  C   UNK N   1      29.700  17.201   9.650  0.00  0.00     0.145 A 
HETATM   23  N   UNK N   1      29.586  16.867  10.881  0.00  0.00    -0.380 N 
HETATM   24  N   UNK N   1      30.607  16.560   8.790  0.00  0.00    -0.303 N 
HETATM   25  H   UNK N   1      30.288  16.329  11.315  0.00  0.00     0.158 HD
ATOM     26  HN  UNK N   1      28.766  17.159  11.413  1.00  0.00     0.158 HD
HETATM   27  H   UNK N   1      31.290  15.917   9.095  0.00  0.00     0.171 HD
HETATM   28  O   UNK N   1      31.125  16.439   6.622  0.00  0.00    -0.267 OA
HETATM   29  C   UNK N   1      29.551  17.830   4.793  0.00  0.00     0.052 C 
ENDBRANCH   5  18
TORSDOF 4
ENDMDL
MODEL 6
REMARK VINA RESULT:      -6.8      1.869      2.563
REMARK  4 active torsions:
REMARK  status: ('A' for Active; 'I' for Inactive)
REMARK    1  A    between atoms: S_2  and  N_4 
REMARK    2  A    between atoms: S_2  and  C_5 
REMARK    3  A    between atoms: C_8  and  C_11 
REMARK    4  A    between atoms: C_15  and  C_16 
ROOT
HETATM    1  C   UNK N   1      34.248  16.307   9.377  0.00  0.00     0.086 A 
HETATM    2  O   UNK N   1      33.150  16.106   8.724  0.00  0.00    -0.309 OA
HETATM    3  C   UNK N   1      34.754  17.560   9.067  0.00  0.00     0.041 A 
HETATM    4  C   UNK N   1      33.851  18.098   8.145  0.00  0.00     0.040 A 
HETATM    5  C   UNK N   1      32.858  17.137   8.000  0.00  0.00     0.083 A 
ENDROOT
BRANCH   1   6
HETATM    6  C   UNK N   1      34.587  15.389  10.462  0.00  0.00    -0.002 A 
HETATM    7  C   UNK N   1      34.368  14.012  10.369  0.00  0.00     0.016 A 
HETATM    8  C   UNK N   1      34.989  13.148  11.285  0.00  0.00     0.026 A 
HETATM    9  C   UNK N   1      35.822  13.650  12.308  0.00  0.00     0.079 A 
HETATM   10  C   UNK N   1      35.994  15.053  12.400  0.00  0.00     0.026 A 
HETATM   11  C   UNK N   1      35.393  15.896  11.485  0.00  0.00     0.016 A 
BRANCH   9  12
HETATM   12  S   UNK N   1      36.760  12.438  13.341  0.00  0.00     0.256 S 
HETATM   13  O   UNK N   1      37.864  11.438  12.974  0.00  0.00    -0.201 OA
HETATM   14  O   UNK N   1      35.858  11.399  12.649  0.00  0.00    -0.201 OA
BRANCH  12  15
HETATM   15  N   UNK N   1      37.697  13.078  11.983  0.00  0.00    -0.324 N 
HETATM   16  H   UNK N   1      38.049  13.175  11.032  0.00  0.00     0.169 HD
HETATM   17  H   UNK N   1      38.214  13.822  12.449  0.00  0.00     0.169 HD
ENDBRANCH  12  15
ENDBRANCH   9  12
ENDBRANCH   1   6
BRANCH   5  18
HETATM   18  C   UNK N   1      31.524  17.287   7.364  0.00  0.00    -0.005 C 
HETATM   19  C   UNK N   1      31.402  17.345   5.998  0.00  0.00     0.085 A 
HETATM   20  S   UNK N   1      32.811  17.331   4.839  0.00  0.00    -0.048 SA
HETATM   21  C   UNK N   1      30.123  17.351   5.256  0.00  0.00     0.265 A 
HETATM   22  C   UNK N   1      31.607  17.262   3.520  0.00  0.00     0.145 A 
HETATM   23  N   UNK N   1      31.944  17.035   2.306  0.00  0.00    -0.380 N 
HETATM   24  N   UNK N   1      30.261  17.288   3.922  0.00  0.00    -0.303 N 
HETATM   25  H   UNK N   1      31.278  17.113   1.585  0.00  0.00     0.158 HD
ATOM     26  HN  UNK N   1      32.905  16.773   2.086  1.00  0.00     0.158 HD
HETATM   27  H   UNK N   1      29.502  17.264   3.295  0.00  0.00     0.171 HD
HETATM   28  O   UNK N   1      29.025  17.354   5.781  0.00  0.00    -0.267 OA
HETATM   29  C   UNK N   1      30.315  17.250   8.247  0.00  0.00     0.052 C 
ENDBRANCH   5  18
TORSDOF 4
ENDMDL
MODEL 7
REMARK VINA RESULT:      -6.8      2.343      8.547
REMARK  4 active torsions:
REMARK  status: ('A' for Active; 'I' for Inactive)
REMARK    1  A    between atoms: S_2  and  N_4 
REMARK    2  A    between atoms: S_2  and  C_5 
REMARK    3  A    between atoms: C_8  and  C_11 
REMARK    4  A    between atoms: C_15  and  C_16 
ROOT
HETATM    1  C   UNK N   1      32.456  17.290   7.958  0.00  0.00     0.086 A 
HETATM    2  O   UNK N   1      33.047  16.186   8.281  0.00  0.00    -0.309 OA
HETATM    3  C   UNK N   1      33.360  18.339   8.014  0.00  0.00     0.041 A 
HETATM    4  C   UNK N   1      34.566  17.757   8.416  0.00  0.00     0.040 A 
HETATM    5  C   UNK N   1      34.296  16.400   8.539  0.00  0.00     0.083 A 
ENDROOT
BRANCH   1   6
HETATM    6  C   UNK N   1      31.128  17.214   7.353  0.00  0.00    -0.002 A 
HETATM    7  C   UNK N   1      29.993  17.743   7.975  0.00  0.00     0.016 A 
HETATM    8  C   UNK N   1      28.818  17.927   7.231  0.00  0.00     0.026 A 
HETATM    9  C   UNK N   1      28.759  17.574   5.865  0.00  0.00     0.079 A 
HETATM   10  C   UNK N   1      29.912  17.006   5.272  0.00  0.00     0.026 A 
HETATM   11  C   UNK N   1      31.072  16.842   6.007  0.00  0.00     0.016 A 
BRANCH   9  12
HETATM   12  S   UNK N   1      27.245  18.037   4.911  0.00  0.00     0.256 S 
HETATM   13  O   UNK N   1      26.966  19.213   3.965  0.00  0.00    -0.201 OA
HETATM   14  O   UNK N   1      27.095  19.124   5.991  0.00  0.00    -0.201 OA
BRANCH  12  15
HETATM   15  N   UNK N   1      28.751  18.513   4.114  0.00  0.00    -0.324 N 
HETATM   16  H   UNK N   1      29.691  18.893   4.003  0.00  0.00     0.169 HD
HETATM   17  H   UNK N   1      28.553  18.226   3.156  0.00  0.00     0.169 HD
ENDBRANCH  12  15
ENDBRANCH   9  12
ENDBRANCH   1   6
BRANCH   5  18
HETATM   18  C   UNK N   1      35.265  15.282   8.670  0.00  0.00    -0.005 C 
HETATM   19  C   UNK N   1      35.834  14.987   9.884  0.00  0.00     0.085 A 
HETATM   20  S   UNK N   1      35.551  15.944  11.411  0.00  0.00    -0.048 SA
HETATM   21  C   UNK N   1      36.696  13.817  10.159  0.00  0.00     0.265 A 
HETATM   22  C   UNK N   1      36.513  14.699  12.260  0.00  0.00     0.145 A 
HETATM   23  N   UNK N   1      36.581  14.651  13.538  0.00  0.00    -0.380 N 
HETATM   24  N   UNK N   1      37.034  13.676  11.451  0.00  0.00    -0.303 N 
HETATM   25  H   UNK N   1      37.205  14.028  13.976  0.00  0.00     0.158 HD
ATOM     26  HN  UNK N   1      35.989  15.260  14.102  1.00  0.00     0.158 HD
HETATM   27  H   UNK N   1      37.586  12.935  11.794  0.00  0.00     0.171 HD
HETATM   28  O   UNK N   1      37.039  13.005   9.321  0.00  0.00    -0.267 OA
HETATM   29  C   UNK N   1      35.506  14.415   7.472  0.00  0.00     0.052 C 
ENDBRANCH   5  18
TORSDOF 4
ENDMDL
MODEL 8
REMARK VINA RESULT:      -6.7      3.154      4.679
REMARK  4 active torsions:
REMARK  status: ('A' for Active; 'I' for Inactive)
REMARK    1  A    between atoms: S_2  and  N_4 
REMARK    2  A    between atoms: S_2  and  C_5 
REMARK    3  A    between atoms: C_8  and  C_11 
REMARK    4  A    between atoms: C_15  and  C_16 
ROOT
HETATM    1  C   UNK N   1      30.112  17.777   8.430  0.00  0.00     0.086 A 
HETATM    2  O   UNK N   1      29.734  18.274   7.297  0.00  0.00    -0.309 OA
HETATM    3  C   UNK N   1      29.015  17.625   9.264  0.00  0.00     0.041 A 
HETATM    4  C   UNK N   1      27.927  18.093   8.521  0.00  0.00     0.040 A 
HETATM    5  C   UNK N   1      28.454  18.459   7.289  0.00  0.00     0.083 A 
ENDROOT
BRANCH   1   6
HETATM    6  C   UNK N   1      31.462  17.228   8.529  0.00  0.00    -0.002 A 
HETATM    7  C   UNK N   1      32.603  18.028   8.407  0.00  0.00     0.016 A 
HETATM    8  C   UNK N   1      33.848  17.527   8.819  0.00  0.00     0.026 A 
HETATM    9  C   UNK N   1      33.968  16.221   9.342  0.00  0.00     0.079 A 
HETATM   10  C   UNK N   1      32.802  15.422   9.420  0.00  0.00     0.026 A 
HETATM   11  C   UNK N   1      31.576  15.927   9.027  0.00  0.00     0.016 A 
BRANCH   9  12
HETATM   12  S   UNK N   1      35.600  15.714  10.048  0.00  0.00     0.256 S 
HETATM   13  O   UNK N   1      36.076  15.581  11.501  0.00  0.00    -0.201 OA
HETATM   14  O   UNK N   1      35.758  17.218  10.338  0.00  0.00    -0.201 OA
BRANCH  12  15
HETATM   15  N   UNK N   1      34.225  15.282  11.075  0.00  0.00    -0.324 N 
HETATM   16  H   UNK N   1      33.714  14.921  11.880  0.00  0.00     0.169 HD
HETATM   17  H   UNK N   1      33.451  15.586  10.485  0.00  0.00     0.169 HD
ENDBRANCH  12  15
ENDBRANCH   9  12
ENDBRANCH   1   6
BRANCH   5  18
HETATM   18  C   UNK N   1      27.721  18.761   6.032  0.00  0.00    -0.005 C 
HETATM   19  C   UNK N   1      27.341  17.750   5.183  0.00  0.00     0.085 A 
HETATM   20  S   UNK N   1      27.746  15.989   5.437  0.00  0.00    -0.048 SA
HETATM   21  C   UNK N   1      26.491  17.918   3.985  0.00  0.00     0.265 A 
HETATM   22  C   UNK N   1      26.718  15.644   4.015  0.00  0.00     0.145 A 
HETATM   23  N   UNK N   1      26.383  14.451   3.695  0.00  0.00    -0.380 N 
HETATM   24  N   UNK N   1      26.156  16.766   3.384  0.00  0.00    -0.303 N 
HETATM   25  H   UNK N   1      25.912  14.280   2.848  0.00  0.00     0.158 HD
ATOM     26  HN  UNK N   1      26.604  13.676   4.320  1.00  0.00     0.158 HD
HETATM   27  H   UNK N   1      25.578  16.713   2.587  0.00  0.00     0.171 HD
HETATM   28  O   UNK N   1      26.069  18.988   3.588  0.00  0.00    -0.267 OA
HETATM   29  C   UNK N   1      27.305  20.177   5.782  0.00  0.00     0.052 C 
ENDBRANCH   5  18
TORSDOF 4
ENDMDL
MODEL 9
REMARK VINA RESULT:      -6.7      2.939      8.778
REMARK  4 active torsions:
REMARK  status: ('A' for Active; 'I' for Inactive)
REMARK    1  A    between atoms: S_2  and  N_4 
REMARK    2  A    between atoms: S_2  and  C_5 
REMARK    3  A    between atoms: C_8  and  C_11 
REMARK    4  A    between atoms: C_15  and  C_16 
ROOT
HETATM    1  C   UNK N   1      31.419  17.269   5.622  0.00  0.00     0.086 A 
HETATM    2  O   UNK N   1      31.930  17.655   6.746  0.00  0.00    -0.309 OA
HETATM    3  C   UNK N   1      32.416  16.755   4.807  0.00  0.00     0.041 A 
HETATM    4  C   UNK N   1      33.593  16.879   5.552  0.00  0.00     0.040 A 
HETATM    5  C   UNK N   1      33.203  17.428   6.767  0.00  0.00     0.083 A 
ENDROOT
BRANCH   1   6
HETATM    6  C   UNK N   1      29.965  17.170   5.520  0.00  0.00    -0.002 A 
HETATM    7  C   UNK N   1      29.116  17.568   6.557  0.00  0.00     0.016 A 
HETATM    8  C   UNK N   1      27.748  17.752   6.301  0.00  0.00     0.026 A 
HETATM    9  C   UNK N   1      27.214  17.528   5.013  0.00  0.00     0.079 A 
HETATM   10  C   UNK N   1      28.092  17.091   3.992  0.00  0.00     0.026 A 
HETATM   11  C   UNK N   1      29.441  16.927   4.248  0.00  0.00     0.016 A 
BRANCH   9  12
HETATM   12  S   UNK N   1      25.449  17.989   4.712  0.00  0.00     0.256 S 
HETATM   13  O   UNK N   1      24.165  17.149   4.743  0.00  0.00    -0.201 OA
HETATM   14  O   UNK N   1      25.659  17.265   3.370  0.00  0.00    -0.201 OA
BRANCH  12  15
HETATM   15  N   UNK N   1      25.642  16.672   5.878  0.00  0.00    -0.324 N 
HETATM   16  H   UNK N   1      26.102  15.947   6.428  0.00  0.00     0.169 HD
HETATM   17  H   UNK N   1      24.683  16.575   6.209  0.00  0.00     0.169 HD
ENDBRANCH  12  15
ENDBRANCH   9  12
ENDBRANCH   1   6
BRANCH   5  18
HETATM   18  C   UNK N   1      33.989  17.520   8.025  0.00  0.00    -0.005 C 
HETATM   19  C   UNK N   1      34.076  16.446   8.876  0.00  0.00     0.085 A 
HETATM   20  S   UNK N   1      33.205  14.862   8.624  0.00  0.00    -0.048 SA
HETATM   21  C   UNK N   1      34.938  16.377  10.075  0.00  0.00     0.265 A 
HETATM   22  C   UNK N   1      34.097  14.253  10.049  0.00  0.00     0.145 A 
HETATM   23  N   UNK N   1      34.092  13.014  10.371  0.00  0.00    -0.380 N 
HETATM   24  N   UNK N   1      34.944  15.179  10.679  0.00  0.00    -0.303 N 
HETATM   25  H   UNK N   1      34.497  12.722  11.220  0.00  0.00     0.158 HD
ATOM     26  HN  UNK N   1      33.668  12.327   9.747  1.00  0.00     0.158 HD
HETATM   27  H   UNK N   1      35.484  14.971  11.477  0.00  0.00     0.171 HD
HETATM   28  O   UNK N   1      35.636  17.292  10.472  0.00  0.00    -0.267 OA
HETATM   29  C   UNK N   1      34.776  18.769   8.273  0.00  0.00     0.052 C 
ENDBRANCH   5  18
TORSDOF 4
ENDMDL
