REMARK  10 active torsions:
REMARK  status: ('A' for Active; 'I' for Inactive)
REMARK    1  A    between atoms: C_1  and  B_30 
REMARK    2  A    between atoms: N_2  and  C_12 
REMARK    3  A    between atoms: S_23  and  N_2 
REMARK    4  A    between atoms: C_8  and  S_26 
REMARK    5  A    between atoms: B_30  and  O_10 
REMARK    6  A    between atoms: C_21  and  C_13 
REMARK    7  A    between atoms: S_23  and  C_15 
REMARK    8  A    between atoms: C_21  and  O_24 
REMARK    9  A    between atoms: B_30  and  O_25 
REMARK   10  A    between atoms: S_26  and  C_29 
ROOT
HETATM    1  N   UNK N   1      -2.965  -0.779  -0.606  0.00  0.00    -0.279 N 
HETATM    2  H   UNK N   1      -3.225  -1.281  -1.412  0.00  0.00     0.179 HD
ENDROOT
BRANCH   1   3
HETATM    3  C   UNK N   1      -3.174   0.621  -0.562  0.00  0.00     0.059 A 
HETATM    4  C   UNK N   1      -4.440   1.098  -0.203  0.00  0.00     0.032 A 
HETATM    5  C   UNK N   1      -4.690   2.471  -0.128  0.00  0.00    -0.030 A 
HETATM    6  C   UNK N   1      -3.663   3.378  -0.391  0.00  0.00     0.002 A 
HETATM    7  C   UNK N   1      -2.398   2.918  -0.757  0.00  0.00     0.020 A 
HETATM    8  C   UNK N   1      -2.138   1.544  -0.867  0.00  0.00     0.065 A 
BRANCH   5   9
HETATM    9  B   UNK N   1      -6.119   2.994   0.233  0.00  0.00     0.529 B 
BRANCH   9  10
HETATM   10  O   UNK N   1      -7.209   2.050   0.466  0.00  0.00    -0.433 OA
HETATM   11  H   UNK N   1      -8.114   2.364   0.621  0.00  0.00     0.185 HD
ENDBRANCH   9  10
BRANCH   9  12
HETATM   12  O   UNK N   1      -6.385   4.430   0.275  0.00  0.00    -0.433 OA
HETATM   13  H   UNK N   1      -5.647   5.059   0.303  0.00  0.00     0.185 HD
ENDBRANCH   9  12
ENDBRANCH   5   9
BRANCH   8  14
HETATM   14  C   UNK N   1      -0.795   1.127  -1.337  0.00  0.00     0.178 C 
HETATM   15  O   UNK N   1      -0.579  -0.028  -1.659  0.00  0.00    -0.646 OA
BRANCH  14  16
HETATM   16  O   UNK N   1       0.183   2.043  -1.486  0.00  0.00    -0.773 OA
HETATM   17  H   UNK N   1       1.074   1.772  -1.590  0.00  0.00     0.167 HD
ENDBRANCH  14  16
ENDBRANCH   8  14
ENDBRANCH   1   3
BRANCH   1  18
HETATM   18  S   UNK N   1      -2.251  -1.641   0.755  0.00  0.00     0.269 S 
HETATM   19  O   UNK N   1      -3.312  -2.682   1.145  0.00  0.00    -0.200 OA
HETATM   20  O   UNK N   1      -2.303  -0.674   1.948  0.00  0.00    -0.200 OA
BRANCH  18  21
HETATM   21  C   UNK N   1      -0.643  -2.385   0.501  0.00  0.00     0.121 A 
HETATM   22  C   UNK N   1       0.536  -1.704   0.226  0.00  0.00     0.057 A 
HETATM   23  C   UNK N   1       1.619  -2.579  -0.045  0.00  0.00     0.072 A 
HETATM   24  C   UNK N   1       1.301  -3.944   0.016  0.00  0.00     0.074 A 
HETATM   25  S   UNK N   1      -0.315  -4.003   0.402  0.00  0.00    -0.087 SA
BRANCH  23  26
HETATM   26  S   UNK N   1       3.221  -1.966  -0.559  0.00  0.00     0.207 S 
HETATM   27  O   UNK N   1       3.053  -1.516  -2.019  0.00  0.00    -0.217 OA
HETATM   28  O   UNK N   1       4.126  -3.182  -0.814  0.00  0.00    -0.217 OA
BRANCH  26  29
HETATM   29  C   UNK N   1       4.218  -0.713   0.244  0.00  0.00     0.064 A 
HETATM   30  C   UNK N   1       5.234  -1.085   1.131  0.00  0.00     0.024 A 
HETATM   31  C   UNK N   1       6.025  -0.106   1.740  0.00  0.00     0.002 A 
HETATM   32  C   UNK N   1       5.804   1.246   1.462  0.00  0.00     0.000 A 
HETATM   33  C   UNK N   1       4.788   1.620   0.576  0.00  0.00     0.002 A 
HETATM   34  C   UNK N   1       3.996   0.641  -0.033  0.00  0.00     0.024 A 
ENDBRANCH  26  29
ENDBRANCH  23  26
ENDBRANCH  18  21
ENDBRANCH   1  18
TORSDOF 10
