MODEL 1
REMARK VINA RESULT:      -5.9      0.000      0.000
REMARK  11 active torsions:
REMARK  status: ('A' for Active; 'I' for Inactive)
REMARK    1  A    between atoms: C_2  and  N_1 
REMARK    2  A    between atoms: C_2  and  C_3 
REMARK    3  A    between atoms: C_2  and  C_10 
REMARK    4  A    between atoms: C_3  and  C_4 
REMARK    5  A    between atoms: C_10  and  O_11 
REMARK    6  A    between atoms: C_10  and  C_12 
REMARK    7  A    between atoms: C_12  and  C_13 
REMARK    8  A    between atoms: C_13  and  C_14 
REMARK    9  A    between atoms: C_13  and  C_18 
REMARK   10  A    between atoms: C_14  and  C_15 
REMARK   11  A    between atoms: C_18  and  O_20 
ROOT
HETATM    1  C   UNK N   1      30.034  17.528   9.120  0.00  0.00     0.141 C 
ENDROOT
BRANCH   1   2
HETATM    2  C   UNK N   1      28.743  17.685   8.303  0.00  0.00     0.103 C 
BRANCH   2   3
HETATM    3  N   UNK N   1      27.663  18.093   9.190  0.00  0.00    -0.424 N 
HETATM    4  H   UNK N   1      27.096  17.460   9.754  0.00  0.00     0.150 HD
HETATM    5  H   UNK N   1      27.459  19.090   9.253  0.00  0.00     0.150 HD
ENDBRANCH   2   3
BRANCH   2   6
HETATM    6  C   UNK N   1      28.979  18.767   7.239  0.00  0.00     0.031 C 
BRANCH   6   7
HETATM    7  C   UNK N   1      27.804  19.066   6.313  0.00  0.00    -0.013 C 
HETATM    8  C   UNK N   1      28.241  18.731   4.887  0.00  0.00     0.005 C 
HETATM    9  C   UNK N   1      27.119  19.019   3.894  0.00  0.00     0.000 C 
HETATM   10  C   UNK N   1      26.696  20.483   3.982  0.00  0.00     0.000 C 
HETATM   11  C   UNK N   1      26.252  20.815   5.403  0.00  0.00     0.000 C 
HETATM   12  C   UNK N   1      27.392  20.539   6.378  0.00  0.00     0.005 C 
ENDBRANCH   6   7
ENDBRANCH   2   6
ENDBRANCH   1   2
BRANCH   1  13
HETATM   13  O   UNK N   1      29.906  18.179  10.351  0.00  0.00    -0.394 OA
HETATM   14  H   UNK N   1      30.462  18.902  10.681  0.00  0.00     0.210 HD
ENDBRANCH   1  13
BRANCH   1  15
HETATM   15  C   UNK N   1      31.257  18.078   8.369  0.00  0.00     0.049 C 
BRANCH  15  16
HETATM   16  C   UNK N   1      32.402  17.055   8.297  0.00  0.00     0.086 C 
BRANCH  16  17
HETATM   17  C   UNK N   1      32.393  16.322   6.949  0.00  0.00     0.019 C 
BRANCH  17  18
HETATM   18  C   UNK N   1      31.795  17.088   5.778  0.00  0.00    -0.022 C 
HETATM   19  C   UNK N   1      30.810  16.189   5.064  0.00  0.00     0.009 C 
HETATM   20  C   UNK N   1      32.897  17.453   4.802  0.00  0.00     0.009 C 
ENDBRANCH  17  18
ENDBRANCH  16  17
BRANCH  16  21
HETATM   21  C   UNK N   1      33.736  17.668   8.641  0.00  0.00     0.143 C 
HETATM   22  O   UNK N   1      34.254  18.490   7.900  0.00  0.00    -0.650 OA
BRANCH  21  23
HETATM   23  O   UNK N   1      34.348  17.334   9.793  0.00  0.00    -0.776 OA
HETATM   24  H   UNK N   1      34.212  17.119  10.695  0.00  0.00     0.167 HD
ENDBRANCH  21  23
ENDBRANCH  16  21
ENDBRANCH  15  16
ENDBRANCH   1  15
TORSDOF 11
ENDMDL
MODEL 2
REMARK VINA RESULT:      -5.8      2.568      5.576
REMARK  11 active torsions:
REMARK  status: ('A' for Active; 'I' for Inactive)
REMARK    1  A    between atoms: C_2  and  N_1 
REMARK    2  A    between atoms: C_2  and  C_3 
REMARK    3  A    between atoms: C_2  and  C_10 
REMARK    4  A    between atoms: C_3  and  C_4 
REMARK    5  A    between atoms: C_10  and  O_11 
REMARK    6  A    between atoms: C_10  and  C_12 
REMARK    7  A    between atoms: C_12  and  C_13 
REMARK    8  A    between atoms: C_13  and  C_14 
REMARK    9  A    between atoms: C_13  and  C_18 
REMARK   10  A    between atoms: C_14  and  C_15 
REMARK   11  A    between atoms: C_18  and  O_20 
ROOT
HETATM    1  C   UNK N   1      28.361  18.637   8.555  0.00  0.00     0.141 C 
ENDROOT
BRANCH   1   2
HETATM    2  C   UNK N   1      29.741  18.134   9.002  0.00  0.00     0.103 C 
BRANCH   2   3
HETATM    3  N   UNK N   1      29.608  17.447  10.280  0.00  0.00    -0.424 N 
HETATM    4  H   UNK N   1      29.341  17.888  11.159  0.00  0.00     0.150 HD
HETATM    5  H   UNK N   1      29.796  16.444  10.294  0.00  0.00     0.150 HD
ENDBRANCH   2   3
BRANCH   2   6
HETATM    6  C   UNK N   1      30.262  17.157   7.938  0.00  0.00     0.031 C 
BRANCH   6   7
HETATM    7  C   UNK N   1      31.515  17.592   7.183  0.00  0.00    -0.013 C 
HETATM    8  C   UNK N   1      31.449  16.977   5.785  0.00  0.00     0.005 C 
HETATM    9  C   UNK N   1      32.682  17.356   4.968  0.00  0.00     0.000 C 
HETATM   10  C   UNK N   1      33.951  16.901   5.682  0.00  0.00     0.000 C 
HETATM   11  C   UNK N   1      34.020  17.522   7.073  0.00  0.00     0.000 C 
HETATM   12  C   UNK N   1      32.792  17.117   7.881  0.00  0.00     0.005 C 
ENDBRANCH   6   7
ENDBRANCH   2   6
ENDBRANCH   1   2
BRANCH   1  13
HETATM   13  O   UNK N   1      27.369  18.141   9.406  0.00  0.00    -0.394 OA
HETATM   14  H   UNK N   1      27.038  17.230   9.436  0.00  0.00     0.210 HD
ENDBRANCH   1  13
BRANCH   1  15
HETATM   15  C   UNK N   1      28.047  18.233   7.106  0.00  0.00     0.049 C 
BRANCH  15  16
HETATM   16  C   UNK N   1      28.187  19.414   6.131  0.00  0.00     0.086 C 
BRANCH  16  17
HETATM   17  C   UNK N   1      28.328  18.914   4.687  0.00  0.00     0.019 C 
BRANCH  17  18
HETATM   18  C   UNK N   1      27.731  17.545   4.394  0.00  0.00    -0.022 C 
HETATM   19  C   UNK N   1      28.635  16.821   3.420  0.00  0.00     0.009 C 
HETATM   20  C   UNK N   1      26.374  17.719   3.740  0.00  0.00     0.009 C 
ENDBRANCH  17  18
ENDBRANCH  16  17
BRANCH  16  21
HETATM   21  C   UNK N   1      27.091  20.433   6.312  0.00  0.00     0.143 C 
HETATM   22  O   UNK N   1      27.346  21.628   6.320  0.00  0.00    -0.650 OA
BRANCH  21  23
HETATM   23  O   UNK N   1      25.813  20.027   6.431  0.00  0.00    -0.776 OA
HETATM   24  H   UNK N   1      25.067  19.707   5.962  0.00  0.00     0.167 HD
ENDBRANCH  21  23
ENDBRANCH  16  21
ENDBRANCH  15  16
ENDBRANCH   1  15
TORSDOF 11
ENDMDL
MODEL 3
REMARK VINA RESULT:      -5.7     11.484     13.925
REMARK  11 active torsions:
REMARK  status: ('A' for Active; 'I' for Inactive)
REMARK    1  A    between atoms: C_2  and  N_1 
REMARK    2  A    between atoms: C_2  and  C_3 
REMARK    3  A    between atoms: C_2  and  C_10 
REMARK    4  A    between atoms: C_3  and  C_4 
REMARK    5  A    between atoms: C_10  and  O_11 
REMARK    6  A    between atoms: C_10  and  C_12 
REMARK    7  A    between atoms: C_12  and  C_13 
REMARK    8  A    between atoms: C_13  and  C_14 
REMARK    9  A    between atoms: C_13  and  C_18 
REMARK   10  A    between atoms: C_14  and  C_15 
REMARK   11  A    between atoms: C_18  and  O_20 
ROOT
HETATM    1  C   UNK N   1      26.869  24.109  -4.476  0.00  0.00     0.141 C 
ENDROOT
BRANCH   1   2
HETATM    2  C   UNK N   1      26.357  24.845  -5.722  0.00  0.00     0.103 C 
BRANCH   2   3
HETATM    3  N   UNK N   1      25.744  23.883  -6.628  0.00  0.00    -0.424 N 
HETATM    4  H   UNK N   1      26.135  22.973  -6.870  0.00  0.00     0.150 HD
HETATM    5  H   UNK N   1      24.853  24.140  -7.052  0.00  0.00     0.150 HD
ENDBRANCH   2   3
BRANCH   2   6
HETATM    6  C   UNK N   1      25.311  25.875  -5.273  0.00  0.00     0.031 C 
BRANCH   6   7
HETATM    7  C   UNK N   1      25.721  27.341  -5.381  0.00  0.00    -0.013 C 
HETATM    8  C   UNK N   1      27.047  27.395  -6.139  0.00  0.00     0.005 C 
HETATM    9  C   UNK N   1      27.534  28.836  -6.276  0.00  0.00     0.000 C 
HETATM   10  C   UNK N   1      27.690  29.476  -4.900  0.00  0.00     0.000 C 
HETATM   11  C   UNK N   1      26.365  29.429  -4.148  0.00  0.00     0.000 C 
HETATM   12  C   UNK N   1      25.904  27.982  -4.003  0.00  0.00     0.005 C 
ENDBRANCH   6   7
ENDBRANCH   2   6
ENDBRANCH   1   2
BRANCH   1  13
HETATM   13  O   UNK N   1      26.002  24.323  -3.401  0.00  0.00    -0.394 OA
HETATM   14  H   UNK N   1      25.776  23.685  -2.707  0.00  0.00     0.210 HD
ENDBRANCH   1  13
BRANCH   1  15
HETATM   15  C   UNK N   1      28.289  24.554  -4.092  0.00  0.00     0.049 C 
BRANCH  15  16
HETATM   16  C   UNK N   1      29.176  23.370  -3.675  0.00  0.00     0.086 C 
BRANCH  16  17
HETATM   17  C   UNK N   1      30.586  23.511  -4.264  0.00  0.00     0.019 C 
BRANCH  17  18
HETATM   18  C   UNK N   1      30.940  22.546  -5.386  0.00  0.00    -0.022 C 
HETATM   19  C   UNK N   1      30.495  23.148  -6.701  0.00  0.00     0.009 C 
HETATM   20  C   UNK N   1      30.188  21.244  -5.183  0.00  0.00     0.009 C 
ENDBRANCH  17  18
ENDBRANCH  16  17
BRANCH  16  21
HETATM   21  C   UNK N   1      29.165  23.147  -2.184  0.00  0.00     0.143 C 
HETATM   22  O   UNK N   1      28.110  23.052  -1.575  0.00  0.00    -0.650 OA
BRANCH  21  23
HETATM   23  O   UNK N   1      30.329  23.017  -1.519  0.00  0.00    -0.776 OA
HETATM   24  H   UNK N   1      31.238  22.808  -1.606  0.00  0.00     0.167 HD
ENDBRANCH  21  23
ENDBRANCH  16  21
ENDBRANCH  15  16
ENDBRANCH   1  15
TORSDOF 11
ENDMDL
MODEL 4
REMARK VINA RESULT:      -5.7     11.733     14.260
REMARK  11 active torsions:
REMARK  status: ('A' for Active; 'I' for Inactive)
REMARK    1  A    between atoms: C_2  and  N_1 
REMARK    2  A    between atoms: C_2  and  C_3 
REMARK    3  A    between atoms: C_2  and  C_10 
REMARK    4  A    between atoms: C_3  and  C_4 
REMARK    5  A    between atoms: C_10  and  O_11 
REMARK    6  A    between atoms: C_10  and  C_12 
REMARK    7  A    between atoms: C_12  and  C_13 
REMARK    8  A    between atoms: C_13  and  C_14 
REMARK    9  A    between atoms: C_13  and  C_18 
REMARK   10  A    between atoms: C_14  and  C_15 
REMARK   11  A    between atoms: C_18  and  O_20 
ROOT
HETATM    1  C   UNK N   1      26.970  24.276  -4.270  0.00  0.00     0.141 C 
ENDROOT
BRANCH   1   2
HETATM    2  C   UNK N   1      26.370  25.114  -5.407  0.00  0.00     0.103 C 
BRANCH   2   3
HETATM    3  N   UNK N   1      25.241  24.398  -5.984  0.00  0.00    -0.424 N 
HETATM    4  H   UNK N   1      24.603  23.794  -5.468  0.00  0.00     0.150 HD
HETATM    5  H   UNK N   1      25.075  24.511  -6.984  0.00  0.00     0.150 HD
ENDBRANCH   2   3
BRANCH   2   6
HETATM    6  C   UNK N   1      25.893  26.449  -4.818  0.00  0.00     0.031 C 
BRANCH   6   7
HETATM    7  C   UNK N   1      26.427  27.710  -5.491  0.00  0.00    -0.013 C 
HETATM    8  C   UNK N   1      27.447  27.276  -6.544  0.00  0.00     0.005 C 
HETATM    9  C   UNK N   1      28.041  28.489  -7.255  0.00  0.00     0.000 C 
HETATM   10  C   UNK N   1      28.696  29.427  -6.246  0.00  0.00     0.000 C 
HETATM   11  C   UNK N   1      27.677  29.866  -5.201  0.00  0.00     0.000 C 
HETATM   12  C   UNK N   1      27.109  28.644  -4.487  0.00  0.00     0.005 C 
ENDBRANCH   6   7
ENDBRANCH   2   6
ENDBRANCH   1   2
BRANCH   1  13
HETATM   13  O   UNK N   1      25.978  23.945  -3.342  0.00  0.00    -0.394 OA
HETATM   14  H   UNK N   1      25.527  24.555  -2.738  0.00  0.00     0.210 HD
ENDBRANCH   1  13
BRANCH   1  15
HETATM   15  C   UNK N   1      28.117  25.012  -3.559  0.00  0.00     0.049 C 
BRANCH  15  16
HETATM   16  C   UNK N   1      29.381  24.145  -3.445  0.00  0.00     0.086 C 
BRANCH  16  17
HETATM   17  C   UNK N   1      30.643  24.993  -3.649  0.00  0.00     0.019 C 
BRANCH  17  18
HETATM   18  C   UNK N   1      30.421  26.403  -4.175  0.00  0.00    -0.022 C 
HETATM   19  C   UNK N   1      31.188  26.565  -5.469  0.00  0.00     0.009 C 
HETATM   20  C   UNK N   1      30.966  27.404  -3.174  0.00  0.00     0.009 C 
ENDBRANCH  17  18
ENDBRANCH  16  17
BRANCH  16  21
HETATM   21  C   UNK N   1      29.400  23.332  -2.176  0.00  0.00     0.143 C 
HETATM   22  O   UNK N   1      30.458  23.042  -1.637  0.00  0.00    -0.650 OA
BRANCH  21  23
HETATM   23  O   UNK N   1      28.240  22.948  -1.609  0.00  0.00    -0.776 OA
HETATM   24  H   UNK N   1      27.390  22.592  -1.778  0.00  0.00     0.167 HD
ENDBRANCH  21  23
ENDBRANCH  16  21
ENDBRANCH  15  16
ENDBRANCH   1  15
TORSDOF 11
ENDMDL
MODEL 5
REMARK VINA RESULT:      -5.7      2.278      5.837
REMARK  11 active torsions:
REMARK  status: ('A' for Active; 'I' for Inactive)
REMARK    1  A    between atoms: C_2  and  N_1 
REMARK    2  A    between atoms: C_2  and  C_3 
REMARK    3  A    between atoms: C_2  and  C_10 
REMARK    4  A    between atoms: C_3  and  C_4 
REMARK    5  A    between atoms: C_10  and  O_11 
REMARK    6  A    between atoms: C_10  and  C_12 
REMARK    7  A    between atoms: C_12  and  C_13 
REMARK    8  A    between atoms: C_13  and  C_14 
REMARK    9  A    between atoms: C_13  and  C_18 
REMARK   10  A    between atoms: C_14  and  C_15 
REMARK   11  A    between atoms: C_18  and  O_20 
ROOT
HETATM    1  C   UNK N   1      28.468  18.391   8.333  0.00  0.00     0.141 C 
ENDROOT
BRANCH   1   2
HETATM    2  C   UNK N   1      29.879  18.326   8.935  0.00  0.00     0.103 C 
BRANCH   2   3
HETATM    3  N   UNK N   1      29.813  18.677  10.347  0.00  0.00    -0.424 N 
HETATM    4  H   UNK N   1      29.435  18.081  11.082  0.00  0.00     0.150 HD
HETATM    5  H   UNK N   1      30.176  19.590  10.620  0.00  0.00     0.150 HD
ENDBRANCH   2   3
BRANCH   2   6
HETATM    6  C   UNK N   1      30.399  16.889   8.779  0.00  0.00     0.031 C 
BRANCH   6   7
HETATM    7  C   UNK N   1      31.884  16.743   8.459  0.00  0.00    -0.013 C 
HETATM    8  C   UNK N   1      32.417  18.129   8.092  0.00  0.00     0.005 C 
HETATM    9  C   UNK N   1      33.901  18.063   7.742  0.00  0.00     0.000 C 
HETATM   10  C   UNK N   1      34.131  17.090   6.589  0.00  0.00     0.000 C 
HETATM   11  C   UNK N   1      33.607  15.707   6.959  0.00  0.00     0.000 C 
HETATM   12  C   UNK N   1      32.120  15.788   7.286  0.00  0.00     0.005 C 
ENDBRANCH   6   7
ENDBRANCH   2   6
ENDBRANCH   1   2
BRANCH   1  13
HETATM   13  O   UNK N   1      27.513  18.104   9.314  0.00  0.00    -0.394 OA
HETATM   14  H   UNK N   1      27.048  18.747   9.871  0.00  0.00     0.210 HD
ENDBRANCH   1  13
BRANCH   1  15
HETATM   15  C   UNK N   1      28.303  17.421   7.153  0.00  0.00     0.049 C 
BRANCH  15  16
HETATM   16  C   UNK N   1      28.075  18.159   5.823  0.00  0.00     0.086 C 
BRANCH  16  17
HETATM   17  C   UNK N   1      27.949  19.670   6.054  0.00  0.00     0.019 C 
BRANCH  17  18
HETATM   18  C   UNK N   1      26.612  20.292   5.676  0.00  0.00    -0.022 C 
HETATM   19  C   UNK N   1      26.588  20.519   4.180  0.00  0.00     0.009 C 
HETATM   20  C   UNK N   1      26.474  21.638   6.361  0.00  0.00     0.009 C 
ENDBRANCH  17  18
ENDBRANCH  16  17
BRANCH  16  21
HETATM   21  C   UNK N   1      29.106  17.792   4.785  0.00  0.00     0.143 C 
HETATM   22  O   UNK N   1      30.270  17.600   5.103  0.00  0.00    -0.650 OA
BRANCH  21  23
HETATM   23  O   UNK N   1      28.735  17.640   3.500  0.00  0.00    -0.776 OA
HETATM   24  H   UNK N   1      28.792  18.010   2.641  0.00  0.00     0.167 HD
ENDBRANCH  21  23
ENDBRANCH  16  21
ENDBRANCH  15  16
ENDBRANCH   1  15
TORSDOF 11
ENDMDL
MODEL 6
REMARK VINA RESULT:      -5.7      5.109      9.201
REMARK  11 active torsions:
REMARK  status: ('A' for Active; 'I' for Inactive)
REMARK    1  A    between atoms: C_2  and  N_1 
REMARK    2  A    between atoms: C_2  and  C_3 
REMARK    3  A    between atoms: C_2  and  C_10 
REMARK    4  A    between atoms: C_3  and  C_4 
REMARK    5  A    between atoms: C_10  and  O_11 
REMARK    6  A    between atoms: C_10  and  C_12 
REMARK    7  A    between atoms: C_12  and  C_13 
REMARK    8  A    between atoms: C_13  and  C_14 
REMARK    9  A    between atoms: C_13  and  C_18 
REMARK   10  A    between atoms: C_14  and  C_15 
REMARK   11  A    between atoms: C_18  and  O_20 
ROOT
HETATM    1  C   UNK N   1      35.637  15.693  10.292  0.00  0.00     0.141 C 
ENDROOT
BRANCH   1   2
HETATM    2  C   UNK N   1      35.125  14.675  11.320  0.00  0.00     0.103 C 
BRANCH   2   3
HETATM    3  N   UNK N   1      33.845  14.144  10.870  0.00  0.00    -0.424 N 
HETATM    4  H   UNK N   1      33.385  13.319  11.253  0.00  0.00     0.150 HD
HETATM    5  H   UNK N   1      33.373  14.637  10.113  0.00  0.00     0.150 HD
ENDBRANCH   2   3
BRANCH   2   6
HETATM    6  C   UNK N   1      36.153  13.539  11.422  0.00  0.00     0.031 C 
BRANCH   6   7
HETATM    7  C   UNK N   1      36.770  13.312  12.798  0.00  0.00    -0.013 C 
HETATM    8  C   UNK N   1      36.528  11.852  13.180  0.00  0.00     0.005 C 
HETATM    9  C   UNK N   1      37.107  11.549  14.560  0.00  0.00     0.000 C 
HETATM   10  C   UNK N   1      36.492  12.473  15.607  0.00  0.00     0.000 C 
HETATM   11  C   UNK N   1      36.742  13.929  15.230  0.00  0.00     0.000 C 
HETATM   12  C   UNK N   1      36.140  14.219  13.859  0.00  0.00     0.005 C 
ENDBRANCH   6   7
ENDBRANCH   2   6
ENDBRANCH   1   2
BRANCH   1  13
HETATM   13  O   UNK N   1      36.842  16.252  10.728  0.00  0.00    -0.394 OA
HETATM   14  H   UNK N   1      37.032  17.196  10.842  0.00  0.00     0.210 HD
ENDBRANCH   1  13
BRANCH   1  15
HETATM   15  C   UNK N   1      34.613  16.810  10.033  0.00  0.00     0.049 C 
BRANCH  15  16
HETATM   16  C   UNK N   1      34.087  16.790   8.589  0.00  0.00     0.086 C 
BRANCH  16  17
HETATM   17  C   UNK N   1      32.569  16.564   8.566  0.00  0.00     0.019 C 
BRANCH  17  18
HETATM   18  C   UNK N   1      31.741  17.668   7.925  0.00  0.00    -0.022 C 
HETATM   19  C   UNK N   1      30.768  18.203   8.954  0.00  0.00     0.009 C 
HETATM   20  C   UNK N   1      30.941  17.092   6.773  0.00  0.00     0.009 C 
ENDBRANCH  17  18
ENDBRANCH  16  17
BRANCH  16  21
HETATM   21  C   UNK N   1      34.527  18.001   7.806  0.00  0.00     0.143 C 
HETATM   22  O   UNK N   1      34.461  18.012   6.586  0.00  0.00    -0.650 OA
BRANCH  21  23
HETATM   23  O   UNK N   1      34.966  19.095   8.457  0.00  0.00    -0.776 OA
HETATM   24  H   UNK N   1      35.642  19.433   9.010  0.00  0.00     0.167 HD
ENDBRANCH  21  23
ENDBRANCH  16  21
ENDBRANCH  15  16
ENDBRANCH   1  15
TORSDOF 11
ENDMDL
MODEL 7
REMARK VINA RESULT:      -5.6     11.092     13.493
REMARK  11 active torsions:
REMARK  status: ('A' for Active; 'I' for Inactive)
REMARK    1  A    between atoms: C_2  and  N_1 
REMARK    2  A    between atoms: C_2  and  C_3 
REMARK    3  A    between atoms: C_2  and  C_10 
REMARK    4  A    between atoms: C_3  and  C_4 
REMARK    5  A    between atoms: C_10  and  O_11 
REMARK    6  A    between atoms: C_10  and  C_12 
REMARK    7  A    between atoms: C_12  and  C_13 
REMARK    8  A    between atoms: C_13  and  C_14 
REMARK    9  A    between atoms: C_13  and  C_18 
REMARK   10  A    between atoms: C_14  and  C_15 
REMARK   11  A    between atoms: C_18  and  O_20 
ROOT
HETATM    1  C   UNK N   1      27.483  23.923  -3.402  0.00  0.00     0.141 C 
ENDROOT
BRANCH   1   2
HETATM    2  C   UNK N   1      26.730  25.197  -3.811  0.00  0.00     0.103 C 
BRANCH   2   3
HETATM    3  N   UNK N   1      27.679  26.161  -4.351  0.00  0.00    -0.424 N 
HETATM    4  H   UNK N   1      27.663  26.532  -5.300  0.00  0.00     0.150 HD
HETATM    5  H   UNK N   1      28.417  26.490  -3.729  0.00  0.00     0.150 HD
ENDBRANCH   2   3
BRANCH   2   6
HETATM    6  C   UNK N   1      25.702  24.820  -4.888  0.00  0.00     0.031 C 
BRANCH   6   7
HETATM    7  C   UNK N   1      26.256  24.139  -6.136  0.00  0.00    -0.013 C 
HETATM    8  C   UNK N   1      25.962  25.049  -7.329  0.00  0.00     0.005 C 
HETATM    9  C   UNK N   1      26.475  24.426  -8.625  0.00  0.00     0.000 C 
HETATM   10  C   UNK N   1      25.840  23.056  -8.843  0.00  0.00     0.000 C 
HETATM   11  C   UNK N   1      26.140  22.146  -7.657  0.00  0.00     0.000 C 
HETATM   12  C   UNK N   1      25.604  22.775  -6.374  0.00  0.00     0.005 C 
ENDBRANCH   6   7
ENDBRANCH   2   6
ENDBRANCH   1   2
BRANCH   1  13
HETATM   13  O   UNK N   1      27.268  23.652  -2.047  0.00  0.00    -0.394 OA
HETATM   14  H   UNK N   1      26.422  23.705  -1.576  0.00  0.00     0.210 HD
ENDBRANCH   1  13
BRANCH   1  15
HETATM   15  C   UNK N   1      28.991  24.038  -3.673  0.00  0.00     0.049 C 
BRANCH  15  16
HETATM   16  C   UNK N   1      29.703  22.679  -3.574  0.00  0.00     0.086 C 
BRANCH  16  17
HETATM   17  C   UNK N   1      30.375  22.318  -4.905  0.00  0.00     0.019 C 
BRANCH  17  18
HETATM   18  C   UNK N   1      29.441  22.104  -6.087  0.00  0.00    -0.022 C 
HETATM   19  C   UNK N   1      29.712  20.736  -6.677  0.00  0.00     0.009 C 
HETATM   20  C   UNK N   1      29.731  23.144  -7.152  0.00  0.00     0.009 C 
ENDBRANCH  17  18
ENDBRANCH  16  17
BRANCH  16  21
HETATM   21  C   UNK N   1      30.634  22.609  -2.390  0.00  0.00     0.143 C 
HETATM   22  O   UNK N   1      31.751  22.125  -2.503  0.00  0.00    -0.650 OA
BRANCH  21  23
HETATM   23  O   UNK N   1      30.247  23.115  -1.204  0.00  0.00    -0.776 OA
HETATM   24  H   UNK N   1      30.533  23.584  -0.445  0.00  0.00     0.167 HD
ENDBRANCH  21  23
ENDBRANCH  16  21
ENDBRANCH  15  16
ENDBRANCH   1  15
TORSDOF 11
ENDMDL
MODEL 8
REMARK VINA RESULT:      -5.5      2.546      5.025
REMARK  11 active torsions:
REMARK  status: ('A' for Active; 'I' for Inactive)
REMARK    1  A    between atoms: C_2  and  N_1 
REMARK    2  A    between atoms: C_2  and  C_3 
REMARK    3  A    between atoms: C_2  and  C_10 
REMARK    4  A    between atoms: C_3  and  C_4 
REMARK    5  A    between atoms: C_10  and  O_11 
REMARK    6  A    between atoms: C_10  and  C_12 
REMARK    7  A    between atoms: C_12  and  C_13 
REMARK    8  A    between atoms: C_13  and  C_14 
REMARK    9  A    between atoms: C_13  and  C_18 
REMARK   10  A    between atoms: C_14  and  C_15 
REMARK   11  A    between atoms: C_18  and  O_20 
ROOT
HETATM    1  C   UNK N   1      28.291  17.292   6.098  0.00  0.00     0.141 C 
ENDROOT
BRANCH   1   2
HETATM    2  C   UNK N   1      28.270  17.692   4.616  0.00  0.00     0.103 C 
BRANCH   2   3
HETATM    3  N   UNK N   1      28.587  19.109   4.499  0.00  0.00    -0.424 N 
HETATM    4  H   UNK N   1      28.874  19.712   5.269  0.00  0.00     0.150 HD
HETATM    5  H   UNK N   1      28.516  19.530   3.573  0.00  0.00     0.150 HD
ENDBRANCH   2   3
BRANCH   2   6
HETATM    6  C   UNK N   1      29.329  16.859   3.880  0.00  0.00     0.031 C 
BRANCH   6   7
HETATM    7  C   UNK N   1      30.656  16.665   4.609  0.00  0.00    -0.013 C 
HETATM    8  C   UNK N   1      31.681  17.597   3.961  0.00  0.00     0.005 C 
HETATM    9  C   UNK N   1      33.045  17.449   4.628  0.00  0.00     0.000 C 
HETATM   10  C   UNK N   1      33.524  16.003   4.542  0.00  0.00     0.000 C 
HETATM   11  C   UNK N   1      32.506  15.075   5.195  0.00  0.00     0.000 C 
HETATM   12  C   UNK N   1      31.154  15.221   4.504  0.00  0.00     0.005 C 
ENDBRANCH   6   7
ENDBRANCH   2   6
ENDBRANCH   1   2
BRANCH   1  13
HETATM   13  O   UNK N   1      26.992  17.033   6.545  0.00  0.00    -0.394 OA
HETATM   14  H   UNK N   1      26.696  16.250   7.036  0.00  0.00     0.210 HD
ENDBRANCH   1  13
BRANCH   1  15
HETATM   15  C   UNK N   1      28.931  18.379   6.976  0.00  0.00     0.049 C 
BRANCH  15  16
HETATM   16  C   UNK N   1      29.589  17.795   8.236  0.00  0.00     0.086 C 
BRANCH  16  17
HETATM   17  C   UNK N   1      31.049  18.255   8.351  0.00  0.00     0.019 C 
BRANCH  17  18
HETATM   18  C   UNK N   1      32.104  17.220   7.988  0.00  0.00    -0.022 C 
HETATM   19  C   UNK N   1      31.857  15.969   8.802  0.00  0.00     0.009 C 
HETATM   20  C   UNK N   1      33.477  17.756   8.348  0.00  0.00     0.009 C 
ENDBRANCH  17  18
ENDBRANCH  16  17
BRANCH  16  21
HETATM   21  C   UNK N   1      28.775  18.057   9.477  0.00  0.00     0.143 C 
HETATM   22  O   UNK N   1      29.322  18.326  10.536  0.00  0.00    -0.650 OA
BRANCH  21  23
HETATM   23  O   UNK N   1      27.430  18.029   9.413  0.00  0.00    -0.776 OA
HETATM   24  H   UNK N   1      26.644  17.975   9.919  0.00  0.00     0.167 HD
ENDBRANCH  21  23
ENDBRANCH  16  21
ENDBRANCH  15  16
ENDBRANCH   1  15
TORSDOF 11
ENDMDL
MODEL 9
REMARK VINA RESULT:      -5.5      5.315      8.242
REMARK  11 active torsions:
REMARK  status: ('A' for Active; 'I' for Inactive)
REMARK    1  A    between atoms: C_2  and  N_1 
REMARK    2  A    between atoms: C_2  and  C_3 
REMARK    3  A    between atoms: C_2  and  C_10 
REMARK    4  A    between atoms: C_3  and  C_4 
REMARK    5  A    between atoms: C_10  and  O_11 
REMARK    6  A    between atoms: C_10  and  C_12 
REMARK    7  A    between atoms: C_12  and  C_13 
REMARK    8  A    between atoms: C_13  and  C_14 
REMARK    9  A    between atoms: C_13  and  C_18 
REMARK   10  A    between atoms: C_14  and  C_15 
REMARK   11  A    between atoms: C_18  and  O_20 
ROOT
HETATM    1  C   UNK N   1      36.020  15.198  11.294  0.00  0.00     0.141 C 
ENDROOT
BRANCH   1   2
HETATM    2  C   UNK N   1      34.854  15.326  10.303  0.00  0.00     0.103 C 
BRANCH   2   3
HETATM    3  N   UNK N   1      33.607  15.023  10.991  0.00  0.00    -0.424 N 
HETATM    4  H   UNK N   1      32.690  15.381  10.729  0.00  0.00     0.150 HD
HETATM    5  H   UNK N   1      33.656  14.402  11.800  0.00  0.00     0.150 HD
ENDBRANCH   2   3
BRANCH   2   6
HETATM    6  C   UNK N   1      34.824  16.770   9.783  0.00  0.00     0.031 C 
BRANCH   6   7
HETATM    7  C   UNK N   1      34.554  16.942   8.291  0.00  0.00    -0.013 C 
HETATM    8  C   UNK N   1      33.084  17.330   8.128  0.00  0.00     0.005 C 
HETATM    9  C   UNK N   1      32.731  17.507   6.653  0.00  0.00     0.000 C 
HETATM   10  C   UNK N   1      33.023  16.223   5.882  0.00  0.00     0.000 C 
HETATM   11  C   UNK N   1      34.490  15.841   6.038  0.00  0.00     0.000 C 
HETATM   12  C   UNK N   1      34.821  15.650   7.514  0.00  0.00     0.005 C 
ENDBRANCH   6   7
ENDBRANCH   2   6
ENDBRANCH   1   2
BRANCH   1  13
HETATM   13  O   UNK N   1      37.060  16.058  10.925  0.00  0.00    -0.394 OA
HETATM   14  H   UNK N   1      36.997  16.810  10.316  0.00  0.00     0.210 HD
ENDBRANCH   1  13
BRANCH   1  15
HETATM   15  C   UNK N   1      36.546  13.757  11.377  0.00  0.00     0.049 C 
BRANCH  15  16
HETATM   16  C   UNK N   1      36.210  13.093  12.722  0.00  0.00     0.086 C 
BRANCH  16  17
HETATM   17  C   UNK N   1      36.003  14.151  13.815  0.00  0.00     0.019 C 
BRANCH  17  18
HETATM   18  C   UNK N   1      36.751  13.917  15.119  0.00  0.00    -0.022 C 
HETATM   19  C   UNK N   1      35.778  13.377  16.145  0.00  0.00     0.009 C 
HETATM   20  C   UNK N   1      37.293  15.237  15.631  0.00  0.00     0.009 C 
ENDBRANCH  17  18
ENDBRANCH  16  17
BRANCH  16  21
HETATM   21  C   UNK N   1      35.067  12.117  12.605  0.00  0.00     0.143 C 
HETATM   22  O   UNK N   1      34.782  11.376  13.534  0.00  0.00    -0.650 OA
BRANCH  21  23
HETATM   23  O   UNK N   1      34.330  12.082  11.479  0.00  0.00    -0.776 OA
HETATM   24  H   UNK N   1      33.907  11.519  10.861  0.00  0.00     0.167 HD
ENDBRANCH  21  23
ENDBRANCH  16  21
ENDBRANCH  15  16
ENDBRANCH   1  15
TORSDOF 11
ENDMDL
