REMARK  11 active torsions:
REMARK  status: ('A' for Active; 'I' for Inactive)
REMARK    1  A    between atoms: C_2  and  N_1 
REMARK    2  A    between atoms: C_2  and  C_3 
REMARK    3  A    between atoms: C_2  and  C_10 
REMARK    4  A    between atoms: C_3  and  C_4 
REMARK    5  A    between atoms: C_10  and  O_11 
REMARK    6  A    between atoms: C_10  and  C_12 
REMARK    7  A    between atoms: C_12  and  C_13 
REMARK    8  A    between atoms: C_13  and  C_14 
REMARK    9  A    between atoms: C_13  and  C_18 
REMARK   10  A    between atoms: C_14  and  C_15 
REMARK   11  A    between atoms: C_18  and  O_20 
ROOT
HETATM    1  C   UNK N   1      -0.043  -0.557   0.027  0.00  0.00     0.141 C 
ENDROOT
BRANCH   1   2
HETATM    2  C   UNK N   1      -1.160   0.377   0.514  0.00  0.00     0.103 C 
BRANCH   2   3
HETATM    3  N   UNK N   1      -0.955   1.703  -0.052  0.00  0.00    -0.424 N 
HETATM    4  H   UNK N   1      -0.080   2.043  -0.449  0.00  0.00     0.150 HD
HETATM    5  H   UNK N   1      -1.751   2.341  -0.052  0.00  0.00     0.150 HD
ENDBRANCH   2   3
BRANCH   2   6
HETATM    6  C   UNK N   1      -2.503  -0.192   0.033  0.00  0.00     0.031 C 
BRANCH   6   7
HETATM    7  C   UNK N   1      -3.752   0.555   0.491  0.00  0.00    -0.013 C 
HETATM    8  C   UNK N   1      -4.968  -0.241   0.016  0.00  0.00     0.005 C 
HETATM    9  C   UNK N   1      -6.264   0.454   0.425  0.00  0.00     0.000 C 
HETATM   10  C   UNK N   1      -6.309   1.869  -0.144  0.00  0.00     0.000 C 
HETATM   11  C   UNK N   1      -5.101   2.665   0.337  0.00  0.00     0.000 C 
HETATM   12  C   UNK N   1      -3.816   1.967  -0.097  0.00  0.00     0.005 C 
ENDBRANCH   6   7
ENDBRANCH   2   6
ENDBRANCH   1   2
BRANCH   1  13
HETATM   13  O   UNK N   1      -0.167  -1.811   0.633  0.00  0.00    -0.394 OA
HETATM   14  H   UNK N   1      -0.963  -2.172   1.053  0.00  0.00     0.210 HD
ENDBRANCH   1  13
BRANCH   1  15
HETATM   15  C   UNK N   1       1.352   0.020   0.315  0.00  0.00     0.049 C 
BRANCH  15  16
HETATM   16  C   UNK N   1       2.401  -0.466  -0.698  0.00  0.00     0.086 C 
BRANCH  16  17
HETATM   17  C   UNK N   1       3.695   0.350  -0.576  0.00  0.00     0.019 C 
BRANCH  17  18
HETATM   18  C   UNK N   1       4.506   0.127   0.692  0.00  0.00    -0.022 C 
HETATM   19  C   UNK N   1       5.218   1.415   1.045  0.00  0.00     0.009 C 
HETATM   20  C   UNK N   1       5.555  -0.938   0.436  0.00  0.00     0.009 C 
ENDBRANCH  17  18
ENDBRANCH  16  17
BRANCH  16  21
HETATM   21  C   UNK N   1       2.619  -1.956  -0.621  0.00  0.00     0.143 C 
HETATM   22  O   UNK N   1       3.020  -2.475   0.410  0.00  0.00    -0.650 OA
BRANCH  21  23
HETATM   23  O   UNK N   1       2.337  -2.729  -1.687  0.00  0.00    -0.776 OA
HETATM   24  H   UNK N   1       1.774  -2.829  -2.429  0.00  0.00     0.167 HD
ENDBRANCH  21  23
ENDBRANCH  16  21
ENDBRANCH  15  16
ENDBRANCH   1  15
TORSDOF 11
