MODEL 1
REMARK VINA RESULT:      -7.1      0.000      0.000
REMARK  7 active torsions:
REMARK  status: ('A' for Active; 'I' for Inactive)
REMARK    1  A    between atoms: C_2  and  O_1 
REMARK    2  A    between atoms: C_3  and  C_2 
REMARK    3  A    between atoms: C_8  and  C_2 
REMARK    4  A    between atoms: C_3  and  N_4 
REMARK    5  A    between atoms: C_5  and  N_4 
REMARK    6  A    between atoms: O_9  and  C_8 
REMARK    7  A    between atoms: C_10  and  O_9 
ROOT
HETATM    1  C   UNK N   1      35.598  12.523  13.136  0.00  0.00     0.082 A 
HETATM    2  C   UNK N   1      34.802  11.494  12.599  0.00  0.00     0.038 A 
HETATM    3  C   UNK N   1      33.938  10.738  13.418  0.00  0.00     0.005 A 
HETATM    4  C   UNK N   1      33.844  11.005  14.793  0.00  0.00     0.030 A 
HETATM    5  C   UNK N   1      34.614  12.038  15.310  0.00  0.00     0.046 A 
HETATM    6  C   UNK N   1      35.470  12.791  14.521  0.00  0.00     0.036 A 
HETATM    7  N   UNK N   1      34.623  12.455  16.596  0.00  0.00    -0.355 N 
HETATM    8  C   UNK N   1      35.486  13.489  16.619  0.00  0.00     0.043 A 
HETATM    9  C   UNK N   1      36.026  13.727  15.370  0.00  0.00     0.006 A 
HETATM   10  C   UNK N   1      35.816  14.269  17.725  0.00  0.00     0.030 A 
HETATM   11  C   UNK N   1      36.725  15.324  17.535  0.00  0.00     0.002 A 
HETATM   12  C   UNK N   1      37.275  15.574  16.259  0.00  0.00     0.001 A 
HETATM   13  C   UNK N   1      36.925  14.768  15.160  0.00  0.00     0.014 A 
HETATM   14  H   UNK N   1      34.111  12.084  17.350  0.00  0.00     0.166 HD
ENDROOT
BRANCH   1  15
HETATM   15  O   UNK N   1      36.430  13.199  12.306  0.00  0.00    -0.348 OA
BRANCH  15  16
HETATM   16  C   UNK N   1      35.981  13.911  11.213  0.00  0.00     0.209 C 
BRANCH  16  17
HETATM   17  C   UNK N   1      35.151  15.130  11.619  0.00  0.00     0.159 C 
BRANCH  17  18
HETATM   18  O   UNK N   1      33.798  14.844  11.450  0.00  0.00    -0.392 OA
HETATM   19  H   UNK N   1      33.177  14.119  11.620  0.00  0.00     0.210 HD
ENDBRANCH  17  18
BRANCH  17  20
HETATM   20  C   UNK N   1      35.481  16.379  10.808  0.00  0.00     0.147 C 
BRANCH  20  21
HETATM   21  N   UNK N   1      34.302  16.925  10.153  0.00  0.00    -0.415 N 
HETATM   22  H   UNK N   1      33.449  17.257  10.605  0.00  0.00     0.153 HD
BRANCH  21  23
HETATM   23  C   UNK N   1      34.581  16.902   8.726  0.00  0.00     0.068 C 
HETATM   24  C   UNK N   1      34.499  18.308   8.171  0.00  0.00     0.031 C 
HETATM   25  C   UNK N   1      33.576  16.018   8.013  0.00  0.00     0.031 C 
ENDBRANCH  21  23
ENDBRANCH  20  21
ENDBRANCH  17  20
ENDBRANCH  16  17
ENDBRANCH  15  16
ENDBRANCH   1  15
TORSDOF 7
ENDMDL
MODEL 2
REMARK VINA RESULT:      -6.8      1.468      2.008
REMARK  7 active torsions:
REMARK  status: ('A' for Active; 'I' for Inactive)
REMARK    1  A    between atoms: C_2  and  O_1 
REMARK    2  A    between atoms: C_3  and  C_2 
REMARK    3  A    between atoms: C_8  and  C_2 
REMARK    4  A    between atoms: C_3  and  N_4 
REMARK    5  A    between atoms: C_5  and  N_4 
REMARK    6  A    between atoms: O_9  and  C_8 
REMARK    7  A    between atoms: C_10  and  O_9 
ROOT
HETATM    1  C   UNK N   1      34.874  12.280  13.835  0.00  0.00     0.082 A 
HETATM    2  C   UNK N   1      34.715  11.398  12.750  0.00  0.00     0.038 A 
HETATM    3  C   UNK N   1      34.716  10.001  12.940  0.00  0.00     0.005 A 
HETATM    4  C   UNK N   1      34.864   9.456  14.225  0.00  0.00     0.030 A 
HETATM    5  C   UNK N   1      34.997  10.334  15.293  0.00  0.00     0.046 A 
HETATM    6  C   UNK N   1      35.000  11.710  15.125  0.00  0.00     0.036 A 
HETATM    7  N   UNK N   1      35.114   9.988  16.595  0.00  0.00    -0.355 N 
HETATM    8  C   UNK N   1      35.182  11.159  17.259  0.00  0.00     0.043 A 
HETATM    9  C   UNK N   1      35.116  12.236  16.396  0.00  0.00     0.006 A 
HETATM   10  C   UNK N   1      35.285  11.324  18.638  0.00  0.00     0.030 A 
HETATM   11  C   UNK N   1      35.317  12.637  19.139  0.00  0.00     0.002 A 
HETATM   12  C   UNK N   1      35.245  13.740  18.262  0.00  0.00     0.001 A 
HETATM   13  C   UNK N   1      35.143  13.542  16.873  0.00  0.00     0.014 A 
HETATM   14  H   UNK N   1      35.144   9.081  16.974  0.00  0.00     0.166 HD
ENDROOT
BRANCH   1  15
HETATM   15  O   UNK N   1      34.892  13.614  13.588  0.00  0.00    -0.348 OA
BRANCH  15  16
HETATM   16  C   UNK N   1      35.559  14.168  12.515  0.00  0.00     0.209 C 
BRANCH  16  17
HETATM   17  C   UNK N   1      34.670  15.115  11.709  0.00  0.00     0.159 C 
BRANCH  17  18
HETATM   18  O   UNK N   1      33.578  14.410  11.209  0.00  0.00    -0.392 OA
HETATM   19  H   UNK N   1      33.112  13.575  11.369  0.00  0.00     0.210 HD
ENDBRANCH  17  18
BRANCH  17  20
HETATM   20  C   UNK N   1      35.395  15.768  10.536  0.00  0.00     0.147 C 
BRANCH  20  21
HETATM   21  N   UNK N   1      34.971  17.146  10.338  0.00  0.00    -0.415 N 
HETATM   22  H   UNK N   1      35.123  17.930  10.972  0.00  0.00     0.153 HD
BRANCH  21  23
HETATM   23  C   UNK N   1      34.287  17.180   9.056  0.00  0.00     0.068 C 
HETATM   24  C   UNK N   1      34.659  15.954   8.250  0.00  0.00     0.031 C 
HETATM   25  C   UNK N   1      34.680  18.428   8.289  0.00  0.00     0.031 C 
ENDBRANCH  21  23
ENDBRANCH  20  21
ENDBRANCH  17  20
ENDBRANCH  16  17
ENDBRANCH  15  16
ENDBRANCH   1  15
TORSDOF 7
ENDMDL
MODEL 3
REMARK VINA RESULT:      -6.7      8.211     10.435
REMARK  7 active torsions:
REMARK  status: ('A' for Active; 'I' for Inactive)
REMARK    1  A    between atoms: C_2  and  O_1 
REMARK    2  A    between atoms: C_3  and  C_2 
REMARK    3  A    between atoms: C_8  and  C_2 
REMARK    4  A    between atoms: C_3  and  N_4 
REMARK    5  A    between atoms: C_5  and  N_4 
REMARK    6  A    between atoms: O_9  and  C_8 
REMARK    7  A    between atoms: C_10  and  O_9 
ROOT
HETATM    1  C   UNK N   1      28.733  17.112   7.104  0.00  0.00     0.082 A 
HETATM    2  C   UNK N   1      27.797  17.374   8.123  0.00  0.00     0.038 A 
HETATM    3  C   UNK N   1      28.211  17.792   9.404  0.00  0.00     0.005 A 
HETATM    4  C   UNK N   1      29.574  17.969   9.690  0.00  0.00     0.030 A 
HETATM    5  C   UNK N   1      30.489  17.732   8.672  0.00  0.00     0.046 A 
HETATM    6  C   UNK N   1      30.100  17.318   7.407  0.00  0.00     0.036 A 
HETATM    7  N   UNK N   1      31.830  17.885   8.758  0.00  0.00    -0.355 N 
HETATM    8  C   UNK N   1      32.294  17.574   7.532  0.00  0.00     0.043 A 
HETATM    9  C   UNK N   1      31.268  17.223   6.676  0.00  0.00     0.006 A 
HETATM   10  C   UNK N   1      33.622  17.606   7.116  0.00  0.00     0.030 A 
HETATM   11  C   UNK N   1      33.898  17.268   5.780  0.00  0.00     0.002 A 
HETATM   12  C   UNK N   1      32.853  16.913   4.900  0.00  0.00     0.001 A 
HETATM   13  C   UNK N   1      31.520  16.888   5.350  0.00  0.00     0.014 A 
HETATM   14  H   UNK N   1      32.353  18.161   9.545  0.00  0.00     0.166 HD
ENDROOT
BRANCH   1  15
HETATM   15  O   UNK N   1      28.277  16.686   5.900  0.00  0.00    -0.348 OA
BRANCH  15  16
HETATM   16  C   UNK N   1      26.944  16.432   5.651  0.00  0.00     0.209 C 
BRANCH  16  17
HETATM   17  C   UNK N   1      26.525  16.872   4.247  0.00  0.00     0.159 C 
BRANCH  17  18
HETATM   18  O   UNK N   1      27.618  16.785   3.390  0.00  0.00    -0.392 OA
HETATM   19  H   UNK N   1      28.245  16.118   3.069  0.00  0.00     0.210 HD
ENDBRANCH  17  18
BRANCH  17  20
HETATM   20  C   UNK N   1      25.992  18.301   4.200  0.00  0.00     0.147 C 
BRANCH  20  21
HETATM   21  N   UNK N   1      25.985  18.918   5.517  0.00  0.00    -0.415 N 
HETATM   22  H   UNK N   1      25.616  18.517   6.380  0.00  0.00     0.153 HD
BRANCH  21  23
HETATM   23  C   UNK N   1      26.611  20.221   5.359  0.00  0.00     0.068 C 
HETATM   24  C   UNK N   1      28.005  20.049   4.796  0.00  0.00     0.031 C 
HETATM   25  C   UNK N   1      26.691  20.927   6.699  0.00  0.00     0.031 C 
ENDBRANCH  21  23
ENDBRANCH  20  21
ENDBRANCH  17  20
ENDBRANCH  16  17
ENDBRANCH  15  16
ENDBRANCH   1  15
TORSDOF 7
ENDMDL
MODEL 4
REMARK VINA RESULT:      -6.6      5.693      8.765
REMARK  7 active torsions:
REMARK  status: ('A' for Active; 'I' for Inactive)
REMARK    1  A    between atoms: C_2  and  O_1 
REMARK    2  A    between atoms: C_3  and  C_2 
REMARK    3  A    between atoms: C_8  and  C_2 
REMARK    4  A    between atoms: C_3  and  N_4 
REMARK    5  A    between atoms: C_5  and  N_4 
REMARK    6  A    between atoms: O_9  and  C_8 
REMARK    7  A    between atoms: C_10  and  O_9 
ROOT
HETATM    1  C   UNK N   1      32.907  17.642   6.731  0.00  0.00     0.082 A 
HETATM    2  C   UNK N   1      33.569  17.241   5.555  0.00  0.00     0.038 A 
HETATM    3  C   UNK N   1      32.884  16.555   4.531  0.00  0.00     0.005 A 
HETATM    4  C   UNK N   1      31.516  16.268   4.657  0.00  0.00     0.030 A 
HETATM    5  C   UNK N   1      30.865  16.689   5.809  0.00  0.00     0.046 A 
HETATM    6  C   UNK N   1      31.522  17.363   6.827  0.00  0.00     0.036 A 
HETATM    7  N   UNK N   1      29.550  16.531   6.082  0.00  0.00    -0.355 N 
HETATM    8  C   UNK N   1      29.371  17.119   7.281  0.00  0.00     0.043 A 
HETATM    9  C   UNK N   1      30.553  17.640   7.771  0.00  0.00     0.006 A 
HETATM   10  C   UNK N   1      28.170  17.236   7.975  0.00  0.00     0.030 A 
HETATM   11  C   UNK N   1      28.190  17.911   9.208  0.00  0.00     0.002 A 
HETATM   12  C   UNK N   1      29.394  18.450   9.710  0.00  0.00     0.001 A 
HETATM   13  C   UNK N   1      30.593  18.315   8.986  0.00  0.00     0.014 A 
HETATM   14  H   UNK N   1      28.872  16.083   5.526  0.00  0.00     0.166 HD
ENDROOT
BRANCH   1  15
HETATM   15  O   UNK N   1      33.623  18.275   7.693  0.00  0.00    -0.348 OA
BRANCH  15  16
HETATM   16  C   UNK N   1      34.706  17.696   8.323  0.00  0.00     0.209 C 
BRANCH  16  17
HETATM   17  C   UNK N   1      34.283  16.771   9.466  0.00  0.00     0.159 C 
BRANCH  17  18
HETATM   18  O   UNK N   1      34.930  17.159  10.636  0.00  0.00    -0.392 OA
HETATM   19  H   UNK N   1      35.471  17.894  10.964  0.00  0.00     0.210 HD
ENDBRANCH  17  18
BRANCH  17  20
HETATM   20  C   UNK N   1      34.608  15.304   9.203  0.00  0.00     0.147 C 
BRANCH  20  21
HETATM   21  N   UNK N   1      35.076  15.090   7.843  0.00  0.00    -0.415 N 
HETATM   22  H   UNK N   1      35.728  15.676   7.320  0.00  0.00     0.153 HD
BRANCH  21  23
HETATM   23  C   UNK N   1      34.430  13.873   7.376  0.00  0.00     0.068 C 
HETATM   24  C   UNK N   1      34.787  13.635   5.925  0.00  0.00     0.031 C 
HETATM   25  C   UNK N   1      32.925  13.997   7.514  0.00  0.00     0.031 C 
ENDBRANCH  21  23
ENDBRANCH  20  21
ENDBRANCH  17  20
ENDBRANCH  16  17
ENDBRANCH  15  16
ENDBRANCH   1  15
TORSDOF 7
ENDMDL
MODEL 5
REMARK VINA RESULT:      -6.3      3.708      9.020
REMARK  7 active torsions:
REMARK  status: ('A' for Active; 'I' for Inactive)
REMARK    1  A    between atoms: C_2  and  O_1 
REMARK    2  A    between atoms: C_3  and  C_2 
REMARK    3  A    between atoms: C_8  and  C_2 
REMARK    4  A    between atoms: C_3  and  N_4 
REMARK    5  A    between atoms: C_5  and  N_4 
REMARK    6  A    between atoms: O_9  and  C_8 
REMARK    7  A    between atoms: C_10  and  O_9 
ROOT
HETATM    1  C   UNK N   1      32.871  17.544   6.648  0.00  0.00     0.082 A 
HETATM    2  C   UNK N   1      33.505  17.338   5.408  0.00  0.00     0.038 A 
HETATM    3  C   UNK N   1      32.762  17.005   4.257  0.00  0.00     0.005 A 
HETATM    4  C   UNK N   1      31.365  16.882   4.320  0.00  0.00     0.030 A 
HETATM    5  C   UNK N   1      30.746  17.110   5.543  0.00  0.00     0.046 A 
HETATM    6  C   UNK N   1      31.460  17.437   6.685  0.00  0.00     0.036 A 
HETATM    7  N   UNK N   1      29.415  17.071   5.779  0.00  0.00    -0.355 N 
HETATM    8  C   UNK N   1      29.285  17.386   7.082  0.00  0.00     0.043 A 
HETATM    9  C   UNK N   1      30.512  17.617   7.673  0.00  0.00     0.006 A 
HETATM   10  C   UNK N   1      28.093  17.500   7.792  0.00  0.00     0.030 A 
HETATM   11  C   UNK N   1      28.169  17.865   9.147  0.00  0.00     0.002 A 
HETATM   12  C   UNK N   1      29.421  18.108   9.753  0.00  0.00     0.001 A 
HETATM   13  C   UNK N   1      30.609  17.983   9.011  0.00  0.00     0.014 A 
HETATM   14  H   UNK N   1      28.699  16.858   5.138  0.00  0.00     0.166 HD
ENDROOT
BRANCH   1  15
HETATM   15  O   UNK N   1      33.640  17.836   7.727  0.00  0.00    -0.348 OA
BRANCH  15  16
HETATM   16  C   UNK N   1      34.650  17.009   8.173  0.00  0.00     0.209 C 
BRANCH  16  17
HETATM   17  C   UNK N   1      34.591  16.788   9.685  0.00  0.00     0.159 C 
BRANCH  17  18
HETATM   18  O   UNK N   1      35.631  17.483  10.294  0.00  0.00    -0.392 OA
HETATM   19  H   UNK N   1      35.778  18.050  11.068  0.00  0.00     0.210 HD
ENDBRANCH  17  18
BRANCH  17  20
HETATM   20  C   UNK N   1      34.700  15.319  10.082  0.00  0.00     0.147 C 
BRANCH  20  21
HETATM   21  N   UNK N   1      36.086  14.892  10.197  0.00  0.00    -0.415 N 
HETATM   22  H   UNK N   1      36.871  15.200   9.622  0.00  0.00     0.153 HD
BRANCH  21  23
HETATM   23  C   UNK N   1      36.129  13.939  11.294  0.00  0.00     0.068 C 
HETATM   24  C   UNK N   1      35.997  14.675  12.610  0.00  0.00     0.031 C 
HETATM   25  C   UNK N   1      37.439  13.176  11.270  0.00  0.00     0.031 C 
ENDBRANCH  21  23
ENDBRANCH  20  21
ENDBRANCH  17  20
ENDBRANCH  16  17
ENDBRANCH  15  16
ENDBRANCH   1  15
TORSDOF 7
ENDMDL
MODEL 6
REMARK VINA RESULT:      -6.3     18.496     22.304
REMARK  7 active torsions:
REMARK  status: ('A' for Active; 'I' for Inactive)
REMARK    1  A    between atoms: C_2  and  O_1 
REMARK    2  A    between atoms: C_3  and  C_2 
REMARK    3  A    between atoms: C_8  and  C_2 
REMARK    4  A    between atoms: C_3  and  N_4 
REMARK    5  A    between atoms: C_5  and  N_4 
REMARK    6  A    between atoms: O_9  and  C_8 
REMARK    7  A    between atoms: C_10  and  O_9 
ROOT
HETATM    1  C   UNK N   1      28.362  23.663  -5.046  0.00  0.00     0.082 A 
HETATM    2  C   UNK N   1      28.728  22.581  -5.870  0.00  0.00     0.038 A 
HETATM    3  C   UNK N   1      28.003  22.277  -7.040  0.00  0.00     0.005 A 
HETATM    4  C   UNK N   1      26.901  23.060  -7.419  0.00  0.00     0.030 A 
HETATM    5  C   UNK N   1      26.562  24.140  -6.615  0.00  0.00     0.046 A 
HETATM    6  C   UNK N   1      27.262  24.452  -5.459  0.00  0.00     0.036 A 
HETATM    7  N   UNK N   1      25.558  25.017  -6.844  0.00  0.00    -0.355 N 
HETATM    8  C   UNK N   1      25.630  25.899  -5.829  0.00  0.00     0.043 A 
HETATM    9  C   UNK N   1      26.659  25.590  -4.960  0.00  0.00     0.006 A 
HETATM   10  C   UNK N   1      24.815  27.012  -5.639  0.00  0.00     0.030 A 
HETATM   11  C   UNK N   1      25.069  27.828  -4.523  0.00  0.00     0.002 A 
HETATM   12  C   UNK N   1      26.123  27.518  -3.635  0.00  0.00     0.001 A 
HETATM   13  C   UNK N   1      26.929  26.386  -3.852  0.00  0.00     0.014 A 
HETATM   14  H   UNK N   1      24.916  25.011  -7.590  0.00  0.00     0.166 HD
ENDROOT
BRANCH   1  15
HETATM   15  O   UNK N   1      29.080  23.891  -3.919  0.00  0.00    -0.348 OA
BRANCH  15  16
HETATM   16  C   UNK N   1      30.413  23.556  -3.800  0.00  0.00     0.209 C 
BRANCH  16  17
HETATM   17  C   UNK N   1      30.642  22.460  -2.758  0.00  0.00     0.159 C 
BRANCH  17  18
HETATM   18  O   UNK N   1      30.563  23.012  -1.482  0.00  0.00    -0.392 OA
HETATM   19  H   UNK N   1      30.513  22.717  -0.559  0.00  0.00     0.210 HD
ENDBRANCH  17  18
BRANCH  17  20
HETATM   20  C   UNK N   1      31.997  21.772  -2.897  0.00  0.00     0.147 C 
BRANCH  20  21
HETATM   21  N   UNK N   1      32.700  22.202  -4.095  0.00  0.00    -0.415 N 
HETATM   22  H   UNK N   1      32.821  23.161  -4.423  0.00  0.00     0.153 HD
BRANCH  21  23
HETATM   23  C   UNK N   1      33.197  20.993  -4.733  0.00  0.00     0.068 C 
HETATM   24  C   UNK N   1      32.036  20.216  -5.317  0.00  0.00     0.031 C 
HETATM   25  C   UNK N   1      33.925  20.131  -3.720  0.00  0.00     0.031 C 
ENDBRANCH  21  23
ENDBRANCH  20  21
ENDBRANCH  17  20
ENDBRANCH  16  17
ENDBRANCH  15  16
ENDBRANCH   1  15
TORSDOF 7
ENDMDL
MODEL 7
REMARK VINA RESULT:      -6.2      2.365      3.203
REMARK  7 active torsions:
REMARK  status: ('A' for Active; 'I' for Inactive)
REMARK    1  A    between atoms: C_2  and  O_1 
REMARK    2  A    between atoms: C_3  and  C_2 
REMARK    3  A    between atoms: C_8  and  C_2 
REMARK    4  A    between atoms: C_3  and  N_4 
REMARK    5  A    between atoms: C_5  and  N_4 
REMARK    6  A    between atoms: O_9  and  C_8 
REMARK    7  A    between atoms: C_10  and  O_9 
ROOT
HETATM    1  C   UNK N   1      36.741  11.794  13.346  0.00  0.00     0.082 A 
HETATM    2  C   UNK N   1      37.323  10.905  12.422  0.00  0.00     0.038 A 
HETATM    3  C   UNK N   1      37.797   9.640  12.827  0.00  0.00     0.005 A 
HETATM    4  C   UNK N   1      37.686   9.232  14.165  0.00  0.00     0.030 A 
HETATM    5  C   UNK N   1      37.088  10.105  15.065  0.00  0.00     0.046 A 
HETATM    6  C   UNK N   1      36.619  11.353  14.686  0.00  0.00     0.036 A 
HETATM    7  N   UNK N   1      36.868   9.865  16.377  0.00  0.00    -0.355 N 
HETATM    8  C   UNK N   1      36.243  10.969  16.831  0.00  0.00     0.043 A 
HETATM    9  C   UNK N   1      36.072  11.903  15.828  0.00  0.00     0.006 A 
HETATM   10  C   UNK N   1      35.787  11.189  18.128  0.00  0.00     0.030 A 
HETATM   11  C   UNK N   1      35.134  12.404  18.396  0.00  0.00     0.002 A 
HETATM   12  C   UNK N   1      34.952  13.359  17.373  0.00  0.00     0.001 A 
HETATM   13  C   UNK N   1      35.425  13.110  16.071  0.00  0.00     0.014 A 
HETATM   14  H   UNK N   1      37.111   9.060  16.889  0.00  0.00     0.166 HD
ENDROOT
BRANCH   1  15
HETATM   15  O   UNK N   1      36.328  13.007  12.904  0.00  0.00    -0.348 OA
BRANCH  15  16
HETATM   16  C   UNK N   1      35.153  13.190  12.205  0.00  0.00     0.209 C 
BRANCH  16  17
HETATM   17  C   UNK N   1      34.997  14.626  11.702  0.00  0.00     0.159 C 
BRANCH  17  18
HETATM   18  O   UNK N   1      33.661  14.863  11.391  0.00  0.00    -0.392 OA
HETATM   19  H   UNK N   1      32.905  15.359  11.743  0.00  0.00     0.210 HD
ENDBRANCH  17  18
BRANCH  17  20
HETATM   20  C   UNK N   1      35.837  14.922  10.463  0.00  0.00     0.147 C 
BRANCH  20  21
HETATM   21  N   UNK N   1      37.259  14.936  10.765  0.00  0.00    -0.415 N 
HETATM   22  H   UNK N   1      37.708  15.358  11.579  0.00  0.00     0.153 HD
BRANCH  21  23
HETATM   23  C   UNK N   1      37.914  14.229   9.677  0.00  0.00     0.068 C 
HETATM   24  C   UNK N   1      36.876  13.499   8.850  0.00  0.00     0.031 C 
HETATM   25  C   UNK N   1      38.913  13.231  10.230  0.00  0.00     0.031 C 
ENDBRANCH  21  23
ENDBRANCH  20  21
ENDBRANCH  17  20
ENDBRANCH  16  17
ENDBRANCH  15  16
ENDBRANCH   1  15
TORSDOF 7
ENDMDL
MODEL 8
REMARK VINA RESULT:      -6.2      7.598      9.920
REMARK  7 active torsions:
REMARK  status: ('A' for Active; 'I' for Inactive)
REMARK    1  A    between atoms: C_2  and  O_1 
REMARK    2  A    between atoms: C_3  and  C_2 
REMARK    3  A    between atoms: C_8  and  C_2 
REMARK    4  A    between atoms: C_3  and  N_4 
REMARK    5  A    between atoms: C_5  and  N_4 
REMARK    6  A    between atoms: O_9  and  C_8 
REMARK    7  A    between atoms: C_10  and  O_9 
ROOT
HETATM    1  C   UNK N   1      31.997  16.947   5.660  0.00  0.00     0.082 A 
HETATM    2  C   UNK N   1      33.367  16.690   5.458  0.00  0.00     0.038 A 
HETATM    3  C   UNK N   1      34.289  16.778   6.521  0.00  0.00     0.005 A 
HETATM    4  C   UNK N   1      33.858  17.113   7.814  0.00  0.00     0.030 A 
HETATM    5  C   UNK N   1      32.501  17.341   8.009  0.00  0.00     0.046 A 
HETATM    6  C   UNK N   1      31.580  17.261   6.976  0.00  0.00     0.036 A 
HETATM    7  N   UNK N   1      31.908  17.638   9.187  0.00  0.00    -0.355 N 
HETATM    8  C   UNK N   1      30.595  17.737   8.898  0.00  0.00     0.043 A 
HETATM    9  C   UNK N   1      30.353  17.513   7.557  0.00  0.00     0.006 A 
HETATM   10  C   UNK N   1      29.567  18.007   9.797  0.00  0.00     0.030 A 
HETATM   11  C   UNK N   1      28.253  18.044   9.299  0.00  0.00     0.002 A 
HETATM   12  C   UNK N   1      28.001  17.811   7.929  0.00  0.00     0.001 A 
HETATM   13  C   UNK N   1      29.060  17.542   7.044  0.00  0.00     0.014 A 
HETATM   14  H   UNK N   1      32.340  17.756  10.063  0.00  0.00     0.166 HD
ENDROOT
BRANCH   1  15
HETATM   15  O   UNK N   1      31.161  16.873   4.595  0.00  0.00    -0.348 OA
BRANCH  15  16
HETATM   16  C   UNK N   1      30.403  15.754   4.313  0.00  0.00     0.209 C 
BRANCH  16  17
HETATM   17  C   UNK N   1      29.449  15.984   3.141  0.00  0.00     0.159 C 
BRANCH  17  18
HETATM   18  O   UNK N   1      30.106  16.700   2.144  0.00  0.00    -0.392 OA
HETATM   19  H   UNK N   1      30.637  16.529   1.350  0.00  0.00     0.210 HD
ENDBRANCH  17  18
BRANCH  17  20
HETATM   20  C   UNK N   1      28.191  16.753   3.532  0.00  0.00     0.147 C 
BRANCH  20  21
HETATM   21  N   UNK N   1      28.469  18.162   3.762  0.00  0.00    -0.415 N 
HETATM   22  H   UNK N   1      29.387  18.605   3.807  0.00  0.00     0.153 HD
BRANCH  21  23
HETATM   23  C   UNK N   1      27.178  18.813   3.916  0.00  0.00     0.068 C 
HETATM   24  C   UNK N   1      27.347  20.096   4.701  0.00  0.00     0.031 C 
HETATM   25  C   UNK N   1      26.216  17.896   4.646  0.00  0.00     0.031 C 
ENDBRANCH  21  23
ENDBRANCH  20  21
ENDBRANCH  17  20
ENDBRANCH  16  17
ENDBRANCH  15  16
ENDBRANCH   1  15
TORSDOF 7
ENDMDL
MODEL 9
REMARK VINA RESULT:      -6.2      2.223      4.407
REMARK  7 active torsions:
REMARK  status: ('A' for Active; 'I' for Inactive)
REMARK    1  A    between atoms: C_2  and  O_1 
REMARK    2  A    between atoms: C_3  and  C_2 
REMARK    3  A    between atoms: C_8  and  C_2 
REMARK    4  A    between atoms: C_3  and  N_4 
REMARK    5  A    between atoms: C_5  and  N_4 
REMARK    6  A    between atoms: O_9  and  C_8 
REMARK    7  A    between atoms: C_10  and  O_9 
ROOT
HETATM    1  C   UNK N   1      34.914  12.556  15.746  0.00  0.00     0.082 A 
HETATM    2  C   UNK N   1      34.890  13.467  16.819  0.00  0.00     0.038 A 
HETATM    3  C   UNK N   1      35.079  13.033  18.147  0.00  0.00     0.005 A 
HETATM    4  C   UNK N   1      35.309  11.678  18.429  0.00  0.00     0.030 A 
HETATM    5  C   UNK N   1      35.355  10.789  17.362  0.00  0.00     0.046 A 
HETATM    6  C   UNK N   1      35.170  11.197  16.050  0.00  0.00     0.036 A 
HETATM    7  N   UNK N   1      35.600   9.462  17.444  0.00  0.00    -0.355 N 
HETATM    8  C   UNK N   1      35.579   9.027  16.170  0.00  0.00     0.043 A 
HETATM    9  C   UNK N   1      35.319  10.057  15.286  0.00  0.00     0.006 A 
HETATM   10  C   UNK N   1      35.803   7.723  15.736  0.00  0.00     0.030 A 
HETATM   11  C   UNK N   1      35.762   7.476  14.352  0.00  0.00     0.002 A 
HETATM   12  C   UNK N   1      35.502   8.527  13.446  0.00  0.00     0.001 A 
HETATM   13  C   UNK N   1      35.277   9.835  13.914  0.00  0.00     0.014 A 
HETATM   14  H   UNK N   1      35.758   8.931  18.258  0.00  0.00     0.166 HD
ENDROOT
BRANCH   1  15
HETATM   15  O   UNK N   1      34.700  13.026  14.492  0.00  0.00    -0.348 OA
BRANCH  15  16
HETATM   16  C   UNK N   1      35.636  13.768  13.800  0.00  0.00     0.209 C 
BRANCH  16  17
HETATM   17  C   UNK N   1      36.142  13.041  12.554  0.00  0.00     0.159 C 
BRANCH  17  18
HETATM   18  O   UNK N   1      37.423  13.489  12.246  0.00  0.00    -0.392 OA
HETATM   19  H   UNK N   1      38.254  13.697  12.701  0.00  0.00     0.210 HD
ENDBRANCH  17  18
BRANCH  17  20
HETATM   20  C   UNK N   1      35.254  13.254  11.331  0.00  0.00     0.147 C 
BRANCH  20  21
HETATM   21  N   UNK N   1      34.271  14.303  11.555  0.00  0.00    -0.415 N 
HETATM   22  H   UNK N   1      33.579  14.344  12.304  0.00  0.00     0.153 HD
BRANCH  21  23
HETATM   23  C   UNK N   1      34.471  15.281  10.497  0.00  0.00     0.068 C 
HETATM   24  C   UNK N   1      35.128  14.613   9.308  0.00  0.00     0.031 C 
HETATM   25  C   UNK N   1      35.351  16.412  10.993  0.00  0.00     0.031 C 
ENDBRANCH  21  23
ENDBRANCH  20  21
ENDBRANCH  17  20
ENDBRANCH  16  17
ENDBRANCH  15  16
ENDBRANCH   1  15
TORSDOF 7
ENDMDL
