REMARK  7 active torsions:
REMARK  status: ('A' for Active; 'I' for Inactive)
REMARK    1  A    between atoms: C_2  and  O_1 
REMARK    2  A    between atoms: C_3  and  C_2 
REMARK    3  A    between atoms: C_8  and  C_2 
REMARK    4  A    between atoms: C_3  and  N_4 
REMARK    5  A    between atoms: C_5  and  N_4 
REMARK    6  A    between atoms: O_9  and  C_8 
REMARK    7  A    between atoms: C_10  and  O_9 
ROOT
HETATM    1  C   UNK N   1       1.606  -1.076   0.143  0.00  0.00     0.082 A 
HETATM    2  C   UNK N   1       1.784  -2.472   0.189  0.00  0.00     0.038 A 
HETATM    3  C   UNK N   1       3.067  -3.047   0.084  0.00  0.00     0.005 A 
HETATM    4  C   UNK N   1       4.203  -2.235  -0.057  0.00  0.00     0.030 A 
HETATM    5  C   UNK N   1       4.021  -0.858  -0.077  0.00  0.00     0.046 A 
HETATM    6  C   UNK N   1       2.767  -0.275   0.023  0.00  0.00     0.036 A 
HETATM    7  N   UNK N   1       4.999   0.071  -0.170  0.00  0.00    -0.355 N 
HETATM    8  C   UNK N   1       4.358   1.255  -0.118  0.00  0.00     0.043 A 
HETATM    9  C   UNK N   1       2.992   1.087   0.000  0.00  0.00     0.006 A 
HETATM   10  C   UNK N   1       4.945   2.517  -0.153  0.00  0.00     0.030 A 
HETATM   11  C   UNK N   1       4.099   3.636  -0.061  0.00  0.00     0.002 A 
HETATM   12  C   UNK N   1       2.703   3.469   0.065  0.00  0.00     0.001 A 
HETATM   13  C   UNK N   1       2.138   2.181   0.096  0.00  0.00     0.014 A 
HETATM   14  H   UNK N   1       5.967  -0.084  -0.257  0.00  0.00     0.166 HD
ENDROOT
BRANCH   1  15
HETATM   15  O   UNK N   1       0.346  -0.581   0.222  0.00  0.00    -0.348 OA
BRANCH  15  16
HETATM   16  C   UNK N   1      -0.151   0.348  -0.669  0.00  0.00     0.209 C 
BRANCH  16  17
HETATM   17  C   UNK N   1      -1.216   1.244  -0.035  0.00  0.00     0.159 C 
BRANCH  17  18
HETATM   18  O   UNK N   1      -0.630   2.027   0.956  0.00  0.00    -0.392 OA
HETATM   19  H   UNK N   1       0.046   1.947   1.647  0.00  0.00     0.210 HD
ENDBRANCH  17  18
BRANCH  17  20
HETATM   20  C   UNK N   1      -2.365   0.460   0.592  0.00  0.00     0.147 C 
BRANCH  20  21
HETATM   21  N   UNK N   1      -3.267  -0.075  -0.416  0.00  0.00    -0.415 N 
HETATM   22  H   UNK N   1      -3.181   0.022  -1.428  0.00  0.00     0.153 HD
BRANCH  21  23
HETATM   23  C   UNK N   1      -4.316  -0.776   0.307  0.00  0.00     0.068 C 
HETATM   24  C   UNK N   1      -4.222  -2.260   0.023  0.00  0.00     0.031 C 
HETATM   25  C   UNK N   1      -5.677  -0.264  -0.123  0.00  0.00     0.031 C 
ENDBRANCH  21  23
ENDBRANCH  20  21
ENDBRANCH  17  20
ENDBRANCH  16  17
ENDBRANCH  15  16
ENDBRANCH   1  15
TORSDOF 7
