REMARK  5 active torsions:
REMARK  status: ('A' for Active; 'I' for Inactive)
REMARK    1  A    between atoms: C_2  and  C_5 
REMARK    2  A    between atoms: C_10  and  S_11 
REMARK    3  A    between atoms: S_11  and  N_14 
REMARK    4  A    between atoms: N_14  and  N_15 
REMARK       I    between atoms: N_15  and  C_16 
REMARK    5  A    between atoms: C_16  and  C_18 
ROOT
HETATM    1  N   UNK N   1      -0.482   0.543  -1.326  0.00  0.00    -0.220 N 
HETATM    2  H   UNK N   1      -0.355   0.184  -2.272  0.00  0.00     0.200 HD
ENDROOT
BRANCH   1   3
HETATM    3  S   UNK N   1      -1.219  -0.347   0.025  0.00  0.00     0.277 S 
HETATM    4  O   UNK N   1      -0.325  -1.590   0.155  0.00  0.00    -0.199 OA
HETATM    5  O   UNK N   1      -0.847   0.392   1.321  0.00  0.00    -0.199 OA
BRANCH   3   6
HETATM    6  C   UNK N   1      -2.942  -0.873  -0.012  0.00  0.00     0.096 A 
HETATM    7  C   UNK N   1      -4.057   0.017   0.004  0.00  0.00     0.071 A 
HETATM    8  C   UNK N   1      -5.351  -0.529   0.048  0.00  0.00     0.018 A 
HETATM    9  C   UNK N   1      -5.555  -1.908   0.065  0.00  0.00     0.001 A 
HETATM   10  C   UNK N   1      -4.465  -2.772   0.038  0.00  0.00     0.002 A 
HETATM   11  C   UNK N   1      -3.172  -2.256   0.005  0.00  0.00     0.026 A 
BRANCH   7  12
HETATM   12  C   UNK N   1      -3.967   1.528  -0.014  0.00  0.00     0.419 C 
HETATM   13  F   UNK N   1      -4.501   2.027   1.159  0.00  0.00    -0.166 F 
HETATM   14  F   UNK N   1      -2.689   2.016  -0.140  0.00  0.00    -0.166 F 
HETATM   15  F   UNK N   1      -4.707   2.010  -1.080  0.00  0.00    -0.166 F 
ENDBRANCH   7  12
ENDBRANCH   3   6
ENDBRANCH   1   3
BRANCH   1  16
HETATM   16  N   UNK N   1      -0.107   1.808  -0.885  0.00  0.00    -0.254 N 
HETATM   17  C   UNK N   1       1.136   2.080  -0.405  0.00  0.00     0.294 C 
HETATM   18  O   UNK N   1       1.406   3.222  -0.073  0.00  0.00    -0.264 OA
HETATM   19  H   UNK N   1      -0.769   2.537  -0.922  0.00  0.00     0.191 HD
BRANCH  17  20
HETATM   20  C   UNK N   1       2.167   1.026  -0.270  0.00  0.00     0.146 A 
HETATM   21  C   UNK N   1       3.485   1.229   0.150  0.00  0.00     0.057 A 
HETATM   22  C   UNK N   1       4.043  -0.032   0.109  0.00  0.00     0.002 A 
HETATM   23  C   UNK N   1       3.072  -0.898  -0.306  0.00  0.00     0.086 A 
HETATM   24  C   UNK N   1       5.334  -0.464   0.397  0.00  0.00     0.038 A 
HETATM   25  O   UNK N   1       1.964  -0.250  -0.531  0.00  0.00    -0.304 OA
HETATM   26  C   UNK N   1       3.305  -2.260  -0.452  0.00  0.00     0.040 A 
HETATM   27  C   UNK N   1       4.599  -2.732  -0.168  0.00  0.00     0.026 A 
HETATM   28  C   UNK N   1       5.611  -1.838   0.250  0.00  0.00     0.035 A 
HETATM   29 Cl   UNK N   1       7.222  -2.441   0.566  0.00  0.00    -0.084 Cl
ENDBRANCH  17  20
ENDBRANCH   1  16
TORSDOF 5
