MODEL 1
REMARK VINA RESULT:      -6.8      0.000      0.000
REMARK  5 active torsions:
REMARK  status: ('A' for Active; 'I' for Inactive)
REMARK    1  A    between atoms: C_2  and  C_5 
REMARK    2  A    between atoms: C_10  and  S_11 
REMARK    3  A    between atoms: S_11  and  N_14 
REMARK    4  A    between atoms: N_14  and  N_15 
REMARK       I    between atoms: N_15  and  C_16 
REMARK    5  A    between atoms: C_16  and  C_18 
ROOT
HETATM    1  N   UNK N   1      34.323  16.323  10.025  0.00  0.00    -0.220 N 
HETATM    2  H   UNK N   1      33.448  16.274  10.545  0.00  0.00     0.200 HD
ENDROOT
BRANCH   1   3
HETATM    3  S   UNK N   1      35.213  14.931   9.369  0.00  0.00     0.277 S 
HETATM    4  O   UNK N   1      36.653  15.180   9.845  0.00  0.00    -0.199 OA
HETATM    5  O   UNK N   1      34.852  13.707  10.228  0.00  0.00    -0.199 OA
BRANCH   3   6
HETATM    6  C   UNK N   1      35.240  14.566   7.605  0.00  0.00     0.096 A 
HETATM    7  C   UNK N   1      34.132  14.046   6.873  0.00  0.00     0.071 A 
HETATM    8  C   UNK N   1      34.312  13.735   5.514  0.00  0.00     0.018 A 
HETATM    9  C   UNK N   1      35.537  13.935   4.881  0.00  0.00     0.001 A 
HETATM   10  C   UNK N   1      36.612  14.453   5.597  0.00  0.00     0.002 A 
HETATM   11  C   UNK N   1      36.463  14.760   6.947  0.00  0.00     0.026 A 
BRANCH   7  12
HETATM   12  C   UNK N   1      32.754  13.786   7.443  0.00  0.00     0.419 C 
HETATM   13  F   UNK N   1      32.737  12.536   8.034  0.00  0.00    -0.166 F 
HETATM   14  F   UNK N   1      32.349  14.704   8.381  0.00  0.00    -0.166 F 
HETATM   15  F   UNK N   1      31.830  13.803   6.413  0.00  0.00    -0.166 F 
ENDBRANCH   7  12
ENDBRANCH   3   6
ENDBRANCH   1   3
BRANCH   1  16
HETATM   16  N   UNK N   1      35.014  17.490   9.714  0.00  0.00    -0.254 N 
HETATM   17  C   UNK N   1      34.713  18.255   8.630  0.00  0.00     0.294 C 
HETATM   18  O   UNK N   1      35.336  19.286   8.442  0.00  0.00    -0.264 OA
HETATM   19  H   UNK N   1      35.751  17.774  10.303  0.00  0.00     0.191 HD
BRANCH  17  20
HETATM   20  C   UNK N   1      33.655  17.865   7.671  0.00  0.00     0.146 A 
HETATM   21  C   UNK N   1      33.846  17.614   6.309  0.00  0.00     0.057 A 
HETATM   22  C   UNK N   1      32.584  17.297   5.850  0.00  0.00     0.002 A 
HETATM   23  C   UNK N   1      31.732  17.359   6.916  0.00  0.00     0.086 A 
HETATM   24  C   UNK N   1      32.137  16.972   4.574  0.00  0.00     0.038 A 
HETATM   25  O   UNK N   1      32.386  17.703   7.989  0.00  0.00    -0.304 OA
HETATM   26  C   UNK N   1      30.374  17.089   6.797  0.00  0.00     0.040 A 
HETATM   27  C   UNK N   1      29.887  16.756   5.520  0.00  0.00     0.026 A 
HETATM   28  C   UNK N   1      30.763  16.702   4.412  0.00  0.00     0.035 A 
HETATM   29 Cl   UNK N   1      30.131  16.318   2.827  0.00  0.00    -0.084 Cl
ENDBRANCH  17  20
ENDBRANCH   1  16
TORSDOF 5
ENDMDL
MODEL 2
REMARK VINA RESULT:      -6.6      3.104      3.783
REMARK  5 active torsions:
REMARK  status: ('A' for Active; 'I' for Inactive)
REMARK    1  A    between atoms: C_2  and  C_5 
REMARK    2  A    between atoms: C_10  and  S_11 
REMARK    3  A    between atoms: S_11  and  N_14 
REMARK    4  A    between atoms: N_14  and  N_15 
REMARK       I    between atoms: N_15  and  C_16 
REMARK    5  A    between atoms: C_16  and  C_18 
ROOT
HETATM    1  N   UNK N   1      34.198  16.255   9.992  0.00  0.00    -0.220 N 
HETATM    2  H   UNK N   1      33.234  16.231  10.321  0.00  0.00     0.200 HD
ENDROOT
BRANCH   1   3
HETATM    3  S   UNK N   1      35.234  14.835   9.727  0.00  0.00     0.277 S 
HETATM    4  O   UNK N   1      35.264  14.704   8.196  0.00  0.00    -0.199 OA
HETATM    5  O   UNK N   1      36.686  15.268   9.991  0.00  0.00    -0.199 OA
BRANCH   3   6
HETATM    6  C   UNK N   1      34.841  13.227  10.439  0.00  0.00     0.096 A 
HETATM    7  C   UNK N   1      35.094  12.863  11.796  0.00  0.00     0.071 A 
HETATM    8  C   UNK N   1      34.808  11.549  12.202  0.00  0.00     0.018 A 
HETATM    9  C   UNK N   1      34.277  10.615  11.313  0.00  0.00     0.001 A 
HETATM   10  C   UNK N   1      34.022  10.978   9.995  0.00  0.00     0.002 A 
HETATM   11  C   UNK N   1      34.307  12.271   9.564  0.00  0.00     0.026 A 
BRANCH   7  12
HETATM   12  C   UNK N   1      35.664  13.783  12.854  0.00  0.00     0.419 C 
HETATM   13  F   UNK N   1      37.043  13.777  12.765  0.00  0.00    -0.166 F 
HETATM   14  F   UNK N   1      35.238  15.086  12.758  0.00  0.00    -0.166 F 
HETATM   15  F   UNK N   1      35.297  13.314  14.103  0.00  0.00    -0.166 F 
ENDBRANCH   7  12
ENDBRANCH   3   6
ENDBRANCH   1   3
BRANCH   1  16
HETATM   16  N   UNK N   1      34.916  17.405   9.678  0.00  0.00    -0.254 N 
HETATM   17  C   UNK N   1      34.635  18.172   8.591  0.00  0.00     0.294 C 
HETATM   18  O   UNK N   1      35.282  19.189   8.400  0.00  0.00    -0.264 OA
HETATM   19  H   UNK N   1      35.658  17.675  10.267  0.00  0.00     0.191 HD
BRANCH  17  20
HETATM   20  C   UNK N   1      33.570  17.803   7.631  0.00  0.00     0.146 A 
HETATM   21  C   UNK N   1      33.747  17.610   6.257  0.00  0.00     0.057 A 
HETATM   22  C   UNK N   1      32.484  17.290   5.803  0.00  0.00     0.002 A 
HETATM   23  C   UNK N   1      31.646  17.296   6.882  0.00  0.00     0.086 A 
HETATM   24  C   UNK N   1      32.024  17.008   4.521  0.00  0.00     0.038 A 
HETATM   25  O   UNK N   1      32.309  17.608   7.959  0.00  0.00    -0.304 OA
HETATM   26  C   UNK N   1      30.291  17.008   6.770  0.00  0.00     0.040 A 
HETATM   27  C   UNK N   1      29.792  16.718   5.488  0.00  0.00     0.026 A 
HETATM   28  C   UNK N   1      30.653  16.722   4.367  0.00  0.00     0.035 A 
HETATM   29 Cl   UNK N   1      30.005  16.391   2.777  0.00  0.00    -0.084 Cl
ENDBRANCH  17  20
ENDBRANCH   1  16
TORSDOF 5
ENDMDL
MODEL 3
REMARK VINA RESULT:      -6.6     10.763     12.865
REMARK  5 active torsions:
REMARK  status: ('A' for Active; 'I' for Inactive)
REMARK    1  A    between atoms: C_2  and  C_5 
REMARK    2  A    between atoms: C_10  and  S_11 
REMARK    3  A    between atoms: S_11  and  N_14 
REMARK    4  A    between atoms: N_14  and  N_15 
REMARK       I    between atoms: N_15  and  C_16 
REMARK    5  A    between atoms: C_16  and  C_18 
ROOT
HETATM    1  N   UNK N   1      21.896  17.404   6.339  0.00  0.00    -0.220 N 
HETATM    2  H   UNK N   1      22.195  17.794   7.232  0.00  0.00     0.200 HD
ENDROOT
BRANCH   1   3
HETATM    3  S   UNK N   1      22.933  17.183   4.912  0.00  0.00     0.277 S 
HETATM    4  O   UNK N   1      23.996  16.186   5.401  0.00  0.00    -0.199 OA
HETATM    5  O   UNK N   1      22.166  16.295   3.918  0.00  0.00    -0.199 OA
BRANCH   3   6
HETATM    6  C   UNK N   1      23.762  18.571   4.116  0.00  0.00     0.096 A 
HETATM    7  C   UNK N   1      23.093  19.601   3.391  0.00  0.00     0.071 A 
HETATM    8  C   UNK N   1      23.868  20.586   2.756  0.00  0.00     0.018 A 
HETATM    9  C   UNK N   1      25.260  20.574   2.832  0.00  0.00     0.001 A 
HETATM   10  C   UNK N   1      25.908  19.573   3.550  0.00  0.00     0.002 A 
HETATM   11  C   UNK N   1      25.163  18.580   4.180  0.00  0.00     0.026 A 
BRANCH   7  12
HETATM   12  C   UNK N   1      21.592  19.725   3.237  0.00  0.00     0.419 C 
HETATM   13  F   UNK N   1      21.300  20.922   2.610  0.00  0.00    -0.166 F 
HETATM   14  F   UNK N   1      21.014  18.713   2.510  0.00  0.00    -0.166 F 
HETATM   15  F   UNK N   1      21.009  19.726   4.492  0.00  0.00    -0.166 F 
ENDBRANCH   7  12
ENDBRANCH   3   6
ENDBRANCH   1   3
BRANCH   1  16
HETATM   16  N   UNK N   1      20.613  16.958   6.040  0.00  0.00    -0.254 N 
HETATM   17  C   UNK N   1      20.063  15.858   6.622  0.00  0.00     0.294 C 
HETATM   18  O   UNK N   1      18.917  15.550   6.340  0.00  0.00    -0.264 OA
HETATM   19  H   UNK N   1      20.080  17.460   5.381  0.00  0.00     0.191 HD
BRANCH  17  20
HETATM   20  C   UNK N   1      20.821  15.024   7.582  0.00  0.00     0.146 A 
HETATM   21  C   UNK N   1      20.346  14.575   8.818  0.00  0.00     0.057 A 
HETATM   22  C   UNK N   1      21.400  13.851   9.334  0.00  0.00     0.002 A 
HETATM   23  C   UNK N   1      22.413  13.889   8.418  0.00  0.00     0.086 A 
HETATM   24  C   UNK N   1      21.535  13.179  10.545  0.00  0.00     0.038 A 
HETATM   25  O   UNK N   1      22.051  14.595   7.384  0.00  0.00    -0.304 OA
HETATM   26  C   UNK N   1      23.629  13.250   8.629  0.00  0.00     0.040 A 
HETATM   27  C   UNK N   1      23.798  12.560   9.842  0.00  0.00     0.026 A 
HETATM   28  C   UNK N   1      22.758  12.527  10.799  0.00  0.00     0.035 A 
HETATM   29 Cl   UNK N   1      23.003  11.691  12.315  0.00  0.00    -0.084 Cl
ENDBRANCH  17  20
ENDBRANCH   1  16
TORSDOF 5
ENDMDL
MODEL 4
REMARK VINA RESULT:      -6.6      1.961      2.439
REMARK  5 active torsions:
REMARK  status: ('A' for Active; 'I' for Inactive)
REMARK    1  A    between atoms: C_2  and  C_5 
REMARK    2  A    between atoms: C_10  and  S_11 
REMARK    3  A    between atoms: S_11  and  N_14 
REMARK    4  A    between atoms: N_14  and  N_15 
REMARK       I    between atoms: N_15  and  C_16 
REMARK    5  A    between atoms: C_16  and  C_18 
ROOT
HETATM    1  N   UNK N   1      34.185  16.421  10.177  0.00  0.00    -0.220 N 
HETATM    2  H   UNK N   1      33.167  16.373  10.162  0.00  0.00     0.200 HD
ENDROOT
BRANCH   1   3
HETATM    3  S   UNK N   1      35.272  15.112  10.694  0.00  0.00     0.277 S 
HETATM    4  O   UNK N   1      36.644  15.571  10.175  0.00  0.00    -0.199 OA
HETATM    5  O   UNK N   1      35.489  15.264  12.208  0.00  0.00    -0.199 OA
BRANCH   3   6
HETATM    6  C   UNK N   1      35.005  13.402  10.192  0.00  0.00     0.096 A 
HETATM    7  C   UNK N   1      34.550  13.003   8.899  0.00  0.00     0.071 A 
HETATM    8  C   UNK N   1      34.311  11.639   8.664  0.00  0.00     0.018 A 
HETATM    9  C   UNK N   1      34.519  10.685   9.659  0.00  0.00     0.001 A 
HETATM   10  C   UNK N   1      34.973  11.077  10.914  0.00  0.00     0.002 A 
HETATM   11  C   UNK N   1      35.208  12.425  11.176  0.00  0.00     0.026 A 
BRANCH   7  12
HETATM   12  C   UNK N   1      34.289  13.940   7.739  0.00  0.00     0.419 C 
HETATM   13  F   UNK N   1      33.090  14.595   7.947  0.00  0.00    -0.166 F 
HETATM   14  F   UNK N   1      35.264  14.889   7.549  0.00  0.00    -0.166 F 
HETATM   15  F   UNK N   1      34.194  13.197   6.575  0.00  0.00    -0.166 F 
ENDBRANCH   7  12
ENDBRANCH   3   6
ENDBRANCH   1   3
BRANCH   1  16
HETATM   16  N   UNK N   1      34.948  17.520   9.798  0.00  0.00    -0.254 N 
HETATM   17  C   UNK N   1      34.697  18.233   8.666  0.00  0.00     0.294 C 
HETATM   18  O   UNK N   1      35.384  19.210   8.417  0.00  0.00    -0.264 OA
HETATM   19  H   UNK N   1      35.700  17.795  10.372  0.00  0.00     0.191 HD
BRANCH  17  20
HETATM   20  C   UNK N   1      33.618  17.850   7.728  0.00  0.00     0.146 A 
HETATM   21  C   UNK N   1      33.779  17.616   6.359  0.00  0.00     0.057 A 
HETATM   22  C   UNK N   1      32.507  17.299   5.926  0.00  0.00     0.002 A 
HETATM   23  C   UNK N   1      31.680  17.346   7.012  0.00  0.00     0.086 A 
HETATM   24  C   UNK N   1      32.031  16.988   4.656  0.00  0.00     0.038 A 
HETATM   25  O   UNK N   1      32.358  17.679   8.074  0.00  0.00    -0.304 OA
HETATM   26  C   UNK N   1      30.321  17.072   6.922  0.00  0.00     0.040 A 
HETATM   27  C   UNK N   1      29.805  16.752   5.653  0.00  0.00     0.026 A 
HETATM   28  C   UNK N   1      30.655  16.715   4.524  0.00  0.00     0.035 A 
HETATM   29 Cl   UNK N   1      29.987  16.347   2.950  0.00  0.00    -0.084 Cl
ENDBRANCH  17  20
ENDBRANCH   1  16
TORSDOF 5
ENDMDL
MODEL 5
REMARK VINA RESULT:      -6.5      2.982      4.275
REMARK  5 active torsions:
REMARK  status: ('A' for Active; 'I' for Inactive)
REMARK    1  A    between atoms: C_2  and  C_5 
REMARK    2  A    between atoms: C_10  and  S_11 
REMARK    3  A    between atoms: S_11  and  N_14 
REMARK    4  A    between atoms: N_14  and  N_15 
REMARK       I    between atoms: N_15  and  C_16 
REMARK    5  A    between atoms: C_16  and  C_18 
ROOT
HETATM    1  N   UNK N   1      32.352  18.207   7.910  0.00  0.00    -0.220 N 
HETATM    2  H   UNK N   1      31.954  18.709   7.116  0.00  0.00     0.200 HD
ENDROOT
BRANCH   1   3
HETATM    3  S   UNK N   1      34.072  17.811   8.124  0.00  0.00     0.277 S 
HETATM    4  O   UNK N   1      34.547  17.529   6.690  0.00  0.00    -0.199 OA
HETATM    5  O   UNK N   1      34.816  19.127   8.403  0.00  0.00    -0.199 OA
BRANCH   3   6
HETATM    6  C   UNK N   1      34.610  16.462   9.190  0.00  0.00     0.096 A 
HETATM    7  C   UNK N   1      34.313  15.086   8.961  0.00  0.00     0.071 A 
HETATM    8  C   UNK N   1      34.731  14.141   9.914  0.00  0.00     0.018 A 
HETATM    9  C   UNK N   1      35.431  14.526  11.056  0.00  0.00     0.001 A 
HETATM   10  C   UNK N   1      35.729  15.868  11.270  0.00  0.00     0.002 A 
HETATM   11  C   UNK N   1      35.316  16.825  10.346  0.00  0.00     0.026 A 
BRANCH   7  12
HETATM   12  C   UNK N   1      33.564  14.543   7.763  0.00  0.00     0.419 C 
HETATM   13  F   UNK N   1      33.336  13.192   7.945  0.00  0.00    -0.166 F 
HETATM   14  F   UNK N   1      32.353  15.150   7.532  0.00  0.00    -0.166 F 
HETATM   15  F   UNK N   1      34.342  14.715   6.631  0.00  0.00    -0.166 F 
ENDBRANCH   7  12
ENDBRANCH   3   6
ENDBRANCH   1   3
BRANCH   1  16
HETATM   16  N   UNK N   1      31.636  17.722   9.000  0.00  0.00    -0.254 N 
HETATM   17  C   UNK N   1      30.284  17.577   8.985  0.00  0.00     0.294 C 
HETATM   18  O   UNK N   1      29.727  17.108   9.963  0.00  0.00    -0.264 OA
HETATM   19  H   UNK N   1      32.129  17.473   9.816  0.00  0.00     0.191 HD
BRANCH  17  20
HETATM   20  C   UNK N   1      29.470  17.979   7.815  0.00  0.00     0.146 A 
HETATM   21  C   UNK N   1      28.463  18.949   7.821  0.00  0.00     0.057 A 
HETATM   22  C   UNK N   1      28.006  18.959   6.519  0.00  0.00     0.002 A 
HETATM   23  C   UNK N   1      28.737  18.042   5.820  0.00  0.00     0.086 A 
HETATM   24  C   UNK N   1      26.997  19.703   5.917  0.00  0.00     0.038 A 
HETATM   25  O   UNK N   1      29.600  17.465   6.608  0.00  0.00    -0.304 OA
HETATM   26  C   UNK N   1      28.531  17.804   4.466  0.00  0.00     0.040 A 
HETATM   27  C   UNK N   1      27.518  18.540   3.824  0.00  0.00     0.026 A 
HETATM   28  C   UNK N   1      26.751  19.482   4.547  0.00  0.00     0.035 A 
HETATM   29 Cl   UNK N   1      25.475  20.362   3.737  0.00  0.00    -0.084 Cl
ENDBRANCH  17  20
ENDBRANCH   1  16
TORSDOF 5
ENDMDL
MODEL 6
REMARK VINA RESULT:      -6.5      3.270      3.986
REMARK  5 active torsions:
REMARK  status: ('A' for Active; 'I' for Inactive)
REMARK    1  A    between atoms: C_2  and  C_5 
REMARK    2  A    between atoms: C_10  and  S_11 
REMARK    3  A    between atoms: S_11  and  N_14 
REMARK    4  A    between atoms: N_14  and  N_15 
REMARK       I    between atoms: N_15  and  C_16 
REMARK    5  A    between atoms: C_16  and  C_18 
ROOT
HETATM    1  N   UNK N   1      34.391  16.037   9.304  0.00  0.00    -0.220 N 
HETATM    2  H   UNK N   1      33.754  15.643   8.612  0.00  0.00     0.200 HD
ENDROOT
BRANCH   1   3
HETATM    3  S   UNK N   1      35.041  15.176  10.716  0.00  0.00     0.277 S 
HETATM    4  O   UNK N   1      35.545  16.313  11.619  0.00  0.00    -0.199 OA
HETATM    5  O   UNK N   1      33.845  14.681  11.546  0.00  0.00    -0.199 OA
BRANCH   3   6
HETATM    6  C   UNK N   1      36.343  13.940  10.558  0.00  0.00     0.096 A 
HETATM    7  C   UNK N   1      36.911  13.223  11.653  0.00  0.00     0.071 A 
HETATM    8  C   UNK N   1      37.974  12.340  11.398  0.00  0.00     0.018 A 
HETATM    9  C   UNK N   1      38.465  12.152  10.107  0.00  0.00     0.001 A 
HETATM   10  C   UNK N   1      37.901  12.845   9.041  0.00  0.00     0.002 A 
HETATM   11  C   UNK N   1      36.853  13.734   9.269  0.00  0.00     0.026 A 
BRANCH   7  12
HETATM   12  C   UNK N   1      36.466  13.338  13.095  0.00  0.00     0.419 C 
HETATM   13  F   UNK N   1      36.655  14.638  13.525  0.00  0.00    -0.166 F 
HETATM   14  F   UNK N   1      35.149  13.007  13.308  0.00  0.00    -0.166 F 
HETATM   15  F   UNK N   1      37.241  12.495  13.874  0.00  0.00    -0.166 F 
ENDBRANCH   7  12
ENDBRANCH   3   6
ENDBRANCH   1   3
BRANCH   1  16
HETATM   16  N   UNK N   1      34.890  17.336   9.295  0.00  0.00    -0.254 N 
HETATM   17  C   UNK N   1      34.580  18.236   8.324  0.00  0.00     0.294 C 
HETATM   18  O   UNK N   1      35.023  19.369   8.403  0.00  0.00    -0.264 OA
HETATM   19  H   UNK N   1      35.492  17.616  10.023  0.00  0.00     0.191 HD
BRANCH  17  20
HETATM   20  C   UNK N   1      33.724  17.873   7.171  0.00  0.00     0.146 A 
HETATM   21  C   UNK N   1      32.351  17.618   7.228  0.00  0.00     0.057 A 
HETATM   22  C   UNK N   1      32.014  17.326   5.922  0.00  0.00     0.002 A 
HETATM   23  C   UNK N   1      33.151  17.427   5.172  0.00  0.00     0.086 A 
HETATM   24  C   UNK N   1      30.794  16.971   5.356  0.00  0.00     0.038 A 
HETATM   25  O   UNK N   1      34.159  17.749   5.933  0.00  0.00    -0.304 OA
HETATM   26  C   UNK N   1      33.159  17.197   3.802  0.00  0.00     0.040 A 
HETATM   27  C   UNK N   1      31.942  16.838   3.196  0.00  0.00     0.026 A 
HETATM   28  C   UNK N   1      30.765  16.720   3.970  0.00  0.00     0.035 A 
HETATM   29 Cl   UNK N   1      29.269  16.239   3.202  0.00  0.00    -0.084 Cl
ENDBRANCH  17  20
ENDBRANCH   1  16
TORSDOF 5
ENDMDL
MODEL 7
REMARK VINA RESULT:      -6.4     15.537     17.419
REMARK  5 active torsions:
REMARK  status: ('A' for Active; 'I' for Inactive)
REMARK    1  A    between atoms: C_2  and  C_5 
REMARK    2  A    between atoms: C_10  and  S_11 
REMARK    3  A    between atoms: S_11  and  N_14 
REMARK    4  A    between atoms: N_14  and  N_15 
REMARK       I    between atoms: N_15  and  C_16 
REMARK    5  A    between atoms: C_16  and  C_18 
ROOT
HETATM    1  N   UNK N   1      26.491  22.452  -6.949  0.00  0.00    -0.220 N 
HETATM    2  H   UNK N   1      25.988  22.395  -6.064  0.00  0.00     0.200 HD
ENDROOT
BRANCH   1   3
HETATM    3  S   UNK N   1      28.234  22.177  -7.166  0.00  0.00     0.277 S 
HETATM    4  O   UNK N   1      28.284  20.886  -7.999  0.00  0.00    -0.199 OA
HETATM    5  O   UNK N   1      28.734  23.191  -8.207  0.00  0.00    -0.199 OA
BRANCH   3   6
HETATM    6  C   UNK N   1      29.350  22.006  -5.762  0.00  0.00     0.096 A 
HETATM    7  C   UNK N   1      29.461  22.952  -4.701  0.00  0.00     0.071 A 
HETATM    8  C   UNK N   1      30.427  22.733  -3.704  0.00  0.00     0.018 A 
HETATM    9  C   UNK N   1      31.258  21.614  -3.734  0.00  0.00     0.001 A 
HETATM   10  C   UNK N   1      31.138  20.687  -4.765  0.00  0.00     0.002 A 
HETATM   11  C   UNK N   1      30.196  20.887  -5.771  0.00  0.00     0.026 A 
BRANCH   7  12
HETATM   12  C   UNK N   1      28.619  24.202  -4.555  0.00  0.00     0.419 C 
HETATM   13  F   UNK N   1      28.821  25.014  -5.655  0.00  0.00    -0.166 F 
HETATM   14  F   UNK N   1      27.271  23.964  -4.444  0.00  0.00    -0.166 F 
HETATM   15  F   UNK N   1      29.020  24.884  -3.419  0.00  0.00    -0.166 F 
ENDBRANCH   7  12
ENDBRANCH   3   6
ENDBRANCH   1   3
BRANCH   1  16
HETATM   16  N   UNK N   1      25.923  22.758  -8.182  0.00  0.00    -0.254 N 
HETATM   17  C   UNK N   1      25.635  24.031  -8.562  0.00  0.00     0.294 C 
HETATM   18  O   UNK N   1      25.175  24.227  -9.674  0.00  0.00    -0.264 OA
HETATM   19  H   UNK N   1      25.721  22.021  -8.805  0.00  0.00     0.191 HD
BRANCH  17  20
HETATM   20  C   UNK N   1      25.861  25.183  -7.661  0.00  0.00     0.146 A 
HETATM   21  C   UNK N   1      26.719  26.258  -7.916  0.00  0.00     0.057 A 
HETATM   22  C   UNK N   1      26.590  27.057  -6.799  0.00  0.00     0.002 A 
HETATM   23  C   UNK N   1      25.690  26.455  -5.965  0.00  0.00     0.086 A 
HETATM   24  C   UNK N   1      27.210  28.256  -6.463  0.00  0.00     0.038 A 
HETATM   25  O   UNK N   1      25.271  25.340  -6.493  0.00  0.00    -0.304 OA
HETATM   26  C   UNK N   1      25.327  27.007  -4.743  0.00  0.00     0.040 A 
HETATM   27  C   UNK N   1      25.934  28.221  -4.372  0.00  0.00     0.026 A 
HETATM   28  C   UNK N   1      26.875  28.841  -5.225  0.00  0.00     0.035 A 
HETATM   29 Cl   UNK N   1      27.641  30.332  -4.730  0.00  0.00    -0.084 Cl
ENDBRANCH  17  20
ENDBRANCH   1  16
TORSDOF 5
ENDMDL
MODEL 8
REMARK VINA RESULT:      -6.4      3.012      4.067
REMARK  5 active torsions:
REMARK  status: ('A' for Active; 'I' for Inactive)
REMARK    1  A    between atoms: C_2  and  C_5 
REMARK    2  A    between atoms: C_10  and  S_11 
REMARK    3  A    between atoms: S_11  and  N_14 
REMARK    4  A    between atoms: N_14  and  N_15 
REMARK       I    between atoms: N_15  and  C_16 
REMARK    5  A    between atoms: C_16  and  C_18 
ROOT
HETATM    1  N   UNK N   1      32.280  17.996   7.881  0.00  0.00    -0.220 N 
HETATM    2  H   UNK N   1      31.913  18.557   7.111  0.00  0.00     0.200 HD
ENDROOT
BRANCH   1   3
HETATM    3  S   UNK N   1      33.950  17.404   8.020  0.00  0.00     0.277 S 
HETATM    4  O   UNK N   1      34.792  18.646   7.689  0.00  0.00    -0.199 OA
HETATM    5  O   UNK N   1      34.262  17.256   9.519  0.00  0.00    -0.199 OA
BRANCH   3   6
HETATM    6  C   UNK N   1      34.551  16.017   7.039  0.00  0.00     0.096 A 
HETATM    7  C   UNK N   1      34.205  15.786   5.674  0.00  0.00     0.071 A 
HETATM    8  C   UNK N   1      34.685  14.623   5.048  0.00  0.00     0.018 A 
HETATM    9  C   UNK N   1      35.490  13.712   5.731  0.00  0.00     0.001 A 
HETATM   10  C   UNK N   1      35.833  13.947   7.058  0.00  0.00     0.002 A 
HETATM   11  C   UNK N   1      35.362  15.087   7.705  0.00  0.00     0.026 A 
BRANCH   7  12
HETATM   12  C   UNK N   1      33.343  16.697   4.826  0.00  0.00     0.419 C 
HETATM   13  F   UNK N   1      32.017  16.510   5.165  0.00  0.00    -0.166 F 
HETATM   14  F   UNK N   1      33.631  18.034   4.962  0.00  0.00    -0.166 F 
HETATM   15  F   UNK N   1      33.513  16.365   3.493  0.00  0.00    -0.166 F 
ENDBRANCH   7  12
ENDBRANCH   3   6
ENDBRANCH   1   3
BRANCH   1  16
HETATM   16  N   UNK N   1      31.554  17.573   8.989  0.00  0.00    -0.254 N 
HETATM   17  C   UNK N   1      30.195  17.514   8.998  0.00  0.00     0.294 C 
HETATM   18  O   UNK N   1      29.627  17.095   9.993  0.00  0.00    -0.264 OA
HETATM   19  H   UNK N   1      32.044  17.304   9.800  0.00  0.00     0.191 HD
BRANCH  17  20
HETATM   20  C   UNK N   1      29.388  17.951   7.836  0.00  0.00     0.146 A 
HETATM   21  C   UNK N   1      28.396  18.935   7.861  0.00  0.00     0.057 A 
HETATM   22  C   UNK N   1      27.940  18.978   6.560  0.00  0.00     0.002 A 
HETATM   23  C   UNK N   1      28.657  18.064   5.843  0.00  0.00     0.086 A 
HETATM   24  C   UNK N   1      26.941  19.749   5.972  0.00  0.00     0.038 A 
HETATM   25  O   UNK N   1      29.511  17.459   6.619  0.00  0.00    -0.304 OA
HETATM   26  C   UNK N   1      28.448  17.856   4.485  0.00  0.00     0.040 A 
HETATM   27  C   UNK N   1      27.447  18.619   3.857  0.00  0.00     0.026 A 
HETATM   28  C   UNK N   1      26.693  19.558   4.598  0.00  0.00     0.035 A 
HETATM   29 Cl   UNK N   1      25.430  20.473   3.805  0.00  0.00    -0.084 Cl
ENDBRANCH  17  20
ENDBRANCH   1  16
TORSDOF 5
ENDMDL
MODEL 9
REMARK VINA RESULT:      -6.2      4.324      6.962
REMARK  5 active torsions:
REMARK  status: ('A' for Active; 'I' for Inactive)
REMARK    1  A    between atoms: C_2  and  C_5 
REMARK    2  A    between atoms: C_10  and  S_11 
REMARK    3  A    between atoms: S_11  and  N_14 
REMARK    4  A    between atoms: N_14  and  N_15 
REMARK       I    between atoms: N_15  and  C_16 
REMARK    5  A    between atoms: C_16  and  C_18 
ROOT
HETATM    1  N   UNK N   1      31.216  16.209   6.460  0.00  0.00    -0.220 N 
HETATM    2  H   UNK N   1      31.399  15.527   7.196  0.00  0.00     0.200 HD
ENDROOT
BRANCH   1   3
HETATM    3  S   UNK N   1      29.644  16.487   5.678  0.00  0.00     0.277 S 
HETATM    4  O   UNK N   1      29.942  16.236   4.192  0.00  0.00    -0.199 OA
HETATM    5  O   UNK N   1      28.755  15.271   5.986  0.00  0.00    -0.199 OA
BRANCH   3   6
HETATM    6  C   UNK N   1      28.768  18.053   5.838  0.00  0.00     0.096 A 
HETATM    7  C   UNK N   1      28.323  18.605   7.076  0.00  0.00     0.071 A 
HETATM    8  C   UNK N   1      27.584  19.800   7.051  0.00  0.00     0.018 A 
HETATM    9  C   UNK N   1      27.295  20.448   5.851  0.00  0.00     0.001 A 
HETATM   10  C   UNK N   1      27.741  19.912   4.647  0.00  0.00     0.002 A 
HETATM   11  C   UNK N   1      28.466  18.723   4.644  0.00  0.00     0.026 A 
BRANCH   7  12
HETATM   12  C   UNK N   1      28.574  18.001   8.441  0.00  0.00     0.419 C 
HETATM   13  F   UNK N   1      27.845  16.833   8.559  0.00  0.00    -0.166 F 
HETATM   14  F   UNK N   1      29.891  17.706   8.694  0.00  0.00    -0.166 F 
HETATM   15  F   UNK N   1      28.149  18.891   9.412  0.00  0.00    -0.166 F 
ENDBRANCH   7  12
ENDBRANCH   3   6
ENDBRANCH   1   3
BRANCH   1  16
HETATM   16  N   UNK N   1      32.157  17.070   5.905  0.00  0.00    -0.254 N 
HETATM   17  C   UNK N   1      33.399  17.240   6.433  0.00  0.00     0.294 C 
HETATM   18  O   UNK N   1      34.186  17.983   5.870  0.00  0.00    -0.264 OA
HETATM   19  H   UNK N   1      31.914  17.579   5.097  0.00  0.00     0.191 HD
BRANCH  17  20
HETATM   20  C   UNK N   1      33.819  16.551   7.675  0.00  0.00     0.146 A 
HETATM   21  C   UNK N   1      34.433  17.161   8.773  0.00  0.00     0.057 A 
HETATM   22  C   UNK N   1      34.628  16.123   9.661  0.00  0.00     0.002 A 
HETATM   23  C   UNK N   1      34.133  14.989   9.083  0.00  0.00     0.086 A 
HETATM   24  C   UNK N   1      35.215  16.105  10.922  0.00  0.00     0.038 A 
HETATM   25  O   UNK N   1      33.659  15.262   7.900  0.00  0.00    -0.304 OA
HETATM   26  C   UNK N   1      34.169  13.755   9.720  0.00  0.00     0.040 A 
HETATM   27  C   UNK N   1      34.754  13.700  10.998  0.00  0.00     0.026 A 
HETATM   28  C   UNK N   1      35.279  14.869  11.595  0.00  0.00     0.035 A 
HETATM   29 Cl   UNK N   1      36.032  14.772  13.171  0.00  0.00    -0.084 Cl
ENDBRANCH  17  20
ENDBRANCH   1  16
TORSDOF 5
ENDMDL
