REMARK  6 active torsions:
REMARK  status: ('A' for Active; 'I' for Inactive)
REMARK       I    between atoms: C_2  and  N_6 
REMARK    1  A    between atoms: C_2  and  C_3 
REMARK    2  A    between atoms: N_6  and  C_7 
REMARK    3  A    between atoms: C_12  and  N_13 
REMARK       I    between atoms: N_13  and  C_14 
REMARK    4  A    between atoms: C_21  and  N_22 
REMARK    5  A    between atoms: N_22  and  C_23 
REMARK    6  A    between atoms: C_25  and  C_26 
ROOT
HETATM    1  N   UNK N   1       2.991  -0.331   0.869  0.00  0.00    -0.192 N 
HETATM    2  C   UNK N   1       1.812  -1.111   0.883  0.00  0.00     0.684 A 
HETATM    3  N   UNK N   1       1.786  -2.406   1.319  0.00  0.00    -0.202 N 
ATOM      4  HN  UNK N   1       2.635  -2.837   1.685  1.00  0.00     0.183 HD
HETATM    5  C   UNK N   1       0.625  -3.122   1.267  0.00  0.00     0.110 A 
HETATM    6  C   UNK N   1      -0.544  -2.545   0.738  0.00  0.00     0.066 A 
HETATM    7  N   UNK N   1       0.698  -0.568   0.394  0.00  0.00    -0.176 N 
ATOM      8  HN  UNK N   1       0.733   0.403   0.084  1.00  0.00     0.186 HD
HETATM    9  C   UNK N   1      -0.469  -1.225   0.285  0.00  0.00     0.122 A 
HETATM   10  H   UNK N   1       2.962   0.578   1.247  0.00  0.00     0.184 HD
ENDROOT
BRANCH   1  11
HETATM   11  C   UNK N   1       4.205  -0.804   0.335  0.00  0.00     0.051 A 
HETATM   12  C   UNK N   1       4.252  -2.066  -0.235  0.00  0.00     0.059 A 
HETATM   13  C   UNK N   1       5.425  -2.571  -0.752  0.00  0.00     0.036 A 
HETATM   14  C   UNK N   1       6.597  -1.800  -0.713  0.00  0.00     0.029 A 
HETATM   15  C   UNK N   1       6.550  -0.500  -0.187  0.00  0.00     0.004 A 
HETATM   16  C   UNK N   1       5.351  -0.004   0.346  0.00  0.00     0.030 A 
BRANCH  13  17
HETATM   17  N   UNK N   1       5.410  -3.926  -1.128  0.00  0.00    -0.327 N 
HETATM   18  C   UNK N   1       6.117  -4.861  -0.451  0.00  0.00     0.226 C 
HETATM   19  O   UNK N   1       6.914  -4.534   0.418  0.00  0.00    -0.273 OA
HETATM   20  H   UNK N   1       4.870  -4.203  -1.904  0.00  0.00     0.169 HD
BRANCH  18  21
HETATM   21  C   UNK N   1       5.816  -6.304  -0.681  0.00  0.00     0.078 A 
HETATM   22  C   UNK N   1       5.324  -6.919   0.622  0.00  0.00     0.015 A 
HETATM   23  C   UNK N   1       4.328  -6.543  -0.446  0.00  0.00     0.015 A 
ENDBRANCH  18  21
ENDBRANCH  13  17
ENDBRANCH   1  11
BRANCH   9  24
HETATM   24  N   UNK N   1      -1.612  -0.525  -0.198  0.00  0.00    -0.342 N 
HETATM   25  H   UNK N   1      -2.454  -1.014  -0.345  0.00  0.00     0.167 HD
BRANCH  24  26
HETATM   26  C   UNK N   1      -1.553   0.882  -0.473  0.00  0.00     0.034 A 
HETATM   27  C   UNK N   1      -2.716   1.649  -0.401  0.00  0.00     0.045 A 
HETATM   28  C   UNK N   1      -2.636   3.052  -0.481  0.00  0.00     0.050 A 
HETATM   29  C   UNK N   1      -1.394   3.680  -0.635  0.00  0.00     0.016 A 
HETATM   30  C   UNK N   1      -0.238   2.924  -0.745  0.00  0.00     0.003 A 
HETATM   31  C   UNK N   1      -0.322   1.543  -0.662  0.00  0.00     0.029 A 
BRANCH  28  32
HETATM   32  C   UNK N   1      -3.854   3.902  -0.370  0.00  0.00     0.417 C 
HETATM   33  F   UNK N   1      -3.941   4.710  -1.488  0.00  0.00    -0.166 F 
HETATM   34  F   UNK N   1      -3.751   4.694   0.759  0.00  0.00    -0.166 F 
HETATM   35  F   UNK N   1      -4.997   3.128  -0.278  0.00  0.00    -0.166 F 
ENDBRANCH  28  32
ENDBRANCH  24  26
ENDBRANCH   9  24
TORSDOF 6
