MODEL 1
REMARK VINA RESULT:      -8.1      0.000      0.000
REMARK  6 active torsions:
REMARK  status: ('A' for Active; 'I' for Inactive)
REMARK       I    between atoms: C_2  and  N_6 
REMARK    1  A    between atoms: C_2  and  C_3 
REMARK    2  A    between atoms: N_6  and  C_7 
REMARK    3  A    between atoms: C_12  and  N_13 
REMARK       I    between atoms: N_13  and  C_14 
REMARK    4  A    between atoms: C_21  and  N_22 
REMARK    5  A    between atoms: N_22  and  C_23 
REMARK    6  A    between atoms: C_25  and  C_26 
ROOT
HETATM    1  N   UNK N   1      32.184  15.251  10.127  0.00  0.00    -0.192 N 
HETATM    2  C   UNK N   1      33.559  15.238  10.454  0.00  0.00     0.684 A 
HETATM    3  N   UNK N   1      34.355  16.345  10.353  0.00  0.00    -0.202 N 
ATOM      4  HN  UNK N   1      33.953  17.236  10.062  1.00  0.00     0.183 HD
HETATM    5  C   UNK N   1      35.686  16.258  10.641  0.00  0.00     0.110 A 
HETATM    6  C   UNK N   1      36.255  15.027  11.015  0.00  0.00     0.066 A 
HETATM    7  N   UNK N   1      34.103  14.078  10.820  0.00  0.00    -0.176 N 
ATOM      8  HN  UNK N   1      33.492  13.266  10.902  1.00  0.00     0.186 HD
HETATM    9  C   UNK N   1      35.409  13.916  11.088  0.00  0.00     0.122 A 
HETATM   10  H   UNK N   1      31.542  14.857  10.761  0.00  0.00     0.184 HD
ENDROOT
BRANCH   1  11
HETATM   11  C   UNK N   1      31.696  15.807   8.928  0.00  0.00     0.051 A 
HETATM   12  C   UNK N   1      32.060  15.240   7.718  0.00  0.00     0.059 A 
HETATM   13  C   UNK N   1      31.619  15.766   6.523  0.00  0.00     0.036 A 
HETATM   14  C   UNK N   1      30.778  16.890   6.521  0.00  0.00     0.029 A 
HETATM   15  C   UNK N   1      30.359  17.440   7.741  0.00  0.00     0.004 A 
HETATM   16  C   UNK N   1      30.827  16.901   8.949  0.00  0.00     0.030 A 
BRANCH  13  17
HETATM   17  N   UNK N   1      32.199  15.239   5.356  0.00  0.00    -0.327 N 
HETATM   18  C   UNK N   1      33.427  15.621   4.936  0.00  0.00     0.226 C 
HETATM   19  O   UNK N   1      34.010  16.553   5.475  0.00  0.00    -0.273 OA
HETATM   20  H   UNK N   1      31.699  14.572   4.830  0.00  0.00     0.169 HD
BRANCH  18  21
HETATM   21  C   UNK N   1      34.123  14.809   3.895  0.00  0.00     0.078 A 
HETATM   22  C   UNK N   1      33.079  14.093   3.049  0.00  0.00     0.015 A 
HETATM   23  C   UNK N   1      33.742  15.339   2.517  0.00  0.00     0.015 A 
ENDBRANCH  18  21
ENDBRANCH  13  17
ENDBRANCH   1  11
BRANCH   9  24
HETATM   24  N   UNK N   1      35.870  12.642  11.528  0.00  0.00    -0.342 N 
HETATM   25  H   UNK N   1      36.575  12.179  11.020  0.00  0.00     0.167 HD
BRANCH  24  26
HETATM   26  C   UNK N   1      35.322  12.026  12.703  0.00  0.00     0.034 A 
HETATM   27  C   UNK N   1      35.484  12.641  13.945  0.00  0.00     0.045 A 
HETATM   28  C   UNK N   1      34.792  12.147  15.066  0.00  0.00     0.050 A 
HETATM   29  C   UNK N   1      33.944  11.039  14.940  0.00  0.00     0.016 A 
HETATM   30  C   UNK N   1      33.807  10.400  13.719  0.00  0.00     0.003 A 
HETATM   31  C   UNK N   1      34.488  10.893  12.617  0.00  0.00     0.029 A 
BRANCH  28  32
HETATM   32  C   UNK N   1      34.913  12.802  16.398  0.00  0.00     0.417 C 
HETATM   33  F   UNK N   1      34.945  11.827  17.377  0.00  0.00    -0.166 F 
HETATM   34  F   UNK N   1      33.816  13.619  16.601  0.00  0.00    -0.166 F 
HETATM   35  F   UNK N   1      36.066  13.564  16.477  0.00  0.00    -0.166 F 
ENDBRANCH  28  32
ENDBRANCH  24  26
ENDBRANCH   9  24
TORSDOF 6
ENDMDL
MODEL 2
REMARK VINA RESULT:      -7.9     10.918     13.267
REMARK  6 active torsions:
REMARK  status: ('A' for Active; 'I' for Inactive)
REMARK       I    between atoms: C_2  and  N_6 
REMARK    1  A    between atoms: C_2  and  C_3 
REMARK    2  A    between atoms: N_6  and  C_7 
REMARK    3  A    between atoms: C_12  and  N_13 
REMARK       I    between atoms: N_13  and  C_14 
REMARK    4  A    between atoms: C_21  and  N_22 
REMARK    5  A    between atoms: N_22  and  C_23 
REMARK    6  A    between atoms: C_25  and  C_26 
ROOT
HETATM    1  N   UNK N   1      21.397  18.673   5.375  0.00  0.00    -0.192 N 
HETATM    2  C   UNK N   1      21.839  17.433   5.891  0.00  0.00     0.684 A 
HETATM    3  N   UNK N   1      22.836  16.702   5.309  0.00  0.00    -0.202 N 
ATOM      4  HN  UNK N   1      23.318  17.064   4.486  1.00  0.00     0.183 HD
HETATM    5  C   UNK N   1      23.189  15.491   5.829  0.00  0.00     0.110 A 
HETATM    6  C   UNK N   1      22.512  14.971   6.947  0.00  0.00     0.066 A 
HETATM    7  N   UNK N   1      21.210  16.940   6.957  0.00  0.00    -0.176 N 
ATOM      8  HN  UNK N   1      20.476  17.504   7.385  1.00  0.00     0.186 HD
HETATM    9  C   UNK N   1      21.485  15.742   7.500  0.00  0.00     0.122 A 
HETATM   10  H   UNK N   1      21.301  19.435   5.992  0.00  0.00     0.184 HD
ENDROOT
BRANCH   1  11
HETATM   11  C   UNK N   1      21.088  18.860   4.014  0.00  0.00     0.051 A 
HETATM   12  C   UNK N   1      20.257  17.954   3.375  0.00  0.00     0.059 A 
HETATM   13  C   UNK N   1      19.946  18.093   2.040  0.00  0.00     0.036 A 
HETATM   14  C   UNK N   1      20.468  19.170   1.307  0.00  0.00     0.029 A 
HETATM   15  C   UNK N   1      21.267  20.123   1.956  0.00  0.00     0.004 A 
HETATM   16  C   UNK N   1      21.584  19.962   3.313  0.00  0.00     0.030 A 
BRANCH  13  17
HETATM   17  N   UNK N   1      19.258  17.021   1.443  0.00  0.00    -0.327 N 
HETATM   18  C   UNK N   1      19.912  15.955   0.926  0.00  0.00     0.226 C 
HETATM   19  O   UNK N   1      21.131  15.959   0.822  0.00  0.00    -0.273 OA
HETATM   20  H   UNK N   1      18.274  17.045   1.402  0.00  0.00     0.169 HD
BRANCH  18  21
HETATM   21  C   UNK N   1      19.142  14.718   0.607  0.00  0.00     0.078 A 
HETATM   22  C   UNK N   1      20.075  13.518   0.698  0.00  0.00     0.015 A 
HETATM   23  C   UNK N   1      19.128  13.812   1.834  0.00  0.00     0.015 A 
ENDBRANCH  18  21
ENDBRANCH  13  17
ENDBRANCH   1  11
BRANCH   9  24
HETATM   24  N   UNK N   1      20.788  15.341   8.676  0.00  0.00    -0.342 N 
HETATM   25  H   UNK N   1      20.024  15.876   8.993  0.00  0.00     0.167 HD
BRANCH  24  26
HETATM   26  C   UNK N   1      21.184  14.170   9.405  0.00  0.00     0.034 A 
HETATM   27  C   UNK N   1      22.526  13.792   9.427  0.00  0.00     0.045 A 
HETATM   28  C   UNK N   1      22.950  12.762  10.288  0.00  0.00     0.050 A 
HETATM   29  C   UNK N   1      22.028  12.116  11.121  0.00  0.00     0.016 A 
HETATM   30  C   UNK N   1      20.687  12.460  11.078  0.00  0.00     0.003 A 
HETATM   31  C   UNK N   1      20.276  13.477  10.231  0.00  0.00     0.029 A 
BRANCH  28  32
HETATM   32  C   UNK N   1      24.381  12.359  10.364  0.00  0.00     0.417 C 
HETATM   33  F   UNK N   1      25.173  13.472  10.152  0.00  0.00    -0.166 F 
HETATM   34  F   UNK N   1      24.639  11.421   9.381  0.00  0.00    -0.166 F 
HETATM   35  F   UNK N   1      24.683  11.815  11.599  0.00  0.00    -0.166 F 
ENDBRANCH  28  32
ENDBRANCH  24  26
ENDBRANCH   9  24
TORSDOF 6
ENDMDL
MODEL 3
REMARK VINA RESULT:      -7.9      1.925      3.288
REMARK  6 active torsions:
REMARK  status: ('A' for Active; 'I' for Inactive)
REMARK       I    between atoms: C_2  and  N_6 
REMARK    1  A    between atoms: C_2  and  C_3 
REMARK    2  A    between atoms: N_6  and  C_7 
REMARK    3  A    between atoms: C_12  and  N_13 
REMARK       I    between atoms: N_13  and  C_14 
REMARK    4  A    between atoms: C_21  and  N_22 
REMARK    5  A    between atoms: N_22  and  C_23 
REMARK    6  A    between atoms: C_25  and  C_26 
ROOT
HETATM    1  N   UNK N   1      32.375  15.158   9.271  0.00  0.00    -0.192 N 
HETATM    2  C   UNK N   1      33.570  15.224  10.023  0.00  0.00     0.684 A 
HETATM    3  N   UNK N   1      34.196  16.403  10.316  0.00  0.00    -0.202 N 
ATOM      4  HN  UNK N   1      33.783  17.287  10.018  1.00  0.00     0.183 HD
HETATM    5  C   UNK N   1      35.372  16.399  11.009  0.00  0.00     0.110 A 
HETATM    6  C   UNK N   1      35.964  15.184  11.400  0.00  0.00     0.066 A 
HETATM    7  N   UNK N   1      34.131  14.078  10.406  0.00  0.00    -0.176 N 
ATOM      8  HN  UNK N   1      33.644  13.209  10.189  1.00  0.00     0.186 HD
HETATM    9  C   UNK N   1      35.301  14.001  11.062  0.00  0.00     0.122 A 
HETATM   10  H   UNK N   1      31.630  14.611   9.612  0.00  0.00     0.184 HD
ENDROOT
BRANCH   1  11
HETATM   11  C   UNK N   1      32.208  15.845   8.053  0.00  0.00     0.051 A 
HETATM   12  C   UNK N   1      30.965  16.367   7.731  0.00  0.00     0.059 A 
HETATM   13  C   UNK N   1      30.758  17.031   6.541  0.00  0.00     0.036 A 
HETATM   14  C   UNK N   1      31.818  17.193   5.635  0.00  0.00     0.029 A 
HETATM   15  C   UNK N   1      33.093  16.715   5.974  0.00  0.00     0.004 A 
HETATM   16  C   UNK N   1      33.286  16.032   7.184  0.00  0.00     0.030 A 
BRANCH  13  17
HETATM   17  N   UNK N   1      29.424  17.348   6.227  0.00  0.00    -0.327 N 
HETATM   18  C   UNK N   1      28.750  18.320   6.885  0.00  0.00     0.226 C 
HETATM   19  O   UNK N   1      29.229  18.851   7.878  0.00  0.00    -0.273 OA
HETATM   20  H   UNK N   1      28.969  16.851   5.509  0.00  0.00     0.169 HD
BRANCH  18  21
HETATM   21  C   UNK N   1      27.474  18.834   6.308  0.00  0.00     0.078 A 
HETATM   22  C   UNK N   1      27.357  20.321   6.614  0.00  0.00     0.015 A 
HETATM   23  C   UNK N   1      27.796  19.876   5.242  0.00  0.00     0.015 A 
ENDBRANCH  18  21
ENDBRANCH  13  17
ENDBRANCH   1  11
BRANCH   9  24
HETATM   24  N   UNK N   1      35.776  12.723  11.476  0.00  0.00    -0.342 N 
HETATM   25  H   UNK N   1      36.476  12.272  10.950  0.00  0.00     0.167 HD
BRANCH  24  26
HETATM   26  C   UNK N   1      35.250  12.084  12.648  0.00  0.00     0.034 A 
HETATM   27  C   UNK N   1      35.438  12.673  13.899  0.00  0.00     0.045 A 
HETATM   28  C   UNK N   1      34.767  12.158  15.024  0.00  0.00     0.050 A 
HETATM   29  C   UNK N   1      33.913  11.056  14.892  0.00  0.00     0.016 A 
HETATM   30  C   UNK N   1      33.749  10.442  13.661  0.00  0.00     0.003 A 
HETATM   31  C   UNK N   1      34.410  10.956  12.555  0.00  0.00     0.029 A 
BRANCH  28  32
HETATM   32  C   UNK N   1      34.917  12.786  16.366  0.00  0.00     0.417 C 
HETATM   33  F   UNK N   1      34.942  11.792  17.326  0.00  0.00    -0.166 F 
HETATM   34  F   UNK N   1      33.837  13.618  16.598  0.00  0.00    -0.166 F 
HETATM   35  F   UNK N   1      36.084  13.524  16.445  0.00  0.00    -0.166 F 
ENDBRANCH  28  32
ENDBRANCH  24  26
ENDBRANCH   9  24
TORSDOF 6
ENDMDL
MODEL 4
REMARK VINA RESULT:      -7.9      2.172      3.037
REMARK  6 active torsions:
REMARK  status: ('A' for Active; 'I' for Inactive)
REMARK       I    between atoms: C_2  and  N_6 
REMARK    1  A    between atoms: C_2  and  C_3 
REMARK    2  A    between atoms: N_6  and  C_7 
REMARK    3  A    between atoms: C_12  and  N_13 
REMARK       I    between atoms: N_13  and  C_14 
REMARK    4  A    between atoms: C_21  and  N_22 
REMARK    5  A    between atoms: N_22  and  C_23 
REMARK    6  A    between atoms: C_25  and  C_26 
ROOT
HETATM    1  N   UNK N   1      32.230  16.135   8.981  0.00  0.00    -0.192 N 
HETATM    2  C   UNK N   1      33.360  15.951   9.811  0.00  0.00     0.684 A 
HETATM    3  N   UNK N   1      34.338  16.896   9.950  0.00  0.00    -0.202 N 
ATOM      4  HN  UNK N   1      34.253  17.792   9.469  1.00  0.00     0.183 HD
HETATM    5  C   UNK N   1      35.428  16.642  10.732  0.00  0.00     0.110 A 
HETATM    6  C   UNK N   1      35.568  15.399  11.376  0.00  0.00     0.066 A 
HETATM    7  N   UNK N   1      33.494  14.781  10.433  0.00  0.00    -0.176 N 
ATOM      8  HN  UNK N   1      32.749  14.093  10.328  1.00  0.00     0.186 HD
HETATM    9  C   UNK N   1      34.555  14.455  11.192  0.00  0.00     0.122 A 
HETATM   10  H   UNK N   1      31.337  15.935   9.346  0.00  0.00     0.184 HD
ENDROOT
BRANCH   1  11
HETATM   11  C   UNK N   1      32.333  16.593   7.654  0.00  0.00     0.051 A 
HETATM   12  C   UNK N   1      31.221  16.540   6.828  0.00  0.00     0.059 A 
HETATM   13  C   UNK N   1      31.286  16.962   5.518  0.00  0.00     0.036 A 
HETATM   14  C   UNK N   1      32.491  17.462   5.002  0.00  0.00     0.029 A 
HETATM   15  C   UNK N   1      33.610  17.570   5.843  0.00  0.00     0.004 A 
HETATM   16  C   UNK N   1      33.531  17.126   7.171  0.00  0.00     0.030 A 
BRANCH  13  17
HETATM   17  N   UNK N   1      30.163  16.688   4.717  0.00  0.00    -0.327 N 
HETATM   18  C   UNK N   1      29.092  17.515   4.684  0.00  0.00     0.226 C 
HETATM   19  O   UNK N   1      29.001  18.451   5.466  0.00  0.00    -0.273 OA
HETATM   20  H   UNK N   1      30.156  15.872   4.164  0.00  0.00     0.169 HD
BRANCH  18  21
HETATM   21  C   UNK N   1      28.087  17.355   3.593  0.00  0.00     0.078 A 
HETATM   22  C   UNK N   1      27.994  15.882   3.219  0.00  0.00     0.015 A 
HETATM   23  C   UNK N   1      26.936  16.494   4.102  0.00  0.00     0.015 A 
ENDBRANCH  18  21
ENDBRANCH  13  17
ENDBRANCH   1  11
BRANCH   9  24
HETATM   24  N   UNK N   1      34.564  13.196  11.859  0.00  0.00    -0.342 N 
HETATM   25  H   UNK N   1      33.955  12.483  11.558  0.00  0.00     0.167 HD
BRANCH  24  26
HETATM   26  C   UNK N   1      35.447  12.953  12.963  0.00  0.00     0.034 A 
HETATM   27  C   UNK N   1      35.053  13.306  14.254  0.00  0.00     0.045 A 
HETATM   28  C   UNK N   1      35.826  12.901  15.358  0.00  0.00     0.050 A 
HETATM   29  C   UNK N   1      36.990  12.148  15.166  0.00  0.00     0.016 A 
HETATM   30  C   UNK N   1      37.409  11.825  13.885  0.00  0.00     0.003 A 
HETATM   31  C   UNK N   1      36.643  12.223  12.801  0.00  0.00     0.029 A 
BRANCH  28  32
HETATM   32  C   UNK N   1      35.413  13.230  16.751  0.00  0.00     0.417 C 
HETATM   33  F   UNK N   1      34.057  13.494  16.767  0.00  0.00    -0.166 F 
HETATM   34  F   UNK N   1      36.102  14.352  17.174  0.00  0.00    -0.166 F 
HETATM   35  F   UNK N   1      35.682  12.181  17.612  0.00  0.00    -0.166 F 
ENDBRANCH  28  32
ENDBRANCH  24  26
ENDBRANCH   9  24
TORSDOF 6
ENDMDL
MODEL 5
REMARK VINA RESULT:      -7.9      5.147      9.462
REMARK  6 active torsions:
REMARK  status: ('A' for Active; 'I' for Inactive)
REMARK       I    between atoms: C_2  and  N_6 
REMARK    1  A    between atoms: C_2  and  C_3 
REMARK    2  A    between atoms: N_6  and  C_7 
REMARK    3  A    between atoms: C_12  and  N_13 
REMARK       I    between atoms: N_13  and  C_14 
REMARK    4  A    between atoms: C_21  and  N_22 
REMARK    5  A    between atoms: N_22  and  C_23 
REMARK    6  A    between atoms: C_25  and  C_26 
ROOT
HETATM    1  N   UNK N   1      33.683  14.076  10.425  0.00  0.00    -0.192 N 
HETATM    2  C   UNK N   1      33.777  15.025   9.382  0.00  0.00     0.684 A 
HETATM    3  N   UNK N   1      34.648  14.893   8.337  0.00  0.00    -0.202 N 
ATOM      4  HN  UNK N   1      35.242  14.066   8.270  1.00  0.00     0.183 HD
HETATM    5  C   UNK N   1      34.724  15.866   7.383  0.00  0.00     0.110 A 
HETATM    6  C   UNK N   1      33.930  17.024   7.482  0.00  0.00     0.066 A 
HETATM    7  N   UNK N   1      33.021  16.119   9.463  0.00  0.00    -0.176 N 
ATOM      8  HN  UNK N   1      32.368  16.195  10.243  1.00  0.00     0.186 HD
HETATM    9  C   UNK N   1      33.067  17.127   8.576  0.00  0.00     0.122 A 
HETATM   10  H   UNK N   1      32.792  13.751  10.691  0.00  0.00     0.184 HD
ENDROOT
BRANCH   1  11
HETATM   11  C   UNK N   1      34.815  13.576  11.098  0.00  0.00     0.051 A 
HETATM   12  C   UNK N   1      35.252  14.204  12.254  0.00  0.00     0.059 A 
HETATM   13  C   UNK N   1      36.365  13.756  12.930  0.00  0.00     0.036 A 
HETATM   14  C   UNK N   1      37.073  12.641  12.455  0.00  0.00     0.029 A 
HETATM   15  C   UNK N   1      36.609  11.965  11.316  0.00  0.00     0.004 A 
HETATM   16  C   UNK N   1      35.481  12.440  10.631  0.00  0.00     0.030 A 
BRANCH  13  17
HETATM   17  N   UNK N   1      36.833  14.574  13.974  0.00  0.00    -0.327 N 
HETATM   18  C   UNK N   1      36.777  14.182  15.268  0.00  0.00     0.226 C 
HETATM   19  O   UNK N   1      36.175  13.165  15.586  0.00  0.00    -0.273 OA
HETATM   20  H   UNK N   1      37.214  15.457  13.757  0.00  0.00     0.169 HD
BRANCH  18  21
HETATM   21  C   UNK N   1      37.569  14.929  16.287  0.00  0.00     0.078 A 
HETATM   22  C   UNK N   1      37.278  16.416  16.145  0.00  0.00     0.015 A 
HETATM   23  C   UNK N   1      36.611  15.629  17.244  0.00  0.00     0.015 A 
ENDBRANCH  18  21
ENDBRANCH  13  17
ENDBRANCH   1  11
BRANCH   9  24
HETATM   24  N   UNK N   1      32.168  18.222   8.730  0.00  0.00    -0.342 N 
HETATM   25  H   UNK N   1      32.518  19.105   8.987  0.00  0.00     0.167 HD
BRANCH  24  26
HETATM   26  C   UNK N   1      30.759  18.054   8.514  0.00  0.00     0.034 A 
HETATM   27  C   UNK N   1      30.310  17.371   7.384  0.00  0.00     0.045 A 
HETATM   28  C   UNK N   1      28.948  17.037   7.262  0.00  0.00     0.050 A 
HETATM   29  C   UNK N   1      28.042  17.392   8.269  0.00  0.00     0.016 A 
HETATM   30  C   UNK N   1      28.473  18.104   9.377  0.00  0.00     0.003 A 
HETATM   31  C   UNK N   1      29.816  18.426   9.494  0.00  0.00     0.029 A 
BRANCH  28  32
HETATM   32  C   UNK N   1      28.443  16.275   6.086  0.00  0.00     0.417 C 
HETATM   33  F   UNK N   1      29.423  15.396   5.666  0.00  0.00    -0.166 F 
HETATM   34  F   UNK N   1      28.154  17.160   5.064  0.00  0.00    -0.166 F 
HETATM   35  F   UNK N   1      27.300  15.564   6.406  0.00  0.00    -0.166 F 
ENDBRANCH  28  32
ENDBRANCH  24  26
ENDBRANCH   9  24
TORSDOF 6
ENDMDL
MODEL 6
REMARK VINA RESULT:      -7.7      5.340      9.584
REMARK  6 active torsions:
REMARK  status: ('A' for Active; 'I' for Inactive)
REMARK       I    between atoms: C_2  and  N_6 
REMARK    1  A    between atoms: C_2  and  C_3 
REMARK    2  A    between atoms: N_6  and  C_7 
REMARK    3  A    between atoms: C_12  and  N_13 
REMARK       I    between atoms: N_13  and  C_14 
REMARK    4  A    between atoms: C_21  and  N_22 
REMARK    5  A    between atoms: N_22  and  C_23 
REMARK    6  A    between atoms: C_25  and  C_26 
ROOT
HETATM    1  N   UNK N   1      34.668  14.312   8.328  0.00  0.00    -0.192 N 
HETATM    2  C   UNK N   1      34.157  15.626   8.220  0.00  0.00     0.684 A 
HETATM    3  N   UNK N   1      34.928  16.693   7.854  0.00  0.00    -0.202 N 
ATOM      4  HN  UNK N   1      35.909  16.552   7.611  1.00  0.00     0.183 HD
HETATM    5  C   UNK N   1      34.387  17.945   7.811  0.00  0.00     0.110 A 
HETATM    6  C   UNK N   1      33.043  18.152   8.171  0.00  0.00     0.066 A 
HETATM    7  N   UNK N   1      32.882  15.828   8.549  0.00  0.00    -0.176 N 
ATOM      8  HN  UNK N   1      32.318  15.019   8.808  1.00  0.00     0.186 HD
HETATM    9  C   UNK N   1      32.295  17.037   8.558  0.00  0.00     0.122 A 
HETATM   10  H   UNK N   1      34.173  13.575   7.901  0.00  0.00     0.184 HD
ENDROOT
BRANCH   1  11
HETATM   11  C   UNK N   1      35.857  14.017   9.022  0.00  0.00     0.051 A 
HETATM   12  C   UNK N   1      35.832  13.917  10.403  0.00  0.00     0.059 A 
HETATM   13  C   UNK N   1      36.977  13.648  11.119  0.00  0.00     0.036 A 
HETATM   14  C   UNK N   1      38.195  13.461  10.448  0.00  0.00     0.029 A 
HETATM   15  C   UNK N   1      38.224  13.505   9.046  0.00  0.00     0.004 A 
HETATM   16  C   UNK N   1      37.051  13.792   8.331  0.00  0.00     0.030 A 
BRANCH  13  17
HETATM   17  N   UNK N   1      36.882  13.760  12.518  0.00  0.00    -0.327 N 
HETATM   18  C   UNK N   1      36.717  12.675  13.310  0.00  0.00     0.226 C 
HETATM   19  O   UNK N   1      36.493  11.575  12.825  0.00  0.00    -0.273 OA
HETATM   20  H   UNK N   1      36.936  14.652  12.932  0.00  0.00     0.169 HD
BRANCH  18  21
HETATM   21  C   UNK N   1      36.946  12.809  14.778  0.00  0.00     0.078 A 
HETATM   22  C   UNK N   1      36.780  14.271  15.172  0.00  0.00     0.015 A 
HETATM   23  C   UNK N   1      35.660  13.296  15.438  0.00  0.00     0.015 A 
ENDBRANCH  18  21
ENDBRANCH  13  17
ENDBRANCH   1  11
BRANCH   9  24
HETATM   24  N   UNK N   1      30.907  17.128   8.869  0.00  0.00    -0.342 N 
HETATM   25  H   UNK N   1      30.615  17.062   9.807  0.00  0.00     0.167 HD
BRANCH  24  26
HETATM   26  C   UNK N   1      29.931  17.315   7.835  0.00  0.00     0.034 A 
HETATM   27  C   UNK N   1      29.107  18.440   7.857  0.00  0.00     0.045 A 
HETATM   28  C   UNK N   1      28.284  18.728   6.753  0.00  0.00     0.050 A 
HETATM   29  C   UNK N   1      28.286  17.888   5.633  0.00  0.00     0.016 A 
HETATM   30  C   UNK N   1      29.073  16.748   5.617  0.00  0.00     0.003 A 
HETATM   31  C   UNK N   1      29.885  16.471   6.706  0.00  0.00     0.029 A 
BRANCH  28  32
HETATM   32  C   UNK N   1      27.421  19.942   6.730  0.00  0.00     0.417 C 
HETATM   33  F   UNK N   1      27.028  20.239   8.021  0.00  0.00    -0.166 F 
HETATM   34  F   UNK N   1      26.301  19.685   5.960  0.00  0.00    -0.166 F 
HETATM   35  F   UNK N   1      28.097  21.026   6.199  0.00  0.00    -0.166 F 
ENDBRANCH  28  32
ENDBRANCH  24  26
ENDBRANCH   9  24
TORSDOF 6
ENDMDL
MODEL 7
REMARK VINA RESULT:      -7.7      5.644     10.094
REMARK  6 active torsions:
REMARK  status: ('A' for Active; 'I' for Inactive)
REMARK       I    between atoms: C_2  and  N_6 
REMARK    1  A    between atoms: C_2  and  C_3 
REMARK    2  A    between atoms: N_6  and  C_7 
REMARK    3  A    between atoms: C_12  and  N_13 
REMARK       I    between atoms: N_13  and  C_14 
REMARK    4  A    between atoms: C_21  and  N_22 
REMARK    5  A    between atoms: N_22  and  C_23 
REMARK    6  A    between atoms: C_25  and  C_26 
ROOT
HETATM    1  N   UNK N   1      33.259  14.456   9.830  0.00  0.00    -0.192 N 
HETATM    2  C   UNK N   1      32.851  15.690   9.272  0.00  0.00     0.684 A 
HETATM    3  N   UNK N   1      33.737  16.629   8.824  0.00  0.00    -0.202 N 
ATOM      4  HN  UNK N   1      34.739  16.439   8.854  1.00  0.00     0.183 HD
HETATM    5  C   UNK N   1      33.283  17.820   8.336  0.00  0.00     0.110 A 
HETATM    6  C   UNK N   1      31.905  18.102   8.317  0.00  0.00     0.066 A 
HETATM    7  N   UNK N   1      31.547  15.960   9.240  0.00  0.00    -0.176 N 
ATOM      8  HN  UNK N   1      30.900  15.243   9.567  1.00  0.00     0.186 HD
HETATM    9  C   UNK N   1      31.034  17.122   8.802  0.00  0.00     0.122 A 
HETATM   10  H   UNK N   1      32.834  13.628   9.509  0.00  0.00     0.184 HD
ENDROOT
BRANCH   1  11
HETATM   11  C   UNK N   1      34.250  14.367  10.826  0.00  0.00     0.051 A 
HETATM   12  C   UNK N   1      34.441  13.167  11.491  0.00  0.00     0.059 A 
HETATM   13  C   UNK N   1      35.388  13.045  12.484  0.00  0.00     0.036 A 
HETATM   14  C   UNK N   1      36.185  14.147  12.832  0.00  0.00     0.029 A 
HETATM   15  C   UNK N   1      36.038  15.353  12.129  0.00  0.00     0.004 A 
HETATM   16  C   UNK N   1      35.062  15.465  11.128  0.00  0.00     0.030 A 
BRANCH  13  17
HETATM   17  N   UNK N   1      35.368  11.849  13.224  0.00  0.00    -0.327 N 
HETATM   18  C   UNK N   1      34.726  11.758  14.413  0.00  0.00     0.226 C 
HETATM   19  O   UNK N   1      34.272  12.756  14.956  0.00  0.00    -0.273 OA
HETATM   20  H   UNK N   1      35.831  11.057  12.868  0.00  0.00     0.169 HD
BRANCH  18  21
HETATM   21  C   UNK N   1      34.459  10.408  14.990  0.00  0.00     0.078 A 
HETATM   22  C   UNK N   1      35.569   9.459  14.559  0.00  0.00     0.015 A 
HETATM   23  C   UNK N   1      35.590  10.047  15.948  0.00  0.00     0.015 A 
ENDBRANCH  18  21
ENDBRANCH  13  17
ENDBRANCH   1  11
BRANCH   9  24
HETATM   24  N   UNK N   1      29.619  17.278   8.758  0.00  0.00    -0.342 N 
HETATM   25  H   UNK N   1      29.078  17.023   9.540  0.00  0.00     0.167 HD
BRANCH  24  26
HETATM   26  C   UNK N   1      28.971  17.802   7.589  0.00  0.00     0.034 A 
HETATM   27  C   UNK N   1      28.241  18.987   7.677  0.00  0.00     0.045 A 
HETATM   28  C   UNK N   1      27.765  19.605   6.506  0.00  0.00     0.050 A 
HETATM   29  C   UNK N   1      28.020  19.033   5.253  0.00  0.00     0.016 A 
HETATM   30  C   UNK N   1      28.713  17.837   5.159  0.00  0.00     0.003 A 
HETATM   31  C   UNK N   1      29.182  17.234   6.316  0.00  0.00     0.029 A 
BRANCH  28  32
HETATM   32  C   UNK N   1      27.014  20.890   6.561  0.00  0.00     0.417 C 
HETATM   33  F   UNK N   1      26.129  20.939   5.501  0.00  0.00    -0.166 F 
HETATM   34  F   UNK N   1      27.908  21.940   6.459  0.00  0.00    -0.166 F 
HETATM   35  F   UNK N   1      26.311  21.007   7.747  0.00  0.00    -0.166 F 
ENDBRANCH  28  32
ENDBRANCH  24  26
ENDBRANCH   9  24
TORSDOF 6
ENDMDL
MODEL 8
REMARK VINA RESULT:      -7.5      4.321      9.073
REMARK  6 active torsions:
REMARK  status: ('A' for Active; 'I' for Inactive)
REMARK       I    between atoms: C_2  and  N_6 
REMARK    1  A    between atoms: C_2  and  C_3 
REMARK    2  A    between atoms: N_6  and  C_7 
REMARK    3  A    between atoms: C_12  and  N_13 
REMARK       I    between atoms: N_13  and  C_14 
REMARK    4  A    between atoms: C_21  and  N_22 
REMARK    5  A    between atoms: N_22  and  C_23 
REMARK    6  A    between atoms: C_25  and  C_26 
ROOT
HETATM    1  N   UNK N   1      33.731  14.299  10.327  0.00  0.00    -0.192 N 
HETATM    2  C   UNK N   1      34.121  14.721   9.036  0.00  0.00     0.684 A 
HETATM    3  N   UNK N   1      35.217  14.218   8.392  0.00  0.00    -0.202 N 
ATOM      4  HN  UNK N   1      35.772  13.483   8.831  1.00  0.00     0.183 HD
HETATM    5  C   UNK N   1      35.568  14.698   7.163  0.00  0.00     0.110 A 
HETATM    6  C   UNK N   1      34.825  15.731   6.564  0.00  0.00     0.066 A 
HETATM    7  N   UNK N   1      33.416  15.691   8.456  0.00  0.00    -0.176 N 
ATOM      8  HN  UNK N   1      32.595  16.046   8.946  1.00  0.00     0.186 HD
HETATM    9  C   UNK N   1      33.724  16.230   7.264  0.00  0.00     0.122 A 
HETATM   10  H   UNK N   1      32.788  14.058  10.482  0.00  0.00     0.184 HD
ENDROOT
BRANCH   1  11
HETATM   11  C   UNK N   1      34.638  14.210  11.401  0.00  0.00     0.051 A 
HETATM   12  C   UNK N   1      34.736  13.025  12.112  0.00  0.00     0.059 A 
HETATM   13  C   UNK N   1      35.599  12.905  13.180  0.00  0.00     0.036 A 
HETATM   14  C   UNK N   1      36.402  13.991  13.557  0.00  0.00     0.029 A 
HETATM   15  C   UNK N   1      36.351  15.179  12.812  0.00  0.00     0.004 A 
HETATM   16  C   UNK N   1      35.459  15.290  11.734  0.00  0.00     0.030 A 
BRANCH  13  17
HETATM   17  N   UNK N   1      35.481  11.733  13.949  0.00  0.00    -0.327 N 
HETATM   18  C   UNK N   1      34.626  11.651  14.996  0.00  0.00     0.226 C 
HETATM   19  O   UNK N   1      34.038  12.645  15.402  0.00  0.00    -0.273 OA
HETATM   20  H   UNK N   1      36.034  10.951  13.721  0.00  0.00     0.169 HD
BRANCH  18  21
HETATM   21  C   UNK N   1      34.304  10.310  15.565  0.00  0.00     0.078 A 
HETATM   22  C   UNK N   1      35.498   9.388  15.359  0.00  0.00     0.015 A 
HETATM   23  C   UNK N   1      35.266  10.015  16.711  0.00  0.00     0.015 A 
ENDBRANCH  18  21
ENDBRANCH  13  17
ENDBRANCH   1  11
BRANCH   9  24
HETATM   24  N   UNK N   1      32.863  17.223   6.713  0.00  0.00    -0.342 N 
HETATM   25  H   UNK N   1      33.253  18.007   6.263  0.00  0.00     0.167 HD
BRANCH  24  26
HETATM   26  C   UNK N   1      31.437  17.095   6.804  0.00  0.00     0.034 A 
HETATM   27  C   UNK N   1      30.764  17.638   7.899  0.00  0.00     0.045 A 
HETATM   28  C   UNK N   1      29.357  17.685   7.903  0.00  0.00     0.050 A 
HETATM   29  C   UNK N   1      28.632  17.186   6.814  0.00  0.00     0.016 A 
HETATM   30  C   UNK N   1      29.291  16.611   5.740  0.00  0.00     0.003 A 
HETATM   31  C   UNK N   1      30.677  16.571   5.739  0.00  0.00     0.029 A 
BRANCH  28  32
HETATM   32  C   UNK N   1      28.609  18.293   9.039  0.00  0.00     0.417 C 
HETATM   33  F   UNK N   1      27.890  17.303   9.683  0.00  0.00    -0.166 F 
HETATM   34  F   UNK N   1      27.735  19.244   8.546  0.00  0.00    -0.166 F 
HETATM   35  F   UNK N   1      29.469  18.891   9.941  0.00  0.00    -0.166 F 
ENDBRANCH  28  32
ENDBRANCH  24  26
ENDBRANCH   9  24
TORSDOF 6
ENDMDL
MODEL 9
REMARK VINA RESULT:      -7.5      8.746     11.678
REMARK  6 active torsions:
REMARK  status: ('A' for Active; 'I' for Inactive)
REMARK       I    between atoms: C_2  and  N_6 
REMARK    1  A    between atoms: C_2  and  C_3 
REMARK    2  A    between atoms: N_6  and  C_7 
REMARK    3  A    between atoms: C_12  and  N_13 
REMARK       I    between atoms: N_13  and  C_14 
REMARK    4  A    between atoms: C_21  and  N_22 
REMARK    5  A    between atoms: N_22  and  C_23 
REMARK    6  A    between atoms: C_25  and  C_26 
ROOT
HETATM    1  N   UNK N   1      22.816  18.181   5.180  0.00  0.00    -0.192 N 
HETATM    2  C   UNK N   1      24.143  18.407   4.746  0.00  0.00     0.684 A 
HETATM    3  N   UNK N   1      24.495  19.470   3.963  0.00  0.00    -0.202 N 
ATOM      4  HN  UNK N   1      23.793  20.160   3.696  1.00  0.00     0.183 HD
HETATM    5  C   UNK N   1      25.785  19.611   3.540  0.00  0.00     0.110 A 
HETATM    6  C   UNK N   1      26.754  18.649   3.880  0.00  0.00     0.066 A 
HETATM    7  N   UNK N   1      25.069  17.507   5.074  0.00  0.00    -0.176 N 
ATOM      8  HN  UNK N   1      24.791  16.727   5.669  1.00  0.00     0.186 HD
HETATM    9  C   UNK N   1      26.348  17.567   4.666  0.00  0.00     0.122 A 
HETATM   10  H   UNK N   1      22.656  17.984   6.132  0.00  0.00     0.184 HD
ENDROOT
BRANCH   1  11
HETATM   11  C   UNK N   1      21.715  18.228   4.304  0.00  0.00     0.051 A 
HETATM   12  C   UNK N   1      21.133  17.044   3.880  0.00  0.00     0.059 A 
HETATM   13  C   UNK N   1      20.065  17.047   3.009  0.00  0.00     0.036 A 
HETATM   14  C   UNK N   1      19.546  18.265   2.542  0.00  0.00     0.029 A 
HETATM   15  C   UNK N   1      20.093  19.471   3.005  0.00  0.00     0.004 A 
HETATM   16  C   UNK N   1      21.187  19.451   3.883  0.00  0.00     0.030 A 
BRANCH  13  17
HETATM   17  N   UNK N   1      19.676  15.799   2.493  0.00  0.00    -0.327 N 
HETATM   18  C   UNK N   1      20.236  15.284   1.373  0.00  0.00     0.226 C 
HETATM   19  O   UNK N   1      20.992  15.959   0.686  0.00  0.00    -0.273 OA
HETATM   20  H   UNK N   1      18.978  15.283   2.959  0.00  0.00     0.169 HD
BRANCH  18  21
HETATM   21  C   UNK N   1      20.029  13.841   1.056  0.00  0.00     0.078 A 
HETATM   22  C   UNK N   1      21.342  13.253   0.558  0.00  0.00     0.015 A 
HETATM   23  C   UNK N   1      20.906  13.001   1.979  0.00  0.00     0.015 A 
ENDBRANCH  18  21
ENDBRANCH  13  17
ENDBRANCH   1  11
BRANCH   9  24
HETATM   24  N   UNK N   1      27.266  16.581   5.127  0.00  0.00    -0.342 N 
HETATM   25  H   UNK N   1      27.111  15.633   4.907  0.00  0.00     0.167 HD
BRANCH  24  26
HETATM   26  C   UNK N   1      28.412  16.948   5.908  0.00  0.00     0.034 A 
HETATM   27  C   UNK N   1      28.245  17.345   7.235  0.00  0.00     0.045 A 
HETATM   28  C   UNK N   1      29.371  17.522   8.060  0.00  0.00     0.050 A 
HETATM   29  C   UNK N   1      30.658  17.304   7.554  0.00  0.00     0.016 A 
HETATM   30  C   UNK N   1      30.835  16.945   6.227  0.00  0.00     0.003 A 
HETATM   31  C   UNK N   1      29.722  16.769   5.420  0.00  0.00     0.029 A 
BRANCH  28  32
HETATM   32  C   UNK N   1      29.226  17.910   9.491  0.00  0.00     0.417 C 
HETATM   33  F   UNK N   1      27.933  18.346   9.709  0.00  0.00    -0.166 F 
HETATM   34  F   UNK N   1      30.109  18.936   9.773  0.00  0.00    -0.166 F 
HETATM   35  F   UNK N   1      29.493  16.840  10.328  0.00  0.00    -0.166 F 
ENDBRANCH  28  32
ENDBRANCH  24  26
ENDBRANCH   9  24
TORSDOF 6
ENDMDL
