REMARK  7 active torsions:
REMARK  status: ('A' for Active; 'I' for Inactive)
REMARK    1  A    between atoms: C_4  and  N_9 
REMARK    2  A    between atoms: C_7  and  N_10 
REMARK    3  A    between atoms: C_17  and  C_28 
REMARK    4  A    between atoms: C_22  and  N_24 
REMARK    5  A    between atoms: N_24  and  C_25 
REMARK    6  A    between atoms: C_28  and  C_29 
REMARK    7  A    between atoms: C_29  and  O_31 
ROOT
HETATM    1  N   UNK N   1      -5.200  -0.659  -0.000  0.00  0.00    -0.368 N 
ATOM      2  HN  UNK N   1      -6.191  -0.897  -0.000  1.00  0.00     0.164 HD
HETATM    3  C   UNK N   1      -4.830   0.661   0.000  0.00  0.00     0.138 A 
HETATM    4  C   UNK N   1      -3.467   0.978   0.000  0.00  0.00     0.144 A 
HETATM    5  N   UNK N   1      -2.581  -0.031   0.000  0.00  0.00    -0.325 N 
ATOM      6  HN  UNK N   1      -1.589   0.207   0.000  1.00  0.00     0.169 HD
HETATM    7  C   UNK N   1      -2.913  -1.331   0.000  0.00  0.00     0.128 A 
HETATM    8  C   UNK N   1      -4.271  -1.667  -0.000  0.00  0.00     0.137 A 
ENDROOT
BRANCH   4   9
HETATM    9  N   UNK N   1      -2.953   2.322   0.000  0.00  0.00    -0.238 N 
HETATM   10  C   UNK N   1      -1.642   2.628   0.000  0.00  0.00     0.072 A 
HETATM   11  C   UNK N   1      -1.495   3.973  -0.000  0.00  0.00     0.010 A 
HETATM   12  C   UNK N   1      -0.553   1.762   0.000  0.00  0.00     0.061 A 
HETATM   13  C   UNK N   1      -2.780   4.497  -0.000  0.00  0.00     0.121 A 
HETATM   14  C   UNK N   1      -0.226   4.562  -0.000  0.00  0.00     0.017 A 
HETATM   15  N   UNK N   1      -3.654   3.447  -0.000  0.00  0.00    -0.302 N 
ATOM     16  HN  UNK N   1      -4.672   3.516  -0.000  1.00  0.00     0.186 HD
HETATM   17  C   UNK N   1       0.903   3.704  -0.000  0.00  0.00     0.030 A 
HETATM   18  C   UNK N   1       0.737   2.292   0.000  0.00  0.00     0.030 A 
BRANCH  18  19
HETATM   19  N   UNK N   1       1.823   1.373   0.000  0.00  0.00    -0.386 N 
HETATM   20  H   UNK N   1       1.580   0.419   0.000  0.00  0.00     0.160 HD
BRANCH  19  21
HETATM   21  C   UNK N   1       3.240   1.665  -0.000  0.00  0.00     0.073 C 
HETATM   22  C   UNK N   1       4.178   0.475   0.000  0.00  0.00     0.031 C 
HETATM   23  C   UNK N   1       3.768   3.086   0.000  0.00  0.00     0.031 C 
ENDBRANCH  19  21
ENDBRANCH  18  19
ENDBRANCH   4   9
BRANCH   7  24
HETATM   24  N   UNK N   1      -1.842  -2.281  -0.000  0.00  0.00    -0.317 N 
HETATM   25  C   UNK N   1      -0.558  -1.884   0.000  0.00  0.00     0.105 A 
HETATM   26  C   UNK N   1       0.254  -2.977  -0.000  0.00  0.00    -0.031 A 
HETATM   27  C   UNK N   1      -0.560  -4.104  -0.000  0.00  0.00     0.026 A 
HETATM   28  C   UNK N   1      -1.871  -3.628  -0.000  0.00  0.00     0.099 A 
BRANCH  26  29
HETATM   29  C   UNK N   1       1.751  -2.842   0.000  0.00  0.00     0.149 C 
BRANCH  29  30
HETATM   30  C   UNK N   1       2.578  -4.090  -0.000  0.00  0.00     0.143 C 
HETATM   31  O   UNK N   1       3.794  -3.992   0.000  0.00  0.00    -0.650 OA
BRANCH  30  32
HETATM   32  O   UNK N   1       2.010  -5.309  -0.000  0.00  0.00    -0.776 OA
HETATM   33  H   UNK N   1       1.076  -5.392  -0.000  0.00  0.00     0.167 HD
ENDBRANCH  30  32
ENDBRANCH  29  30
ENDBRANCH  26  29
ENDBRANCH   7  24
TORSDOF 7
