MODEL 1
REMARK VINA RESULT:      -8.2      0.000      0.000
REMARK  7 active torsions:
REMARK  status: ('A' for Active; 'I' for Inactive)
REMARK    1  A    between atoms: C_4  and  N_9 
REMARK    2  A    between atoms: C_7  and  N_10 
REMARK    3  A    between atoms: C_17  and  C_28 
REMARK    4  A    between atoms: C_22  and  N_24 
REMARK    5  A    between atoms: N_24  and  C_25 
REMARK    6  A    between atoms: C_28  and  C_29 
REMARK    7  A    between atoms: C_29  and  O_31 
ROOT
HETATM    1  N   UNK N   1      27.349  20.194   3.564  0.00  0.00    -0.368 N 
ATOM      2  HN  UNK N   1      27.858  20.666   2.818  1.00  0.00     0.164 HD
HETATM    3  C   UNK N   1      28.014  19.848   4.711  0.00  0.00     0.138 A 
HETATM    4  C   UNK N   1      27.306  19.201   5.730  0.00  0.00     0.144 A 
HETATM    5  N   UNK N   1      26.002  18.949   5.535  0.00  0.00    -0.325 N 
ATOM      6  HN  UNK N   1      25.491  18.477   6.282  1.00  0.00     0.169 HD
HETATM    7  C   UNK N   1      25.325  19.276   4.424  0.00  0.00     0.128 A 
HETATM    8  C   UNK N   1      26.016  19.923   3.395  0.00  0.00     0.137 A 
ENDROOT
BRANCH   4   9
HETATM    9  N   UNK N   1      27.890  18.787   6.979  0.00  0.00    -0.238 N 
HETATM   10  C   UNK N   1      28.971  17.992   7.079  0.00  0.00     0.072 A 
HETATM   11  C   UNK N   1      29.264  17.794   8.385  0.00  0.00     0.010 A 
HETATM   12  C   UNK N   1      29.724  17.424   6.055  0.00  0.00     0.061 A 
HETATM   13  C   UNK N   1      28.311  18.504   9.101  0.00  0.00     0.121 A 
HETATM   14  C   UNK N   1      30.349  16.999   8.771  0.00  0.00     0.017 A 
HETATM   15  N   UNK N   1      27.480  19.105   8.199  0.00  0.00    -0.302 N 
ATOM     16  HN  UNK N   1      26.680  19.697   8.424  1.00  0.00     0.186 HD
HETATM   17  C   UNK N   1      31.134  16.408   7.749  0.00  0.00     0.030 A 
HETATM   18  C   UNK N   1      30.818  16.623   6.379  0.00  0.00     0.030 A 
BRANCH  18  19
HETATM   19  N   UNK N   1      31.561  16.062   5.304  0.00  0.00    -0.386 N 
HETATM   20  H   UNK N   1      31.287  15.161   5.015  0.00  0.00     0.160 HD
BRANCH  19  21
HETATM   21  C   UNK N   1      32.668  16.649   4.581  0.00  0.00     0.073 C 
HETATM   22  C   UNK N   1      33.696  17.396   5.406  0.00  0.00     0.031 C 
HETATM   23  C   UNK N   1      32.801  16.527   3.076  0.00  0.00     0.031 C 
ENDBRANCH  19  21
ENDBRANCH  18  19
ENDBRANCH   4   9
BRANCH   7  24
HETATM   24  N   UNK N   1      23.935  18.933   4.379  0.00  0.00    -0.317 N 
HETATM   25  C   UNK N   1      23.108  19.496   3.482  0.00  0.00     0.105 A 
HETATM   26  C   UNK N   1      21.851  19.001   3.652  0.00  0.00    -0.031 A 
HETATM   27  C   UNK N   1      21.898  18.089   4.700  0.00  0.00     0.026 A 
HETATM   28  C   UNK N   1      23.224  18.072   5.132  0.00  0.00     0.099 A 
BRANCH  26  29
HETATM   29  C   UNK N   1      20.707  19.449   2.786  0.00  0.00     0.149 C 
BRANCH  29  30
HETATM   30  C   UNK N   1      20.965  20.506   1.757  0.00  0.00     0.143 C 
HETATM   31  O   UNK N   1      21.091  20.174   0.590  0.00  0.00    -0.650 OA
BRANCH  30  32
HETATM   32  O   UNK N   1      21.060  21.805   2.092  0.00  0.00    -0.776 OA
HETATM   33  H   UNK N   1      21.392  22.426   1.474  0.00  0.00     0.167 HD
ENDBRANCH  30  32
ENDBRANCH  29  30
ENDBRANCH  26  29
ENDBRANCH   7  24
TORSDOF 7
ENDMDL
MODEL 2
REMARK VINA RESULT:      -7.6      1.592      2.379
REMARK  7 active torsions:
REMARK  status: ('A' for Active; 'I' for Inactive)
REMARK    1  A    between atoms: C_4  and  N_9 
REMARK    2  A    between atoms: C_7  and  N_10 
REMARK    3  A    between atoms: C_17  and  C_28 
REMARK    4  A    between atoms: C_22  and  N_24 
REMARK    5  A    between atoms: N_24  and  C_25 
REMARK    6  A    between atoms: C_28  and  C_29 
REMARK    7  A    between atoms: C_29  and  O_31 
ROOT
HETATM    1  N   UNK N   1      25.693  15.522   5.689  0.00  0.00    -0.368 N 
ATOM      2  HN  UNK N   1      25.364  14.559   5.630  1.00  0.00     0.164 HD
HETATM    3  C   UNK N   1      26.640  15.849   6.624  0.00  0.00     0.138 A 
HETATM    4  C   UNK N   1      27.086  17.173   6.697  0.00  0.00     0.144 A 
HETATM    5  N   UNK N   1      26.562  18.066   5.842  0.00  0.00    -0.325 N 
ATOM      6  HN  UNK N   1      26.891  19.030   5.900  1.00  0.00     0.169 HD
HETATM    7  C   UNK N   1      25.635  17.776   4.916  0.00  0.00     0.128 A 
HETATM    8  C   UNK N   1      25.178  16.457   4.829  0.00  0.00     0.137 A 
ENDROOT
BRANCH   4   9
HETATM    9  N   UNK N   1      28.073  17.640   7.633  0.00  0.00    -0.238 N 
HETATM   10  C   UNK N   1      29.392  17.393   7.525  0.00  0.00     0.072 A 
HETATM   11  C   UNK N   1      30.044  17.969   8.561  0.00  0.00     0.010 A 
HETATM   12  C   UNK N   1      30.057  16.671   6.538  0.00  0.00     0.061 A 
HETATM   13  C   UNK N   1      29.068  18.591   9.327  0.00  0.00     0.121 A 
HETATM   14  C   UNK N   1      31.433  17.864   8.690  0.00  0.00     0.017 A 
HETATM   15  N   UNK N   1      27.864  18.366   8.722  0.00  0.00    -0.302 N 
ATOM     16  HN  UNK N   1      26.957  18.700   9.052  1.00  0.00     0.186 HD
HETATM   17  C   UNK N   1      32.138  17.134   7.699  0.00  0.00     0.030 A 
HETATM   18  C   UNK N   1      31.443  16.533   6.614  0.00  0.00     0.030 A 
BRANCH  18  19
HETATM   19  N   UNK N   1      32.084  15.787   5.586  0.00  0.00    -0.386 N 
HETATM   20  H   UNK N   1      32.315  14.857   5.809  0.00  0.00     0.160 HD
BRANCH  19  21
HETATM   21  C   UNK N   1      32.440  16.226   4.255  0.00  0.00     0.073 C 
HETATM   22  C   UNK N   1      32.618  17.718   4.056  0.00  0.00     0.031 C 
HETATM   23  C   UNK N   1      32.629  15.250   3.110  0.00  0.00     0.031 C 
ENDBRANCH  19  21
ENDBRANCH  18  19
ENDBRANCH   4   9
BRANCH   7  24
HETATM   24  N   UNK N   1      25.183  18.849   4.083  0.00  0.00    -0.317 N 
HETATM   25  C   UNK N   1      23.872  19.070   3.882  0.00  0.00     0.105 A 
HETATM   26  C   UNK N   1      23.716  20.142   3.056  0.00  0.00    -0.031 A 
HETATM   27  C   UNK N   1      24.984  20.608   2.729  0.00  0.00     0.026 A 
HETATM   28  C   UNK N   1      25.881  19.771   3.393  0.00  0.00     0.099 A 
BRANCH  26  29
HETATM   29  C   UNK N   1      22.352  20.627   2.651  0.00  0.00     0.149 C 
BRANCH  29  30
HETATM   30  C   UNK N   1      21.155  19.858   3.118  0.00  0.00     0.143 C 
HETATM   31  O   UNK N   1      20.552  20.247   4.104  0.00  0.00    -0.650 OA
BRANCH  30  32
HETATM   32  O   UNK N   1      20.736  18.754   2.475  0.00  0.00    -0.776 OA
HETATM   33  H   UNK N   1      20.717  17.929   2.921  0.00  0.00     0.167 HD
ENDBRANCH  30  32
ENDBRANCH  29  30
ENDBRANCH  26  29
ENDBRANCH   7  24
TORSDOF 7
ENDMDL
MODEL 3
REMARK VINA RESULT:      -7.6      4.444      9.207
REMARK  7 active torsions:
REMARK  status: ('A' for Active; 'I' for Inactive)
REMARK    1  A    between atoms: C_4  and  N_9 
REMARK    2  A    between atoms: C_7  and  N_10 
REMARK    3  A    between atoms: C_17  and  C_28 
REMARK    4  A    between atoms: C_22  and  N_24 
REMARK    5  A    between atoms: N_24  and  C_25 
REMARK    6  A    between atoms: C_28  and  C_29 
REMARK    7  A    between atoms: C_29  and  O_31 
ROOT
HETATM    1  N   UNK N   1      28.599  15.461   4.259  0.00  0.00    -0.368 N 
ATOM      2  HN  UNK N   1      28.624  14.536   3.832  1.00  0.00     0.164 HD
HETATM    3  C   UNK N   1      27.769  16.417   3.732  0.00  0.00     0.138 A 
HETATM    4  C   UNK N   1      27.742  17.685   4.324  0.00  0.00     0.144 A 
HETATM    5  N   UNK N   1      28.535  17.907   5.385  0.00  0.00    -0.325 N 
ATOM      6  HN  UNK N   1      28.510  18.833   5.812  1.00  0.00     0.169 HD
HETATM    7  C   UNK N   1      29.356  16.991   5.922  0.00  0.00     0.128 A 
HETATM    8  C   UNK N   1      29.396  15.718   5.343  0.00  0.00     0.137 A 
ENDROOT
BRANCH   4   9
HETATM    9  N   UNK N   1      26.916  18.770   3.866  0.00  0.00    -0.238 N 
HETATM   10  C   UNK N   1      25.570  18.747   3.869  0.00  0.00     0.072 A 
HETATM   11  C   UNK N   1      25.100  19.916   3.377  0.00  0.00     0.010 A 
HETATM   12  C   UNK N   1      24.725  17.726   4.293  0.00  0.00     0.061 A 
HETATM   13  C   UNK N   1      26.218  20.676   3.064  0.00  0.00     0.121 A 
HETATM   14  C   UNK N   1      23.725  20.156   3.271  0.00  0.00     0.017 A 
HETATM   15  N   UNK N   1      27.322  19.935   3.379  0.00  0.00    -0.302 N 
ATOM     16  HN  UNK N   1      28.292  20.227   3.261  1.00  0.00     0.186 HD
HETATM   17  C   UNK N   1      22.840  19.133   3.696  0.00  0.00     0.030 A 
HETATM   18  C   UNK N   1      23.345  17.908   4.211  0.00  0.00     0.030 A 
BRANCH  18  19
HETATM   19  N   UNK N   1      22.516  16.840   4.655  0.00  0.00    -0.386 N 
HETATM   20  H   UNK N   1      22.914  15.941   4.616  0.00  0.00     0.160 HD
BRANCH  19  21
HETATM   21  C   UNK N   1      21.160  16.911   5.156  0.00  0.00     0.073 C 
HETATM   22  C   UNK N   1      20.998  17.148   6.644  0.00  0.00     0.031 C 
HETATM   23  C   UNK N   1      19.958  16.758   4.246  0.00  0.00     0.031 C 
ENDBRANCH  19  21
ENDBRANCH  18  19
ENDBRANCH   4   9
BRANCH   7  24
HETATM   24  N   UNK N   1      30.134  17.393   7.055  0.00  0.00    -0.317 N 
HETATM   25  C   UNK N   1      31.448  17.120   7.130  0.00  0.00     0.105 A 
HETATM   26  C   UNK N   1      31.945  17.608   8.300  0.00  0.00    -0.031 A 
HETATM   27  C   UNK N   1      30.895  18.210   8.983  0.00  0.00     0.026 A 
HETATM   28  C   UNK N   1      29.773  18.056   8.170  0.00  0.00     0.099 A 
BRANCH  26  29
HETATM   29  C   UNK N   1      33.396  17.451   8.662  0.00  0.00     0.149 C 
BRANCH  29  30
HETATM   30  C   UNK N   1      34.410  18.240   7.894  0.00  0.00     0.143 C 
HETATM   31  O   UNK N   1      34.528  18.042   6.695  0.00  0.00    -0.650 OA
BRANCH  30  32
HETATM   32  O   UNK N   1      35.189  19.157   8.495  0.00  0.00    -0.776 OA
HETATM   33  H   UNK N   1      36.022  19.379   8.126  0.00  0.00     0.167 HD
ENDBRANCH  30  32
ENDBRANCH  29  30
ENDBRANCH  26  29
ENDBRANCH   7  24
TORSDOF 7
ENDMDL
MODEL 4
REMARK VINA RESULT:      -7.6      5.380      8.639
REMARK  7 active torsions:
REMARK  status: ('A' for Active; 'I' for Inactive)
REMARK    1  A    between atoms: C_4  and  N_9 
REMARK    2  A    between atoms: C_7  and  N_10 
REMARK    3  A    between atoms: C_17  and  C_28 
REMARK    4  A    between atoms: C_22  and  N_24 
REMARK    5  A    between atoms: N_24  and  C_25 
REMARK    6  A    between atoms: C_28  and  C_29 
REMARK    7  A    between atoms: C_29  and  O_31 
ROOT
HETATM    1  N   UNK N   1      24.595  14.429   3.959  0.00  0.00    -0.368 N 
ATOM      2  HN  UNK N   1      24.601  13.695   3.252  1.00  0.00     0.164 HD
HETATM    3  C   UNK N   1      23.436  14.684   4.647  0.00  0.00     0.138 A 
HETATM    4  C   UNK N   1      23.437  15.694   5.616  0.00  0.00     0.144 A 
HETATM    5  N   UNK N   1      24.579  16.368   5.828  0.00  0.00    -0.325 N 
ATOM      6  HN  UNK N   1      24.572  17.103   6.536  1.00  0.00     0.169 HD
HETATM    7  C   UNK N   1      25.726  16.141   5.171  0.00  0.00     0.128 A 
HETATM    8  C   UNK N   1      25.744  15.136   4.199  0.00  0.00     0.137 A 
ENDROOT
BRANCH   4   9
HETATM    9  N   UNK N   1      22.288  16.055   6.403  0.00  0.00    -0.238 N 
HETATM   10  C   UNK N   1      21.844  15.348   7.459  0.00  0.00     0.072 A 
HETATM   11  C   UNK N   1      20.750  15.953   7.976  0.00  0.00     0.010 A 
HETATM   12  C   UNK N   1      22.368  14.176   7.995  0.00  0.00     0.061 A 
HETATM   13  C   UNK N   1      20.529  17.077   7.192  0.00  0.00     0.121 A 
HETATM   14  C   UNK N   1      20.087  15.422   9.087  0.00  0.00     0.017 A 
HETATM   15  N   UNK N   1      21.499  17.106   6.230  0.00  0.00    -0.302 N 
ATOM     16  HN  UNK N   1      21.599  17.815   5.503  1.00  0.00     0.186 HD
HETATM   17  C   UNK N   1      20.598  14.227   9.655  0.00  0.00     0.030 A 
HETATM   18  C   UNK N   1      21.748  13.600   9.104  0.00  0.00     0.030 A 
BRANCH  18  19
HETATM   19  N   UNK N   1      22.315  12.402   9.622  0.00  0.00    -0.386 N 
HETATM   20  H   UNK N   1      21.961  11.562   9.249  0.00  0.00     0.160 HD
BRANCH  19  21
HETATM   21  C   UNK N   1      23.346  12.263  10.627  0.00  0.00     0.073 C 
HETATM   22  C   UNK N   1      22.886  11.903  12.025  0.00  0.00     0.031 C 
HETATM   23  C   UNK N   1      24.814  12.467  10.306  0.00  0.00     0.031 C 
ENDBRANCH  19  21
ENDBRANCH  18  19
ENDBRANCH   4   9
BRANCH   7  24
HETATM   24  N   UNK N   1      26.853  16.953   5.521  0.00  0.00    -0.317 N 
HETATM   25  C   UNK N   1      27.472  16.814   6.705  0.00  0.00     0.105 A 
HETATM   26  C   UNK N   1      28.504  17.699   6.784  0.00  0.00    -0.031 A 
HETATM   27  C   UNK N   1      28.528  18.421   5.596  0.00  0.00     0.026 A 
HETATM   28  C   UNK N   1      27.476  17.925   4.827  0.00  0.00     0.099 A 
BRANCH  26  29
HETATM   29  C   UNK N   1      29.382  17.774   8.002  0.00  0.00     0.149 C 
BRANCH  29  30
HETATM   30  C   UNK N   1      28.791  18.298   9.273  0.00  0.00     0.143 C 
HETATM   31  O   UNK N   1      29.539  18.701  10.149  0.00  0.00    -0.650 OA
BRANCH  30  32
HETATM   32  O   UNK N   1      27.461  18.334   9.468  0.00  0.00    -0.776 OA
HETATM   33  H   UNK N   1      26.896  17.797   8.947  0.00  0.00     0.167 HD
ENDBRANCH  30  32
ENDBRANCH  29  30
ENDBRANCH  26  29
ENDBRANCH   7  24
TORSDOF 7
ENDMDL
MODEL 5
REMARK VINA RESULT:      -7.3      6.930     10.875
REMARK  7 active torsions:
REMARK  status: ('A' for Active; 'I' for Inactive)
REMARK    1  A    between atoms: C_4  and  N_9 
REMARK    2  A    between atoms: C_7  and  N_10 
REMARK    3  A    between atoms: C_17  and  C_28 
REMARK    4  A    between atoms: C_22  and  N_24 
REMARK    5  A    between atoms: N_24  and  C_25 
REMARK    6  A    between atoms: C_28  and  C_29 
REMARK    7  A    between atoms: C_29  and  O_31 
ROOT
HETATM    1  N   UNK N   1      34.383  18.146   8.184  0.00  0.00    -0.368 N 
ATOM      2  HN  UNK N   1      34.999  18.852   7.784  1.00  0.00     0.164 HD
HETATM    3  C   UNK N   1      33.025  18.318   8.099  0.00  0.00     0.138 A 
HETATM    4  C   UNK N   1      32.187  17.343   8.652  0.00  0.00     0.144 A 
HETATM    5  N   UNK N   1      32.755  16.279   9.243  0.00  0.00    -0.325 N 
ATOM      6  HN  UNK N   1      32.139  15.572   9.644  1.00  0.00     0.169 HD
HETATM    7  C   UNK N   1      34.079  16.084   9.342  0.00  0.00     0.128 A 
HETATM    8  C   UNK N   1      34.932  17.049   8.795  0.00  0.00     0.137 A 
ENDROOT
BRANCH   4   9
HETATM    9  N   UNK N   1      30.750  17.408   8.626  0.00  0.00    -0.238 N 
HETATM   10  C   UNK N   1      30.013  17.361   7.501  0.00  0.00     0.072 A 
HETATM   11  C   UNK N   1      28.701  17.446   7.820  0.00  0.00     0.010 A 
HETATM   12  C   UNK N   1      30.451  17.246   6.185  0.00  0.00     0.061 A 
HETATM   13  C   UNK N   1      28.650  17.547   9.203  0.00  0.00     0.121 A 
HETATM   14  C   UNK N   1      27.712  17.421   6.830  0.00  0.00     0.017 A 
HETATM   15  N   UNK N   1      29.936  17.521   9.666  0.00  0.00    -0.302 N 
ATOM     16  HN  UNK N   1      30.221  17.578  10.644  1.00  0.00     0.186 HD
HETATM   17  C   UNK N   1      28.129  17.304   5.480  0.00  0.00     0.030 A 
HETATM   18  C   UNK N   1      29.511  17.216   5.156  0.00  0.00     0.030 A 
BRANCH  18  19
HETATM   19  N   UNK N   1      30.000  17.098   3.825  0.00  0.00    -0.386 N 
HETATM   20  H   UNK N   1      29.531  17.634   3.145  0.00  0.00     0.160 HD
BRANCH  19  21
HETATM   21  C   UNK N   1      31.099  16.289   3.346  0.00  0.00     0.073 C 
HETATM   22  C   UNK N   1      32.387  17.017   3.022  0.00  0.00     0.031 C 
HETATM   23  C   UNK N   1      30.977  14.787   3.175  0.00  0.00     0.031 C 
ENDBRANCH  19  21
ENDBRANCH  18  19
ENDBRANCH   4   9
BRANCH   7  24
HETATM   24  N   UNK N   1      34.519  14.894  10.005  0.00  0.00    -0.317 N 
HETATM   25  C   UNK N   1      34.545  14.813  11.346  0.00  0.00     0.105 A 
HETATM   26  C   UNK N   1      35.000  13.584  11.717  0.00  0.00    -0.031 A 
HETATM   27  C   UNK N   1      35.269  12.869  10.555  0.00  0.00     0.026 A 
HETATM   28  C   UNK N   1      34.954  13.724   9.499  0.00  0.00     0.099 A 
BRANCH  26  29
HETATM   29  C   UNK N   1      35.138  13.202  13.164  0.00  0.00     0.149 C 
BRANCH  29  30
HETATM   30  C   UNK N   1      36.405  13.559  13.876  0.00  0.00     0.143 C 
HETATM   31  O   UNK N   1      37.061  12.670  14.395  0.00  0.00    -0.650 OA
BRANCH  30  32
HETATM   32  O   UNK N   1      36.832  14.832  13.956  0.00  0.00    -0.776 OA
HETATM   33  H   UNK N   1      36.602  15.447  13.286  0.00  0.00     0.167 HD
ENDBRANCH  30  32
ENDBRANCH  29  30
ENDBRANCH  26  29
ENDBRANCH   7  24
TORSDOF 7
ENDMDL
MODEL 6
REMARK VINA RESULT:      -7.2      5.432      8.218
REMARK  7 active torsions:
REMARK  status: ('A' for Active; 'I' for Inactive)
REMARK    1  A    between atoms: C_4  and  N_9 
REMARK    2  A    between atoms: C_7  and  N_10 
REMARK    3  A    between atoms: C_17  and  C_28 
REMARK    4  A    between atoms: C_22  and  N_24 
REMARK    5  A    between atoms: N_24  and  C_25 
REMARK    6  A    between atoms: C_28  and  C_29 
REMARK    7  A    between atoms: C_29  and  O_31 
ROOT
HETATM    1  N   UNK N   1      32.578  14.714   6.822  0.00  0.00    -0.368 N 
ATOM      2  HN  UNK N   1      32.724  14.074   6.042  1.00  0.00     0.164 HD
HETATM    3  C   UNK N   1      33.543  14.818   7.790  0.00  0.00     0.138 A 
HETATM    4  C   UNK N   1      33.335  15.699   8.857  0.00  0.00     0.144 A 
HETATM    5  N   UNK N   1      32.193  16.405   8.883  0.00  0.00    -0.325 N 
ATOM      6  HN  UNK N   1      32.047  17.046   9.663  1.00  0.00     0.169 HD
HETATM    7  C   UNK N   1      31.231  16.325   7.950  0.00  0.00     0.128 A 
HETATM    8  C   UNK N   1      31.423  15.449   6.876  0.00  0.00     0.137 A 
ENDROOT
BRANCH   4   9
HETATM    9  N   UNK N   1      34.270  15.897   9.933  0.00  0.00    -0.238 N 
HETATM   10  C   UNK N   1      34.654  14.929  10.786  0.00  0.00     0.072 A 
HETATM   11  C   UNK N   1      35.537  15.439  11.675  0.00  0.00     0.010 A 
HETATM   12  C   UNK N   1      34.256  13.596  10.815  0.00  0.00     0.061 A 
HETATM   13  C   UNK N   1      35.688  16.776  11.338  0.00  0.00     0.121 A 
HETATM   14  C   UNK N   1      36.097  14.640  12.678  0.00  0.00     0.017 A 
HETATM   15  N   UNK N   1      34.890  17.023  10.257  0.00  0.00    -0.302 N 
ATOM     16  HN  UNK N   1      34.788  17.919   9.781  1.00  0.00     0.186 HD
HETATM   17  C   UNK N   1      35.710  13.277  12.733  0.00  0.00     0.030 A 
HETATM   18  C   UNK N   1      34.781  12.751  11.793  0.00  0.00     0.030 A 
BRANCH  18  19
HETATM   19  N   UNK N   1      34.348  11.396  11.789  0.00  0.00    -0.386 N 
HETATM   20  H   UNK N   1      33.925  11.081  10.958  0.00  0.00     0.160 HD
BRANCH  19  21
HETATM   21  C   UNK N   1      34.452  10.423  12.854  0.00  0.00     0.073 C 
HETATM   22  C   UNK N   1      33.646  10.698  14.107  0.00  0.00     0.031 C 
HETATM   23  C   UNK N   1      35.321   9.187  12.732  0.00  0.00     0.031 C 
ENDBRANCH  19  21
ENDBRANCH  18  19
ENDBRANCH   4   9
BRANCH   7  24
HETATM   24  N   UNK N   1      30.074  17.149   8.129  0.00  0.00    -0.317 N 
HETATM   25  C   UNK N   1      29.458  17.722   7.082  0.00  0.00     0.105 A 
HETATM   26  C   UNK N   1      28.394  18.447   7.524  0.00  0.00    -0.031 A 
HETATM   27  C   UNK N   1      28.345  18.320   8.907  0.00  0.00     0.026 A 
HETATM   28  C   UNK N   1      29.417  17.497   9.253  0.00  0.00     0.099 A 
BRANCH  26  29
HETATM   29  C   UNK N   1      27.510  19.204   6.571  0.00  0.00     0.149 C 
BRANCH  29  30
HETATM   30  C   UNK N   1      27.085  20.590   6.944  0.00  0.00     0.143 C 
HETATM   31  O   UNK N   1      27.601  21.538   6.375  0.00  0.00    -0.650 OA
BRANCH  30  32
HETATM   32  O   UNK N   1      26.152  20.809   7.887  0.00  0.00    -0.776 OA
HETATM   33  H   UNK N   1      26.286  20.497   8.761  0.00  0.00     0.167 HD
ENDBRANCH  30  32
ENDBRANCH  29  30
ENDBRANCH  26  29
ENDBRANCH   7  24
TORSDOF 7
ENDMDL
MODEL 7
REMARK VINA RESULT:      -7.2      7.555     11.260
REMARK  7 active torsions:
REMARK  status: ('A' for Active; 'I' for Inactive)
REMARK    1  A    between atoms: C_4  and  N_9 
REMARK    2  A    between atoms: C_7  and  N_10 
REMARK    3  A    between atoms: C_17  and  C_28 
REMARK    4  A    between atoms: C_22  and  N_24 
REMARK    5  A    between atoms: N_24  and  C_25 
REMARK    6  A    between atoms: C_28  and  C_29 
REMARK    7  A    between atoms: C_29  and  O_31 
ROOT
HETATM    1  N   UNK N   1      37.145  13.928   9.108  0.00  0.00    -0.368 N 
ATOM      2  HN  UNK N   1      37.799  13.433   8.503  1.00  0.00     0.164 HD
HETATM    3  C   UNK N   1      37.198  13.718  10.462  0.00  0.00     0.138 A 
HETATM    4  C   UNK N   1      36.296  14.403  11.285  0.00  0.00     0.144 A 
HETATM    5  N   UNK N   1      35.417  15.237  10.706  0.00  0.00    -0.325 N 
ATOM      6  HN  UNK N   1      34.762  15.732  11.312  1.00  0.00     0.169 HD
HETATM    7  C   UNK N   1      35.342  15.462   9.386  0.00  0.00     0.128 A 
HETATM    8  C   UNK N   1      36.235  14.786   8.547  0.00  0.00     0.137 A 
ENDROOT
BRANCH   4   9
HETATM    9  N   UNK N   1      36.251  14.269  12.717  0.00  0.00    -0.238 N 
HETATM   10  C   UNK N   1      35.598  13.284  13.362  0.00  0.00     0.072 A 
HETATM   11  C   UNK N   1      35.751  13.443  14.696  0.00  0.00     0.010 A 
HETATM   12  C   UNK N   1      34.861  12.236  12.819  0.00  0.00     0.061 A 
HETATM   13  C   UNK N   1      36.534  14.578  14.858  0.00  0.00     0.121 A 
HETATM   14  C   UNK N   1      35.169  12.551  15.603  0.00  0.00     0.017 A 
HETATM   15  N   UNK N   1      36.824  15.060  13.613  0.00  0.00    -0.302 N 
ATOM     16  HN  UNK N   1      37.384  15.887  13.407  1.00  0.00     0.186 HD
HETATM   17  C   UNK N   1      34.412  11.473  15.078  0.00  0.00     0.030 A 
HETATM   18  C   UNK N   1      34.257  11.315  13.674  0.00  0.00     0.030 A 
BRANCH  18  19
HETATM   19  N   UNK N   1      33.513  10.258  13.079  0.00  0.00    -0.386 N 
HETATM   20  H   UNK N   1      32.650  10.047  13.503  0.00  0.00     0.160 HD
BRANCH  19  21
HETATM   21  C   UNK N   1      33.866   9.455  11.928  0.00  0.00     0.073 C 
HETATM   22  C   UNK N   1      33.053   9.679  10.669  0.00  0.00     0.031 C 
HETATM   23  C   UNK N   1      34.990   8.439  11.972  0.00  0.00     0.031 C 
ENDBRANCH  19  21
ENDBRANCH  18  19
ENDBRANCH   4   9
BRANCH   7  24
HETATM   24  N   UNK N   1      34.344  16.383   8.934  0.00  0.00    -0.317 N 
HETATM   25  C   UNK N   1      33.047  16.036   8.879  0.00  0.00     0.105 A 
HETATM   26  C   UNK N   1      32.315  17.087   8.418  0.00  0.00    -0.031 A 
HETATM   27  C   UNK N   1      33.195  18.136   8.175  0.00  0.00     0.026 A 
HETATM   28  C   UNK N   1      34.461  17.657   8.510  0.00  0.00     0.099 A 
BRANCH  26  29
HETATM   29  C   UNK N   1      30.824  16.992   8.251  0.00  0.00     0.149 C 
BRANCH  29  30
HETATM   30  C   UNK N   1      29.951  17.738   9.211  0.00  0.00     0.143 C 
HETATM   31  O   UNK N   1      29.506  18.825   8.882  0.00  0.00    -0.650 OA
BRANCH  30  32
HETATM   32  O   UNK N   1      29.649  17.236  10.422  0.00  0.00    -0.776 OA
HETATM   33  H   UNK N   1      29.485  17.813  11.142  0.00  0.00     0.167 HD
ENDBRANCH  30  32
ENDBRANCH  29  30
ENDBRANCH  26  29
ENDBRANCH   7  24
TORSDOF 7
ENDMDL
MODEL 8
REMARK VINA RESULT:      -7.1      3.052      5.203
REMARK  7 active torsions:
REMARK  status: ('A' for Active; 'I' for Inactive)
REMARK    1  A    between atoms: C_4  and  N_9 
REMARK    2  A    between atoms: C_7  and  N_10 
REMARK    3  A    between atoms: C_17  and  C_28 
REMARK    4  A    between atoms: C_22  and  N_24 
REMARK    5  A    between atoms: N_24  and  C_25 
REMARK    6  A    between atoms: C_28  and  C_29 
REMARK    7  A    between atoms: C_29  and  O_31 
ROOT
HETATM    1  N   UNK N   1      22.728  15.279   6.286  0.00  0.00    -0.368 N 
ATOM      2  HN  UNK N   1      22.518  14.974   7.236  1.00  0.00     0.164 HD
HETATM    3  C   UNK N   1      23.843  14.786   5.658  0.00  0.00     0.138 A 
HETATM    4  C   UNK N   1      24.123  15.210   4.354  0.00  0.00     0.144 A 
HETATM    5  N   UNK N   1      23.283  16.084   3.777  0.00  0.00    -0.325 N 
ATOM      6  HN  UNK N   1      23.493  16.388   2.826  1.00  0.00     0.169 HD
HETATM    7  C   UNK N   1      22.186  16.582   4.366  0.00  0.00     0.128 A 
HETATM    8  C   UNK N   1      21.889  16.170   5.670  0.00  0.00     0.137 A 
ENDROOT
BRANCH   4   9
HETATM    9  N   UNK N   1      25.259  14.767   3.591  0.00  0.00    -0.238 N 
HETATM   10  C   UNK N   1      26.402  15.467   3.463  0.00  0.00     0.072 A 
HETATM   11  C   UNK N   1      27.267  14.777   2.684  0.00  0.00     0.010 A 
HETATM   12  C   UNK N   1      26.721  16.706   4.011  0.00  0.00     0.061 A 
HETATM   13  C   UNK N   1      26.610  13.608   2.329  0.00  0.00     0.121 A 
HETATM   14  C   UNK N   1      28.538  15.283   2.390  0.00  0.00     0.017 A 
HETATM   15  N   UNK N   1      25.373  13.637   2.907  0.00  0.00    -0.302 N 
ATOM     16  HN  UNK N   1      24.658  12.913   2.827  1.00  0.00     0.186 HD
HETATM   17  C   UNK N   1      28.891  16.544   2.935  0.00  0.00     0.030 A 
HETATM   18  C   UNK N   1      27.974  17.261   3.752  0.00  0.00     0.030 A 
BRANCH  18  19
HETATM   19  N   UNK N   1      28.262  18.528   4.330  0.00  0.00    -0.386 N 
HETATM   20  H   UNK N   1      29.212  18.717   4.504  0.00  0.00     0.160 HD
BRANCH  19  21
HETATM   21  C   UNK N   1      27.332  19.575   4.695  0.00  0.00     0.073 C 
HETATM   22  C   UNK N   1      26.571  20.232   3.561  0.00  0.00     0.031 C 
HETATM   23  C   UNK N   1      27.124  19.999   6.135  0.00  0.00     0.031 C 
ENDBRANCH  19  21
ENDBRANCH  18  19
ENDBRANCH   4   9
BRANCH   7  24
HETATM   24  N   UNK N   1      21.397  17.506   3.608  0.00  0.00    -0.317 N 
HETATM   25  C   UNK N   1      21.776  18.786   3.457  0.00  0.00     0.105 A 
HETATM   26  C   UNK N   1      20.856  19.444   2.698  0.00  0.00    -0.031 A 
HETATM   27  C   UNK N   1      19.861  18.534   2.362  0.00  0.00     0.026 A 
HETATM   28  C   UNK N   1      20.234  17.326   2.952  0.00  0.00     0.099 A 
BRANCH  26  29
HETATM   29  C   UNK N   1      21.016  20.900   2.360  0.00  0.00     0.149 C 
BRANCH  29  30
HETATM   30  C   UNK N   1      20.844  21.323   0.934  0.00  0.00     0.143 C 
HETATM   31  O   UNK N   1      21.097  20.524   0.048  0.00  0.00    -0.650 OA
BRANCH  30  32
HETATM   32  O   UNK N   1      20.419  22.558   0.614  0.00  0.00    -0.776 OA
HETATM   33  H   UNK N   1      19.850  23.025   1.196  0.00  0.00     0.167 HD
ENDBRANCH  30  32
ENDBRANCH  29  30
ENDBRANCH  26  29
ENDBRANCH   7  24
TORSDOF 7
ENDMDL
MODEL 9
REMARK VINA RESULT:      -7.1      4.919      8.064
REMARK  7 active torsions:
REMARK  status: ('A' for Active; 'I' for Inactive)
REMARK    1  A    between atoms: C_4  and  N_9 
REMARK    2  A    between atoms: C_7  and  N_10 
REMARK    3  A    between atoms: C_17  and  C_28 
REMARK    4  A    between atoms: C_22  and  N_24 
REMARK    5  A    between atoms: N_24  and  C_25 
REMARK    6  A    between atoms: C_28  and  C_29 
REMARK    7  A    between atoms: C_29  and  O_31 
ROOT
HETATM    1  N   UNK N   1      19.432  15.337   3.179  0.00  0.00    -0.368 N 
ATOM      2  HN  UNK N   1      18.984  14.681   2.540  1.00  0.00     0.164 HD
HETATM    3  C   UNK N   1      19.984  16.487   2.678  0.00  0.00     0.138 A 
HETATM    4  C   UNK N   1      20.597  17.381   3.563  0.00  0.00     0.144 A 
HETATM    5  N   UNK N   1      20.615  17.069   4.869  0.00  0.00    -0.325 N 
ATOM      6  HN  UNK N   1      21.063  17.725   5.509  1.00  0.00     0.169 HD
HETATM    7  C   UNK N   1      20.083  15.952   5.388  0.00  0.00     0.128 A 
HETATM    8  C   UNK N   1      19.467  15.046   4.518  0.00  0.00     0.137 A 
ENDROOT
BRANCH   4   9
HETATM    9  N   UNK N   1      21.211  18.619   3.161  0.00  0.00    -0.238 N 
HETATM   10  C   UNK N   1      22.477  18.964   3.458  0.00  0.00     0.072 A 
HETATM   11  C   UNK N   1      22.745  20.183   2.936  0.00  0.00     0.010 A 
HETATM   12  C   UNK N   1      23.422  18.242   4.180  0.00  0.00     0.061 A 
HETATM   13  C   UNK N   1      21.582  20.587   2.295  0.00  0.00     0.121 A 
HETATM   14  C   UNK N   1      23.999  20.781   3.100  0.00  0.00     0.017 A 
HETATM   15  N   UNK N   1      20.656  19.595   2.456  0.00  0.00    -0.302 N 
ATOM     16  HN  UNK N   1      19.702  19.603   2.095  1.00  0.00     0.186 HD
HETATM   17  C   UNK N   1      24.983  20.068   3.831  0.00  0.00     0.030 A 
HETATM   18  C   UNK N   1      24.691  18.787   4.375  0.00  0.00     0.030 A 
BRANCH  18  19
HETATM   19  N   UNK N   1      25.628  18.017   5.118  0.00  0.00    -0.386 N 
HETATM   20  H   UNK N   1      25.320  17.692   5.995  0.00  0.00     0.160 HD
BRANCH  19  21
HETATM   21  C   UNK N   1      26.978  17.651   4.747  0.00  0.00     0.073 C 
HETATM   22  C   UNK N   1      27.124  16.668   3.604  0.00  0.00     0.031 C 
HETATM   23  C   UNK N   1      28.189  18.218   5.460  0.00  0.00     0.031 C 
ENDBRANCH  19  21
ENDBRANCH  18  19
ENDBRANCH   4   9
BRANCH   7  24
HETATM   24  N   UNK N   1      20.189  15.772   6.804  0.00  0.00    -0.317 N 
HETATM   25  C   UNK N   1      20.995  14.834   7.330  0.00  0.00     0.105 A 
HETATM   26  C   UNK N   1      20.911  14.874   8.688  0.00  0.00    -0.031 A 
HETATM   27  C   UNK N   1      20.014  15.881   9.023  0.00  0.00     0.026 A 
HETATM   28  C   UNK N   1      19.580  16.424   7.814  0.00  0.00     0.099 A 
BRANCH  26  29
HETATM   29  C   UNK N   1      21.706  13.934   9.551  0.00  0.00     0.149 C 
BRANCH  29  30
HETATM   30  C   UNK N   1      20.964  12.989  10.445  0.00  0.00     0.143 C 
HETATM   31  O   UNK N   1      21.599  12.234  11.162  0.00  0.00    -0.650 OA
BRANCH  30  32
HETATM   32  O   UNK N   1      19.620  12.958  10.473  0.00  0.00    -0.776 OA
HETATM   33  H   UNK N   1      19.125  13.512   9.901  0.00  0.00     0.167 HD
ENDBRANCH  30  32
ENDBRANCH  29  30
ENDBRANCH  26  29
ENDBRANCH   7  24
TORSDOF 7
ENDMDL
