MODEL 1
REMARK VINA RESULT:      -7.6      0.000      0.000
REMARK  6 active torsions:
REMARK  status: ('A' for Active; 'I' for Inactive)
REMARK    1  A    between atoms: C_5  and  C_10 
REMARK    2  A    between atoms: C_7  and  C_14 
REMARK    3  A    between atoms: C_8  and  N_17 
REMARK    4  A    between atoms: C_14  and  O_15 
REMARK    5  A    between atoms: N_17  and  S_18 
REMARK    6  A    between atoms: S_18  and  C_20 
ROOT
HETATM    1  C   UNK N   1      20.190  16.438   8.369  0.00  0.00     0.023 A 
HETATM    2  C   UNK N   1      20.865  15.223   8.372  0.00  0.00     0.044 A 
HETATM    3  C   UNK N   1      21.802  14.921   7.380  0.00  0.00     0.023 A 
HETATM    4  C   UNK N   1      21.984  15.788   6.313  0.00  0.00     0.014 A 
HETATM    5  C   UNK N   1      21.214  16.934   6.247  0.00  0.00    -0.019 A 
HETATM    6  C   UNK N   1      20.358  17.288   7.298  0.00  0.00     0.014 A 
HETATM    7  C   UNK N   1      20.498  14.239   9.325  0.00  0.00     0.099 C 
HETATM    8  N   UNK N   1      20.173  13.464  10.118  0.00  0.00    -0.191 NA
ENDROOT
BRANCH   5   9
HETATM    9  C   UNK N   1      21.035  17.564   4.973  0.00  0.00     0.018 A 
HETATM   10  C   UNK N   1      20.287  16.982   3.987  0.00  0.00     0.051 A 
HETATM   11  C   UNK N   1      20.281  17.705   2.798  0.00  0.00     0.067 A 
HETATM   12  C   UNK N   1      21.070  18.869   2.830  0.00  0.00     0.106 A 
HETATM   13  S   UNK N   1      21.747  18.921   4.342  0.00  0.00    -0.081 SA
BRANCH  11  14
HETATM   14  N   UNK N   1      19.190  17.536   1.956  0.00  0.00    -0.279 N 
HETATM   15  H   UNK N   1      18.324  17.990   2.077  0.00  0.00     0.179 HD
BRANCH  14  16
HETATM   16  S   UNK N   1      19.543  16.415   0.646  0.00  0.00     0.263 S 
HETATM   17  O   UNK N   1      18.297  16.523  -0.264  0.00  0.00    -0.200 OA
HETATM   18  O   UNK N   1      20.527  17.193  -0.227  0.00  0.00    -0.200 OA
BRANCH  16  19
HETATM   19  C   UNK N   1      20.004  14.667   0.786  0.00  0.00     0.085 A 
HETATM   20  C   UNK N   1      21.273  14.223   1.233  0.00  0.00    -0.039 A 
HETATM   21  C   UNK N   1      21.510  12.859   1.435  0.00  0.00     0.008 A 
HETATM   22  C   UNK N   1      22.370  15.156   1.533  0.00  0.00     0.050 C 
HETATM   23  C   UNK N   1      20.501  11.930   1.197  0.00  0.00     0.001 A 
HETATM   24  C   UNK N   1      19.255  12.359   0.740  0.00  0.00     0.002 A 
HETATM   25  C   UNK N   1      19.009  13.720   0.542  0.00  0.00     0.026 A 
ENDBRANCH  16  19
ENDBRANCH  14  16
ENDBRANCH  11  14
BRANCH  12  26
HETATM   26  C   UNK N   1      21.151  19.962   1.853  0.00  0.00     0.185 C 
HETATM   27  O   UNK N   1      21.698  21.015   2.141  0.00  0.00    -0.646 OA
BRANCH  26  28
HETATM   28  O   UNK N   1      20.631  19.794   0.622  0.00  0.00    -0.772 OA
HETATM   29  H   UNK N   1      19.802  20.079   0.292  0.00  0.00     0.167 HD
ENDBRANCH  26  28
ENDBRANCH  12  26
ENDBRANCH   5   9
TORSDOF 6
ENDMDL
MODEL 2
REMARK VINA RESULT:      -7.3     13.510     15.044
REMARK  6 active torsions:
REMARK  status: ('A' for Active; 'I' for Inactive)
REMARK    1  A    between atoms: C_5  and  C_10 
REMARK    2  A    between atoms: C_7  and  C_14 
REMARK    3  A    between atoms: C_8  and  N_17 
REMARK    4  A    between atoms: C_14  and  O_15 
REMARK    5  A    between atoms: N_17  and  S_18 
REMARK    6  A    between atoms: S_18  and  C_20 
ROOT
HETATM    1  C   UNK N   1      36.396  14.004  14.524  0.00  0.00     0.023 A 
HETATM    2  C   UNK N   1      35.605  12.880  14.731  0.00  0.00     0.044 A 
HETATM    3  C   UNK N   1      34.873  12.313  13.683  0.00  0.00     0.023 A 
HETATM    4  C   UNK N   1      34.840  12.940  12.446  0.00  0.00     0.014 A 
HETATM    5  C   UNK N   1      35.524  14.130  12.283  0.00  0.00    -0.019 A 
HETATM    6  C   UNK N   1      36.344  14.634  13.300  0.00  0.00     0.014 A 
HETATM    7  C   UNK N   1      35.449  12.387  16.052  0.00  0.00     0.099 C 
HETATM    8  N   UNK N   1      35.349  12.015  17.141  0.00  0.00    -0.191 NA
ENDROOT
BRANCH   5   9
HETATM    9  C   UNK N   1      35.123  15.007  11.223  0.00  0.00     0.018 A 
HETATM   10  C   UNK N   1      34.207  14.621  10.284  0.00  0.00     0.051 A 
HETATM   11  C   UNK N   1      33.992  15.577   9.296  0.00  0.00     0.067 A 
HETATM   12  C   UNK N   1      34.781  16.733   9.435  0.00  0.00     0.106 A 
HETATM   13  S   UNK N   1      35.718  16.489  10.779  0.00  0.00    -0.081 SA
BRANCH  11  14
HETATM   14  N   UNK N   1      32.766  15.553   8.643  0.00  0.00    -0.279 N 
HETATM   15  H   UNK N   1      31.925  15.880   9.037  0.00  0.00     0.179 HD
BRANCH  14  16
HETATM   16  S   UNK N   1      32.900  14.869   7.027  0.00  0.00     0.263 S 
HETATM   17  O   UNK N   1      34.341  14.310   6.992  0.00  0.00    -0.200 OA
HETATM   18  O   UNK N   1      32.148  13.543   7.145  0.00  0.00    -0.200 OA
BRANCH  16  19
HETATM   19  C   UNK N   1      32.563  15.696   5.449  0.00  0.00     0.085 A 
HETATM   20  C   UNK N   1      31.572  16.694   5.281  0.00  0.00    -0.039 A 
HETATM   21  C   UNK N   1      31.459  17.376   4.064  0.00  0.00     0.008 A 
HETATM   22  C   UNK N   1      30.656  17.081   6.365  0.00  0.00     0.050 C 
HETATM   23  C   UNK N   1      32.318  17.075   3.010  0.00  0.00     0.001 A 
HETATM   24  C   UNK N   1      33.284  16.081   3.164  0.00  0.00     0.002 A 
HETATM   25  C   UNK N   1      33.407  15.402   4.378  0.00  0.00     0.026 A 
ENDBRANCH  16  19
ENDBRANCH  14  16
ENDBRANCH  11  14
BRANCH  12  26
HETATM   26  C   UNK N   1      34.692  18.009   8.713  0.00  0.00     0.185 C 
HETATM   27  O   UNK N   1      35.442  18.932   8.986  0.00  0.00    -0.646 OA
BRANCH  26  28
HETATM   28  O   UNK N   1      33.782  18.155   7.730  0.00  0.00    -0.772 OA
HETATM   29  H   UNK N   1      33.286  17.495   7.287  0.00  0.00     0.167 HD
ENDBRANCH  26  28
ENDBRANCH  12  26
ENDBRANCH   5   9
TORSDOF 6
ENDMDL
MODEL 3
REMARK VINA RESULT:      -7.2     13.651     15.388
REMARK  6 active torsions:
REMARK  status: ('A' for Active; 'I' for Inactive)
REMARK    1  A    between atoms: C_5  and  C_10 
REMARK    2  A    between atoms: C_7  and  C_14 
REMARK    3  A    between atoms: C_8  and  N_17 
REMARK    4  A    between atoms: C_14  and  O_15 
REMARK    5  A    between atoms: N_17  and  S_18 
REMARK    6  A    between atoms: S_18  and  C_20 
ROOT
HETATM    1  C   UNK N   1      32.940  19.786  -6.075  0.00  0.00     0.023 A 
HETATM    2  C   UNK N   1      33.102  20.361  -4.820  0.00  0.00     0.044 A 
HETATM    3  C   UNK N   1      32.011  20.893  -4.126  0.00  0.00     0.023 A 
HETATM    4  C   UNK N   1      30.768  20.955  -4.738  0.00  0.00     0.014 A 
HETATM    5  C   UNK N   1      30.640  20.501  -6.037  0.00  0.00    -0.019 A 
HETATM    6  C   UNK N   1      31.708  19.868  -6.687  0.00  0.00     0.014 A 
HETATM    7  C   UNK N   1      34.415  20.516  -4.304  0.00  0.00     0.099 C 
HETATM    8  N   UNK N   1      35.498  20.622  -3.917  0.00  0.00    -0.191 NA
ENDROOT
BRANCH   5   9
HETATM    9  C   UNK N   1      29.544  20.983  -6.824  0.00  0.00     0.018 A 
HETATM   10  C   UNK N   1      28.951  22.187  -6.560  0.00  0.00     0.051 A 
HETATM   11  C   UNK N   1      27.863  22.458  -7.383  0.00  0.00     0.067 A 
HETATM   12  C   UNK N   1      27.564  21.432  -8.298  0.00  0.00     0.106 A 
HETATM   13  S   UNK N   1      28.671  20.231  -8.015  0.00  0.00    -0.081 SA
BRANCH  11  14
HETATM   14  N   UNK N   1      27.537  23.793  -7.588  0.00  0.00    -0.279 N 
HETATM   15  H   UNK N   1      28.065  24.411  -8.144  0.00  0.00     0.179 HD
BRANCH  14  16
HETATM   16  S   UNK N   1      26.066  24.245  -6.734  0.00  0.00     0.263 S 
HETATM   17  O   UNK N   1      25.067  24.549  -7.875  0.00  0.00    -0.200 OA
HETATM   18  O   UNK N   1      25.493  22.901  -6.286  0.00  0.00    -0.200 OA
BRANCH  16  19
HETATM   19  C   UNK N   1      25.881  25.516  -5.454  0.00  0.00     0.085 A 
HETATM   20  C   UNK N   1      26.486  25.436  -4.175  0.00  0.00    -0.039 A 
HETATM   21  C   UNK N   1      26.401  26.515  -3.288  0.00  0.00     0.008 A 
HETATM   22  C   UNK N   1      27.246  24.255  -3.739  0.00  0.00     0.050 C 
HETATM   23  C   UNK N   1      25.720  27.673  -3.656  0.00  0.00     0.001 A 
HETATM   24  C   UNK N   1      25.108  27.750  -4.907  0.00  0.00     0.002 A 
HETATM   25  C   UNK N   1      25.195  26.680  -5.800  0.00  0.00     0.026 A 
ENDBRANCH  16  19
ENDBRANCH  14  16
ENDBRANCH  11  14
BRANCH  12  26
HETATM   26  C   UNK N   1      26.632  21.443  -9.432  0.00  0.00     0.185 C 
HETATM   27  O   UNK N   1      26.948  20.947 -10.502  0.00  0.00    -0.646 OA
BRANCH  26  28
HETATM   28  O   UNK N   1      25.410  21.991  -9.284  0.00  0.00    -0.772 OA
HETATM   29  H   UNK N   1      24.571  21.603  -9.440  0.00  0.00     0.167 HD
ENDBRANCH  26  28
ENDBRANCH  12  26
ENDBRANCH   5   9
TORSDOF 6
ENDMDL
MODEL 4
REMARK VINA RESULT:      -7.2      4.516      8.246
REMARK  6 active torsions:
REMARK  status: ('A' for Active; 'I' for Inactive)
REMARK    1  A    between atoms: C_5  and  C_10 
REMARK    2  A    between atoms: C_7  and  C_14 
REMARK    3  A    between atoms: C_8  and  N_17 
REMARK    4  A    between atoms: C_14  and  O_15 
REMARK    5  A    between atoms: N_17  and  S_18 
REMARK    6  A    between atoms: S_18  and  C_20 
ROOT
HETATM    1  C   UNK N   1      21.881  19.472   3.161  0.00  0.00     0.023 A 
HETATM    2  C   UNK N   1      20.876  19.389   2.204  0.00  0.00     0.044 A 
HETATM    3  C   UNK N   1      19.895  18.395   2.277  0.00  0.00     0.023 A 
HETATM    4  C   UNK N   1      19.983  17.407   3.246  0.00  0.00     0.014 A 
HETATM    5  C   UNK N   1      21.058  17.419   4.115  0.00  0.00    -0.019 A 
HETATM    6  C   UNK N   1      21.976  18.477   4.110  0.00  0.00     0.014 A 
HETATM    7  C   UNK N   1      20.931  20.251   1.079  0.00  0.00     0.099 C 
HETATM    8  N   UNK N   1      21.009  20.970   0.179  0.00  0.00    -0.191 NA
ENDROOT
BRANCH   5   9
HETATM    9  C   UNK N   1      21.421  16.197   4.769  0.00  0.00     0.018 A 
HETATM   10  C   UNK N   1      20.828  15.811   5.940  0.00  0.00     0.051 A 
HETATM   11  C   UNK N   1      21.352  14.633   6.462  0.00  0.00     0.067 A 
HETATM   12  C   UNK N   1      22.408  14.090   5.708  0.00  0.00     0.106 A 
HETATM   13  S   UNK N   1      22.639  15.125   4.434  0.00  0.00    -0.081 SA
BRANCH  11  14
HETATM   14  N   UNK N   1      20.527  13.880   7.288  0.00  0.00    -0.279 N 
HETATM   15  H   UNK N   1      19.804  13.297   6.961  0.00  0.00     0.179 HD
BRANCH  14  16
HETATM   16  S   UNK N   1      20.932  14.094   8.988  0.00  0.00     0.263 S 
HETATM   17  O   UNK N   1      21.080  15.627   9.131  0.00  0.00    -0.200 OA
HETATM   18  O   UNK N   1      19.585  13.931   9.691  0.00  0.00    -0.200 OA
BRANCH  16  19
HETATM   19  C   UNK N   1      22.274  13.297   9.909  0.00  0.00     0.085 A 
HETATM   20  C   UNK N   1      22.064  12.416  10.999  0.00  0.00    -0.039 A 
HETATM   21  C   UNK N   1      23.145  11.742  11.577  0.00  0.00     0.008 A 
HETATM   22  C   UNK N   1      20.724  12.146  11.542  0.00  0.00     0.050 C 
HETATM   23  C   UNK N   1      24.434  11.935  11.087  0.00  0.00     0.001 A 
HETATM   24  C   UNK N   1      24.649  12.814  10.026  0.00  0.00     0.002 A 
HETATM   25  C   UNK N   1      23.574  13.485   9.439  0.00  0.00     0.026 A 
ENDBRANCH  16  19
ENDBRANCH  14  16
ENDBRANCH  11  14
BRANCH  12  26
HETATM   26  C   UNK N   1      23.063  12.782   5.836  0.00  0.00     0.185 C 
HETATM   27  O   UNK N   1      24.153  12.580   5.326  0.00  0.00    -0.646 OA
BRANCH  26  28
HETATM   28  O   UNK N   1      22.462  11.803   6.539  0.00  0.00    -0.772 OA
HETATM   29  H   UNK N   1      21.558  11.555   6.543  0.00  0.00     0.167 HD
ENDBRANCH  26  28
ENDBRANCH  12  26
ENDBRANCH   5   9
TORSDOF 6
ENDMDL
MODEL 5
REMARK VINA RESULT:      -7.1      4.456      6.806
REMARK  6 active torsions:
REMARK  status: ('A' for Active; 'I' for Inactive)
REMARK    1  A    between atoms: C_5  and  C_10 
REMARK    2  A    between atoms: C_7  and  C_14 
REMARK    3  A    between atoms: C_8  and  N_17 
REMARK    4  A    between atoms: C_14  and  O_15 
REMARK    5  A    between atoms: N_17  and  S_18 
REMARK    6  A    between atoms: S_18  and  C_20 
ROOT
HETATM    1  C   UNK N   1      22.109  14.585   7.335  0.00  0.00     0.023 A 
HETATM    2  C   UNK N   1      20.807  14.936   7.671  0.00  0.00     0.044 A 
HETATM    3  C   UNK N   1      20.095  15.868   6.910  0.00  0.00     0.023 A 
HETATM    4  C   UNK N   1      20.725  16.540   5.874  0.00  0.00     0.014 A 
HETATM    5  C   UNK N   1      22.061  16.283   5.628  0.00  0.00    -0.019 A 
HETATM    6  C   UNK N   1      22.738  15.270   6.318  0.00  0.00     0.014 A 
HETATM    7  C   UNK N   1      20.251  14.429   8.874  0.00  0.00     0.099 C 
HETATM    8  N   UNK N   1      19.833  13.995   9.859  0.00  0.00    -0.191 NA
ENDROOT
BRANCH   5   9
HETATM    9  C   UNK N   1      22.828  17.269   4.926  0.00  0.00     0.018 A 
HETATM   10  C   UNK N   1      24.176  17.130   4.747  0.00  0.00     0.051 A 
HETATM   11  C   UNK N   1      24.763  18.215   4.103  0.00  0.00     0.067 A 
HETATM   12  C   UNK N   1      23.865  19.254   3.795  0.00  0.00     0.106 A 
HETATM   13  S   UNK N   1      22.387  18.763   4.361  0.00  0.00    -0.081 SA
BRANCH  11  14
HETATM   14  N   UNK N   1      25.940  17.981   3.404  0.00  0.00    -0.279 N 
HETATM   15  H   UNK N   1      25.975  17.624   2.487  0.00  0.00     0.179 HD
BRANCH  14  16
HETATM   16  S   UNK N   1      27.360  18.399   4.356  0.00  0.00     0.263 S 
HETATM   17  O   UNK N   1      28.510  17.666   3.627  0.00  0.00    -0.200 OA
HETATM   18  O   UNK N   1      27.678  19.823   3.904  0.00  0.00    -0.200 OA
BRANCH  16  19
HETATM   19  C   UNK N   1      27.588  18.194   6.143  0.00  0.00     0.085 A 
HETATM   20  C   UNK N   1      27.503  16.945   6.807  0.00  0.00    -0.039 A 
HETATM   21  C   UNK N   1      27.817  16.849   8.168  0.00  0.00     0.008 A 
HETATM   22  C   UNK N   1      27.125  15.708   6.108  0.00  0.00     0.050 C 
HETATM   23  C   UNK N   1      28.211  17.981   8.877  0.00  0.00     0.001 A 
HETATM   24  C   UNK N   1      28.278  19.216   8.233  0.00  0.00     0.002 A 
HETATM   25  C   UNK N   1      27.974  19.318   6.873  0.00  0.00     0.026 A 
ENDBRANCH  16  19
ENDBRANCH  14  16
ENDBRANCH  11  14
BRANCH  12  26
HETATM   26  C   UNK N   1      24.075  20.444   2.961  0.00  0.00     0.185 C 
HETATM   27  O   UNK N   1      23.225  21.317   2.899  0.00  0.00    -0.646 OA
BRANCH  26  28
HETATM   28  O   UNK N   1      25.224  20.580   2.271  0.00  0.00    -0.772 OA
HETATM   29  H   UNK N   1      25.703  21.361   2.079  0.00  0.00     0.167 HD
ENDBRANCH  26  28
ENDBRANCH  12  26
ENDBRANCH   5   9
TORSDOF 6
ENDMDL
MODEL 6
REMARK VINA RESULT:      -7.1     13.890     15.317
REMARK  6 active torsions:
REMARK  status: ('A' for Active; 'I' for Inactive)
REMARK    1  A    between atoms: C_5  and  C_10 
REMARK    2  A    between atoms: C_7  and  C_14 
REMARK    3  A    between atoms: C_8  and  N_17 
REMARK    4  A    between atoms: C_14  and  O_15 
REMARK    5  A    between atoms: N_17  and  S_18 
REMARK    6  A    between atoms: S_18  and  C_20 
ROOT
HETATM    1  C   UNK N   1      31.080  23.264  -4.067  0.00  0.00     0.023 A 
HETATM    2  C   UNK N   1      31.500  21.942  -3.987  0.00  0.00     0.044 A 
HETATM    3  C   UNK N   1      30.985  20.972  -4.851  0.00  0.00     0.023 A 
HETATM    4  C   UNK N   1      29.960  21.299  -5.725  0.00  0.00     0.014 A 
HETATM    5  C   UNK N   1      29.454  22.585  -5.708  0.00  0.00    -0.019 A 
HETATM    6  C   UNK N   1      30.047  23.581  -4.922  0.00  0.00     0.014 A 
HETATM    7  C   UNK N   1      32.368  21.563  -2.931  0.00  0.00     0.099 C 
HETATM    8  N   UNK N   1      33.076  21.294  -2.059  0.00  0.00    -0.191 NA
ENDROOT
BRANCH   5   9
HETATM    9  C   UNK N   1      28.134  22.807  -6.219  0.00  0.00     0.018 A 
HETATM   10  C   UNK N   1      27.209  23.531  -5.519  0.00  0.00     0.051 A 
HETATM   11  C   UNK N   1      25.965  23.585  -6.140  0.00  0.00     0.067 A 
HETATM   12  C   UNK N   1      25.891  22.858  -7.341  0.00  0.00     0.106 A 
HETATM   13  S   UNK N   1      27.385  22.173  -7.555  0.00  0.00    -0.081 SA
BRANCH  11  14
HETATM   14  N   UNK N   1      25.153  24.672  -5.844  0.00  0.00    -0.279 N 
HETATM   15  H   UNK N   1      24.247  24.597  -5.465  0.00  0.00     0.179 HD
BRANCH  14  16
HETATM   16  S   UNK N   1      25.939  26.199  -6.227  0.00  0.00     0.263 S 
HETATM   17  O   UNK N   1      25.937  26.226  -7.773  0.00  0.00    -0.200 OA
HETATM   18  O   UNK N   1      24.839  27.231  -5.982  0.00  0.00    -0.200 OA
BRANCH  16  19
HETATM   19  C   UNK N   1      27.553  26.784  -5.644  0.00  0.00     0.085 A 
HETATM   20  C   UNK N   1      27.836  27.089  -4.289  0.00  0.00    -0.039 A 
HETATM   21  C   UNK N   1      29.140  27.412  -3.897  0.00  0.00     0.008 A 
HETATM   22  C   UNK N   1      26.802  27.047  -3.243  0.00  0.00     0.050 C 
HETATM   23  C   UNK N   1      30.167  27.439  -4.837  0.00  0.00     0.001 A 
HETATM   24  C   UNK N   1      29.892  27.157  -6.175  0.00  0.00     0.002 A 
HETATM   25  C   UNK N   1      28.594  26.826  -6.572  0.00  0.00     0.026 A 
ENDBRANCH  16  19
ENDBRANCH  14  16
ENDBRANCH  11  14
BRANCH  12  26
HETATM   26  C   UNK N   1      24.825  22.843  -8.352  0.00  0.00     0.185 C 
HETATM   27  O   UNK N   1      24.895  23.556  -9.340  0.00  0.00    -0.646 OA
BRANCH  26  28
HETATM   28  O   UNK N   1      23.770  22.021  -8.194  0.00  0.00    -0.772 OA
HETATM   29  H   UNK N   1      22.872  22.243  -8.040  0.00  0.00     0.167 HD
ENDBRANCH  26  28
ENDBRANCH  12  26
ENDBRANCH   5   9
TORSDOF 6
ENDMDL
MODEL 7
REMARK VINA RESULT:      -7.1      8.924     10.549
REMARK  6 active torsions:
REMARK  status: ('A' for Active; 'I' for Inactive)
REMARK    1  A    between atoms: C_5  and  C_10 
REMARK    2  A    between atoms: C_7  and  C_14 
REMARK    3  A    between atoms: C_8  and  N_17 
REMARK    4  A    between atoms: C_14  and  O_15 
REMARK    5  A    between atoms: N_17  and  S_18 
REMARK    6  A    between atoms: S_18  and  C_20 
ROOT
HETATM    1  C   UNK N   1      32.283  17.790   8.257  0.00  0.00     0.023 A 
HETATM    2  C   UNK N   1      33.617  17.564   7.935  0.00  0.00     0.044 A 
HETATM    3  C   UNK N   1      33.992  17.213   6.635  0.00  0.00     0.023 A 
HETATM    4  C   UNK N   1      33.020  16.973   5.676  0.00  0.00     0.014 A 
HETATM    5  C   UNK N   1      31.689  17.071   6.037  0.00  0.00    -0.019 A 
HETATM    6  C   UNK N   1      31.319  17.531   7.307  0.00  0.00     0.014 A 
HETATM    7  C   UNK N   1      34.582  17.571   8.975  0.00  0.00     0.099 C 
HETATM    8  N   UNK N   1      35.337  17.587   9.848  0.00  0.00    -0.191 NA
ENDROOT
BRANCH   5   9
HETATM    9  C   UNK N   1      30.714  16.383   5.244  0.00  0.00     0.018 A 
HETATM   10  C   UNK N   1      29.804  15.533   5.810  0.00  0.00     0.051 A 
HETATM   11  C   UNK N   1      28.982  14.905   4.880  0.00  0.00     0.067 A 
HETATM   12  C   UNK N   1      29.268  15.237   3.543  0.00  0.00     0.106 A 
HETATM   13  S   UNK N   1      30.548  16.289   3.598  0.00  0.00    -0.081 SA
BRANCH  11  14
HETATM   14  N   UNK N   1      27.736  14.477   5.318  0.00  0.00    -0.279 N 
HETATM   15  H   UNK N   1      27.505  13.535   5.493  0.00  0.00     0.179 HD
BRANCH  14  16
HETATM   16  S   UNK N   1      26.618  15.821   5.525  0.00  0.00     0.263 S 
HETATM   17  O   UNK N   1      25.495  15.514   4.507  0.00  0.00    -0.200 OA
HETATM   18  O   UNK N   1      25.867  15.459   6.805  0.00  0.00    -0.200 OA
BRANCH  16  19
HETATM   19  C   UNK N   1      26.999  17.592   5.446  0.00  0.00     0.085 A 
HETATM   20  C   UNK N   1      27.598  18.315   6.508  0.00  0.00    -0.039 A 
HETATM   21  C   UNK N   1      27.976  19.649   6.324  0.00  0.00     0.008 A 
HETATM   22  C   UNK N   1      27.876  17.702   7.815  0.00  0.00     0.050 C 
HETATM   23  C   UNK N   1      27.766  20.276   5.098  0.00  0.00     0.001 A 
HETATM   24  C   UNK N   1      27.161  19.574   4.056  0.00  0.00     0.002 A 
HETATM   25  C   UNK N   1      26.787  18.240   4.229  0.00  0.00     0.026 A 
ENDBRANCH  16  19
ENDBRANCH  14  16
ENDBRANCH  11  14
BRANCH  12  26
HETATM   26  C   UNK N   1      28.504  14.932   2.327  0.00  0.00     0.185 C 
HETATM   27  O   UNK N   1      28.971  14.205   1.465  0.00  0.00    -0.646 OA
BRANCH  26  28
HETATM   28  O   UNK N   1      27.269  15.446   2.171  0.00  0.00    -0.772 OA
HETATM   29  H   UNK N   1      27.022  16.330   1.982  0.00  0.00     0.167 HD
ENDBRANCH  26  28
ENDBRANCH  12  26
ENDBRANCH   5   9
TORSDOF 6
ENDMDL
MODEL 8
REMARK VINA RESULT:      -6.9     13.758     16.006
REMARK  6 active torsions:
REMARK  status: ('A' for Active; 'I' for Inactive)
REMARK    1  A    between atoms: C_5  and  C_10 
REMARK    2  A    between atoms: C_7  and  C_14 
REMARK    3  A    between atoms: C_8  and  N_17 
REMARK    4  A    between atoms: C_14  and  O_15 
REMARK    5  A    between atoms: N_17  and  S_18 
REMARK    6  A    between atoms: S_18  and  C_20 
ROOT
HETATM    1  C   UNK N   1      26.753  22.677  -8.151  0.00  0.00     0.023 A 
HETATM    2  C   UNK N   1      27.021  21.934  -9.294  0.00  0.00     0.044 A 
HETATM    3  C   UNK N   1      28.009  20.946  -9.294  0.00  0.00     0.023 A 
HETATM    4  C   UNK N   1      28.814  20.775  -8.178  0.00  0.00     0.014 A 
HETATM    5  C   UNK N   1      28.631  21.606  -7.089  0.00  0.00    -0.019 A 
HETATM    6  C   UNK N   1      27.568  22.519  -7.051  0.00  0.00     0.014 A 
HETATM    7  C   UNK N   1      26.362  22.280 -10.503  0.00  0.00     0.099 C 
HETATM    8  N   UNK N   1      25.805  22.589 -11.466  0.00  0.00    -0.191 NA
ENDROOT
BRANCH   5   9
HETATM    9  C   UNK N   1      29.715  21.773  -6.167  0.00  0.00     0.018 A 
HETATM   10  C   UNK N   1      30.340  22.979  -6.012  0.00  0.00     0.051 A 
HETATM   11  C   UNK N   1      31.411  22.936  -5.125  0.00  0.00     0.067 A 
HETATM   12  C   UNK N   1      31.662  21.659  -4.590  0.00  0.00     0.106 A 
HETATM   13  S   UNK N   1      30.538  20.649  -5.270  0.00  0.00    -0.081 SA
BRANCH  11  14
HETATM   14  N   UNK N   1      31.760  24.120  -4.489  0.00  0.00    -0.279 N 
HETATM   15  H   UNK N   1      32.648  24.541  -4.555  0.00  0.00     0.179 HD
BRANCH  14  16
HETATM   16  S   UNK N   1      30.423  24.779  -3.553  0.00  0.00     0.263 S 
HETATM   17  O   UNK N   1      30.435  23.928  -2.262  0.00  0.00    -0.200 OA
HETATM   18  O   UNK N   1      31.000  26.070  -2.977  0.00  0.00    -0.200 OA
BRANCH  16  19
HETATM   19  C   UNK N   1      28.703  24.990  -4.087  0.00  0.00     0.085 A 
HETATM   20  C   UNK N   1      28.310  25.831  -5.157  0.00  0.00    -0.039 A 
HETATM   21  C   UNK N   1      26.980  25.843  -5.591  0.00  0.00     0.008 A 
HETATM   22  C   UNK N   1      29.268  26.688  -5.873  0.00  0.00     0.050 C 
HETATM   23  C   UNK N   1      26.034  25.030  -4.972  0.00  0.00     0.001 A 
HETATM   24  C   UNK N   1      26.411  24.214  -3.906  0.00  0.00     0.002 A 
HETATM   25  C   UNK N   1      27.738  24.191  -3.473  0.00  0.00     0.026 A 
ENDBRANCH  16  19
ENDBRANCH  14  16
ENDBRANCH  11  14
BRANCH  12  26
HETATM   26  C   UNK N   1      32.563  21.272  -3.496  0.00  0.00     0.185 C 
HETATM   27  O   UNK N   1      33.601  20.674  -3.728  0.00  0.00    -0.646 OA
BRANCH  26  28
HETATM   28  O   UNK N   1      32.246  21.595  -2.228  0.00  0.00    -0.772 OA
HETATM   29  H   UNK N   1      31.428  21.900  -1.887  0.00  0.00     0.167 HD
ENDBRANCH  26  28
ENDBRANCH  12  26
ENDBRANCH   5   9
TORSDOF 6
ENDMDL
MODEL 9
REMARK VINA RESULT:      -6.9      4.319      6.586
REMARK  6 active torsions:
REMARK  status: ('A' for Active; 'I' for Inactive)
REMARK    1  A    between atoms: C_5  and  C_10 
REMARK    2  A    between atoms: C_7  and  C_14 
REMARK    3  A    between atoms: C_8  and  N_17 
REMARK    4  A    between atoms: C_14  and  O_15 
REMARK    5  A    between atoms: N_17  and  S_18 
REMARK    6  A    between atoms: S_18  and  C_20 
ROOT
HETATM    1  C   UNK N   1      23.757  12.721   9.343  0.00  0.00     0.023 A 
HETATM    2  C   UNK N   1      22.723  12.753  10.272  0.00  0.00     0.044 A 
HETATM    3  C   UNK N   1      21.507  13.374   9.973  0.00  0.00     0.023 A 
HETATM    4  C   UNK N   1      21.361  14.069   8.782  0.00  0.00     0.014 A 
HETATM    5  C   UNK N   1      22.438  14.146   7.918  0.00  0.00    -0.019 A 
HETATM    6  C   UNK N   1      23.615  13.430   8.170  0.00  0.00     0.014 A 
HETATM    7  C   UNK N   1      22.963  12.255  11.579  0.00  0.00     0.099 C 
HETATM    8  N   UNK N   1      23.196  11.838  12.630  0.00  0.00    -0.191 NA
ENDROOT
BRANCH   5   9
HETATM    9  C   UNK N   1      22.473  15.215   6.965  0.00  0.00     0.018 A 
HETATM   10  C   UNK N   1      23.523  15.369   6.103  0.00  0.00     0.051 A 
HETATM   11  C   UNK N   1      23.416  16.498   5.297  0.00  0.00     0.067 A 
HETATM   12  C   UNK N   1      22.271  17.276   5.548  0.00  0.00     0.106 A 
HETATM   13  S   UNK N   1      21.463  16.515   6.779  0.00  0.00    -0.081 SA
BRANCH  11  14
HETATM   14  N   UNK N   1      24.081  16.475   4.078  0.00  0.00    -0.279 N 
HETATM   15  H   UNK N   1      23.658  16.228   3.223  0.00  0.00     0.179 HD
BRANCH  14  16
HETATM   16  S   UNK N   1      25.770  16.942   4.246  0.00  0.00     0.263 S 
HETATM   17  O   UNK N   1      26.420  15.705   4.906  0.00  0.00    -0.200 OA
HETATM   18  O   UNK N   1      26.325  16.762   2.833  0.00  0.00    -0.200 OA
BRANCH  16  19
HETATM   19  C   UNK N   1      26.426  18.432   5.042  0.00  0.00     0.085 A 
HETATM   20  C   UNK N   1      25.953  19.741   4.774  0.00  0.00    -0.039 A 
HETATM   21  C   UNK N   1      26.423  20.826   5.522  0.00  0.00     0.008 A 
HETATM   22  C   UNK N   1      24.941  20.012   3.742  0.00  0.00     0.050 C 
HETATM   23  C   UNK N   1      27.359  20.628   6.533  0.00  0.00     0.001 A 
HETATM   24  C   UNK N   1      27.842  19.345   6.790  0.00  0.00     0.002 A 
HETATM   25  C   UNK N   1      27.373  18.256   6.052  0.00  0.00     0.026 A 
ENDBRANCH  16  19
ENDBRANCH  14  16
ENDBRANCH  11  14
BRANCH  12  26
HETATM   26  C   UNK N   1      21.730  18.405   4.781  0.00  0.00     0.185 C 
HETATM   27  O   UNK N   1      21.830  18.435   3.565  0.00  0.00    -0.646 OA
BRANCH  26  28
HETATM   28  O   UNK N   1      21.104  19.408   5.426  0.00  0.00    -0.772 OA
HETATM   29  H   UNK N   1      20.400  19.948   5.125  0.00  0.00     0.167 HD
ENDBRANCH  26  28
ENDBRANCH  12  26
ENDBRANCH   5   9
TORSDOF 6
ENDMDL
