MODEL 1
REMARK VINA RESULT:      -8.3      0.000      0.000
REMARK  8 active torsions:
REMARK  status: ('A' for Active; 'I' for Inactive)
REMARK    1  A    between atoms: C_3  and  C_8 
REMARK    2  A    between atoms: C_8  and  C_9 
REMARK    3  A    between atoms: C_9  and  N_12 
REMARK    4  A    between atoms: N_12  and  C_13 
REMARK    5  A    between atoms: N_15  and  C_22 
REMARK    6  A    between atoms: C_22  and  C_23 
REMARK       I    between atoms: C_23  and  N_24 
REMARK    7  A    between atoms: N_24  and  C_26 
REMARK    8  A    between atoms: C_26  and  C_27 
ROOT
HETATM    1  C   UNK N   1      36.065  13.874  12.322  0.00  0.00     0.171 A 
HETATM    2  C   UNK N   1      35.253  14.477  11.366  0.00  0.00     0.292 A 
HETATM    3  N   UNK N   1      35.697  14.595  10.049  0.00  0.00    -0.305 N 
HETATM    4  C   UNK N   1      36.910  14.054   9.707  0.00  0.00     0.027 A 
HETATM    5  C   UNK N   1      37.700  13.434  10.678  0.00  0.00     0.114 A 
HETATM    6  N   UNK N   1      37.275  13.377  11.966  0.00  0.00    -0.346 N 
ATOM      7  HN  UNK N   1      37.874  12.954  12.675  1.00  0.00     0.167 HD
HETATM    8  O   UNK N   1      34.169  14.911  11.715  0.00  0.00    -0.264 OA
HETATM    9  C   UNK N   1      37.429  14.121   8.305  0.00  0.00     0.070 C 
ENDROOT
BRANCH   3  10
HETATM   10  C   UNK N   1      34.922  15.282   8.991  0.00  0.00     0.235 C 
BRANCH  10  11
HETATM   11  C   UNK N   1      34.527  16.696   9.313  0.00  0.00     0.236 C 
HETATM   12  N   UNK N   1      33.240  17.086   9.213  0.00  0.00    -0.354 N 
HETATM   13  H   UNK N   1      32.983  17.984   9.521  0.00  0.00     0.162 HD
HETATM   14  O   UNK N   1      35.364  17.485   9.720  0.00  0.00    -0.272 OA
BRANCH  12  15
HETATM   15  C   UNK N   1      32.232  16.216   8.664  0.00  0.00     0.182 C 
BRANCH  15  16
HETATM   16  C   UNK N   1      31.012  17.045   8.543  0.00  0.00     0.066 A 
HETATM   17  C   UNK N   1      30.201  16.926   7.410  0.00  0.00     0.140 A 
HETATM   18  C   UNK N   1      28.999  17.626   7.355  0.00  0.00     0.046 A 
HETATM   19  F   UNK N   1      30.561  16.112   6.384  0.00  0.00    -0.204 F 
HETATM   20  C   UNK N   1      28.623  18.436   8.427  0.00  0.00     0.020 A 
HETATM   21  C   UNK N   1      29.464  18.538   9.539  0.00  0.00     0.088 A 
HETATM   22  N   UNK N   1      30.632  17.843   9.578  0.00  0.00    -0.365 N 
ATOM     23  HN  UNK N   1      31.234  17.921  10.397  1.00  0.00     0.165 HD
ENDBRANCH  15  16
ENDBRANCH  12  15
ENDBRANCH  10  11
ENDBRANCH   3  10
BRANCH   1  24
HETATM   24  N   UNK N   1      35.648  13.864  13.676  0.00  0.00    -0.366 N 
HETATM   25  H   UNK N   1      34.860  14.383  13.959  0.00  0.00     0.161 HD
BRANCH  24  26
HETATM   26  C   UNK N   1      36.393  13.086  14.633  0.00  0.00     0.207 C 
BRANCH  26  27
HETATM   27  C   UNK N   1      35.479  12.046  15.303  0.00  0.00     0.301 C 
HETATM   28  F   UNK N   1      34.197  12.214  14.818  0.00  0.00    -0.197 F 
HETATM   29  F   UNK N   1      35.889  10.765  14.963  0.00  0.00    -0.197 F 
BRANCH  27  30
HETATM   30  C   UNK N   1      35.445  12.196  16.799  0.00  0.00     0.083 A 
HETATM   31  N   UNK N   1      35.575  11.104  17.608  0.00  0.00    -0.364 N 
HETATM   32  C   UNK N   1      35.497  11.205  18.963  0.00  0.00     0.088 A 
ATOM     33  HN  UNK N   1      35.735  10.190  17.185  1.00  0.00     0.165 HD
HETATM   34  C   UNK N   1      35.265  12.446  19.561  0.00  0.00     0.017 A 
HETATM   35  C   UNK N   1      35.126  13.577  18.757  0.00  0.00     0.003 A 
HETATM   36  C   UNK N   1      35.217  13.455  17.371  0.00  0.00     0.031 A 
ENDBRANCH  27  30
ENDBRANCH  26  27
ENDBRANCH  24  26
ENDBRANCH   1  24
TORSDOF 8
ENDMDL
MODEL 2
REMARK VINA RESULT:      -8.1      9.912     13.970
REMARK  8 active torsions:
REMARK  status: ('A' for Active; 'I' for Inactive)
REMARK    1  A    between atoms: C_3  and  C_8 
REMARK    2  A    between atoms: C_8  and  C_9 
REMARK    3  A    between atoms: C_9  and  N_12 
REMARK    4  A    between atoms: N_12  and  C_13 
REMARK    5  A    between atoms: N_15  and  C_22 
REMARK    6  A    between atoms: C_22  and  C_23 
REMARK       I    between atoms: C_23  and  N_24 
REMARK    7  A    between atoms: N_24  and  C_26 
REMARK    8  A    between atoms: C_26  and  C_27 
ROOT
HETATM    1  C   UNK N   1      24.288  19.624   3.819  0.00  0.00     0.171 A 
HETATM    2  C   UNK N   1      23.592  18.597   4.451  0.00  0.00     0.292 A 
HETATM    3  N   UNK N   1      22.216  18.469   4.262  0.00  0.00    -0.305 N 
HETATM    4  C   UNK N   1      21.581  19.327   3.401  0.00  0.00     0.027 A 
HETATM    5  C   UNK N   1      22.302  20.338   2.760  0.00  0.00     0.114 A 
HETATM    6  N   UNK N   1      23.632  20.481   2.998  0.00  0.00    -0.346 N 
ATOM      7  HN  UNK N   1      24.142  21.243   2.554  1.00  0.00     0.167 HD
HETATM    8  O   UNK N   1      24.210  17.841   5.178  0.00  0.00    -0.264 OA
HETATM    9  C   UNK N   1      20.113  19.223   3.134  0.00  0.00     0.070 C 
ENDROOT
BRANCH   3  10
HETATM   10  C   UNK N   1      21.396  17.447   4.950  0.00  0.00     0.235 C 
BRANCH  10  11
HETATM   11  C   UNK N   1      21.191  17.685   6.420  0.00  0.00     0.236 C 
HETATM   12  N   UNK N   1      21.233  16.658   7.292  0.00  0.00    -0.354 N 
HETATM   13  H   UNK N   1      21.195  16.843   8.258  0.00  0.00     0.162 HD
HETATM   14  O   UNK N   1      21.038  18.822   6.837  0.00  0.00    -0.272 OA
BRANCH  12  15
HETATM   15  C   UNK N   1      21.333  15.294   6.842  0.00  0.00     0.182 C 
BRANCH  15  16
HETATM   16  C   UNK N   1      21.811  14.521   8.009  0.00  0.00     0.066 A 
HETATM   17  C   UNK N   1      20.950  14.283   9.086  0.00  0.00     0.140 A 
HETATM   18  C   UNK N   1      21.371  13.462  10.128  0.00  0.00     0.046 A 
HETATM   19  F   UNK N   1      19.701  14.818   9.103  0.00  0.00    -0.204 F 
HETATM   20  C   UNK N   1      22.644  12.893  10.086  0.00  0.00     0.020 A 
HETATM   21  C   UNK N   1      23.481  13.161   8.999  0.00  0.00     0.088 A 
HETATM   22  N   UNK N   1      23.051  13.961   7.987  0.00  0.00    -0.365 N 
ATOM     23  HN  UNK N   1      23.668  14.144   7.196  1.00  0.00     0.165 HD
ENDBRANCH  15  16
ENDBRANCH  12  15
ENDBRANCH  10  11
ENDBRANCH   3  10
BRANCH   1  24
HETATM   24  N   UNK N   1      25.662  19.809   4.109  0.00  0.00    -0.366 N 
HETATM   25  H   UNK N   1      26.352  19.438   3.513  0.00  0.00     0.161 HD
BRANCH  24  26
HETATM   26  C   UNK N   1      26.036  20.548   5.289  0.00  0.00     0.207 C 
BRANCH  26  27
HETATM   27  C   UNK N   1      27.550  20.436   5.531  0.00  0.00     0.301 C 
HETATM   28  F   UNK N   1      28.174  20.233   4.316  0.00  0.00    -0.197 F 
HETATM   29  F   UNK N   1      28.037  21.624   6.056  0.00  0.00    -0.197 F 
BRANCH  27  30
HETATM   30  C   UNK N   1      27.899  19.290   6.442  0.00  0.00     0.083 A 
HETATM   31  N   UNK N   1      27.721  19.399   7.790  0.00  0.00    -0.364 N 
HETATM   32  C   UNK N   1      28.076  18.396   8.641  0.00  0.00     0.088 A 
ATOM     33  HN  UNK N   1      27.311  20.252   8.170  1.00  0.00     0.165 HD
HETATM   34  C   UNK N   1      28.651  17.225   8.143  0.00  0.00     0.017 A 
HETATM   35  C   UNK N   1      28.846  17.091   6.768  0.00  0.00     0.003 A 
HETATM   36  C   UNK N   1      28.469  18.125   5.911  0.00  0.00     0.031 A 
ENDBRANCH  27  30
ENDBRANCH  26  27
ENDBRANCH  24  26
ENDBRANCH   1  24
TORSDOF 8
ENDMDL
MODEL 3
REMARK VINA RESULT:      -8.0      9.399     13.396
REMARK  8 active torsions:
REMARK  status: ('A' for Active; 'I' for Inactive)
REMARK    1  A    between atoms: C_3  and  C_8 
REMARK    2  A    between atoms: C_8  and  C_9 
REMARK    3  A    between atoms: C_9  and  N_12 
REMARK    4  A    between atoms: N_12  and  C_13 
REMARK    5  A    between atoms: N_15  and  C_22 
REMARK    6  A    between atoms: C_22  and  C_23 
REMARK       I    between atoms: C_23  and  N_24 
REMARK    7  A    between atoms: N_24  and  C_26 
REMARK    8  A    between atoms: C_26  and  C_27 
ROOT
HETATM    1  C   UNK N   1      24.149  16.635   5.324  0.00  0.00     0.171 A 
HETATM    2  C   UNK N   1      23.259  15.928   6.127  0.00  0.00     0.292 A 
HETATM    3  N   UNK N   1      21.887  16.007   5.883  0.00  0.00    -0.305 N 
HETATM    4  C   UNK N   1      21.445  16.736   4.810  0.00  0.00     0.027 A 
HETATM    5  C   UNK N   1      22.358  17.421   4.003  0.00  0.00     0.114 A 
HETATM    6  N   UNK N   1      23.685  17.377   4.289  0.00  0.00    -0.346 N 
ATOM      7  HN  UNK N   1      24.340  17.908   3.716  1.00  0.00     0.167 HD
HETATM    8  O   UNK N   1      23.706  15.268   7.048  0.00  0.00    -0.264 OA
HETATM    9  C   UNK N   1      19.990  16.836   4.477  0.00  0.00     0.070 C 
ENDROOT
BRANCH   3  10
HETATM   10  C   UNK N   1      20.874  15.340   6.731  0.00  0.00     0.235 C 
BRANCH  10  11
HETATM   11  C   UNK N   1      20.838  15.807   8.160  0.00  0.00     0.236 C 
HETATM   12  N   UNK N   1      21.064  14.941   9.168  0.00  0.00    -0.354 N 
HETATM   13  H   UNK N   1      21.134  15.282  10.089  0.00  0.00     0.162 HD
HETATM   14  O   UNK N   1      20.658  16.988   8.410  0.00  0.00    -0.272 OA
BRANCH  12  15
HETATM   15  C   UNK N   1      21.204  13.529   8.929  0.00  0.00     0.182 C 
BRANCH  15  16
HETATM   16  C   UNK N   1      22.354  13.096   9.752  0.00  0.00     0.066 A 
HETATM   17  C   UNK N   1      22.133  12.401  10.946  0.00  0.00     0.140 A 
HETATM   18  C   UNK N   1      23.221  11.901  11.656  0.00  0.00     0.046 A 
HETATM   19  F   UNK N   1      20.870  12.185  11.395  0.00  0.00    -0.204 F 
HETATM   20  C   UNK N   1      24.513  12.102  11.170  0.00  0.00     0.020 A 
HETATM   21  C   UNK N   1      24.697  12.809   9.978  0.00  0.00     0.088 A 
HETATM   22  N   UNK N   1      23.622  13.286   9.295  0.00  0.00    -0.365 N 
ATOM     23  HN  UNK N   1      23.768  13.795   8.423  1.00  0.00     0.165 HD
ENDBRANCH  15  16
ENDBRANCH  12  15
ENDBRANCH  10  11
ENDBRANCH   3  10
BRANCH   1  24
HETATM   24  N   UNK N   1      25.527  16.635   5.654  0.00  0.00    -0.366 N 
HETATM   25  H   UNK N   1      25.834  16.261   6.512  0.00  0.00     0.161 HD
BRANCH  24  26
HETATM   26  C   UNK N   1      26.472  17.191   4.720  0.00  0.00     0.207 C 
BRANCH  26  27
HETATM   27  C   UNK N   1      27.083  18.486   5.283  0.00  0.00     0.301 C 
HETATM   28  F   UNK N   1      27.849  19.073   4.295  0.00  0.00    -0.197 F 
HETATM   29  F   UNK N   1      26.077  19.380   5.617  0.00  0.00    -0.197 F 
BRANCH  27  30
HETATM   30  C   UNK N   1      27.962  18.229   6.477  0.00  0.00     0.083 A 
HETATM   31  N   UNK N   1      27.622  18.718   7.704  0.00  0.00    -0.364 N 
HETATM   32  C   UNK N   1      28.425  18.544   8.790  0.00  0.00     0.088 A 
ATOM     33  HN  UNK N   1      26.745  19.227   7.810  1.00  0.00     0.165 HD
HETATM   34  C   UNK N   1      29.637  17.862   8.664  0.00  0.00     0.017 A 
HETATM   35  C   UNK N   1      30.008  17.354   7.419  0.00  0.00     0.003 A 
HETATM   36  C   UNK N   1      29.169  17.535   6.319  0.00  0.00     0.031 A 
ENDBRANCH  27  30
ENDBRANCH  26  27
ENDBRANCH  24  26
ENDBRANCH   1  24
TORSDOF 8
ENDMDL
MODEL 4
REMARK VINA RESULT:      -7.9      1.903      2.417
REMARK  8 active torsions:
REMARK  status: ('A' for Active; 'I' for Inactive)
REMARK    1  A    between atoms: C_3  and  C_8 
REMARK    2  A    between atoms: C_8  and  C_9 
REMARK    3  A    between atoms: C_9  and  N_12 
REMARK    4  A    between atoms: N_12  and  C_13 
REMARK    5  A    between atoms: N_15  and  C_22 
REMARK    6  A    between atoms: C_22  and  C_23 
REMARK       I    between atoms: C_23  and  N_24 
REMARK    7  A    between atoms: N_24  and  C_26 
REMARK    8  A    between atoms: C_26  and  C_27 
ROOT
HETATM    1  C   UNK N   1      34.840  14.466  11.059  0.00  0.00     0.171 A 
HETATM    2  C   UNK N   1      35.014  15.532  10.181  0.00  0.00     0.292 A 
HETATM    3  N   UNK N   1      34.601  15.416   8.854  0.00  0.00    -0.305 N 
HETATM    4  C   UNK N   1      33.971  14.266   8.453  0.00  0.00     0.027 A 
HETATM    5  C   UNK N   1      33.787  13.215   9.355  0.00  0.00     0.114 A 
HETATM    6  N   UNK N   1      34.244  13.326  10.630  0.00  0.00    -0.346 N 
ATOM      7  HN  UNK N   1      34.137  12.541  11.272  1.00  0.00     0.167 HD
HETATM    8  O   UNK N   1      35.548  16.544  10.597  0.00  0.00    -0.264 OA
HETATM    9  C   UNK N   1      33.479  14.091   7.050  0.00  0.00     0.070 C 
ENDROOT
BRANCH   3  10
HETATM   10  C   UNK N   1      34.812  16.477   7.844  0.00  0.00     0.235 C 
BRANCH  10  11
HETATM   11  C   UNK N   1      34.297  17.834   8.236  0.00  0.00     0.236 C 
HETATM   12  N   UNK N   1      32.977  18.105   8.187  0.00  0.00    -0.354 N 
HETATM   13  H   UNK N   1      32.648  18.963   8.540  0.00  0.00     0.162 HD
HETATM   14  O   UNK N   1      35.070  18.682   8.653  0.00  0.00    -0.272 OA
BRANCH  12  15
HETATM   15  C   UNK N   1      32.037  17.167   7.631  0.00  0.00     0.182 C 
BRANCH  15  16
HETATM   16  C   UNK N   1      30.709  17.593   8.122  0.00  0.00     0.066 A 
HETATM   17  C   UNK N   1      29.639  17.702   7.227  0.00  0.00     0.140 A 
HETATM   18  C   UNK N   1      28.368  17.995   7.715  0.00  0.00     0.046 A 
HETATM   19  F   UNK N   1      29.825  17.492   5.899  0.00  0.00    -0.204 F 
HETATM   20  C   UNK N   1      28.182  18.178   9.086  0.00  0.00     0.020 A 
HETATM   21  C   UNK N   1      29.276  18.072   9.949  0.00  0.00     0.088 A 
HETATM   22  N   UNK N   1      30.508  17.780   9.456  0.00  0.00    -0.365 N 
ATOM     23  HN  UNK N   1      31.298  17.699  10.096  1.00  0.00     0.165 HD
ENDBRANCH  15  16
ENDBRANCH  12  15
ENDBRANCH  10  11
ENDBRANCH   3  10
BRANCH   1  24
HETATM   24  N   UNK N   1      35.365  14.558  12.371  0.00  0.00    -0.366 N 
HETATM   25  H   UNK N   1      34.926  15.125  13.046  0.00  0.00     0.161 HD
BRANCH  24  26
HETATM   26  C   UNK N   1      36.552  13.812  12.705  0.00  0.00     0.207 C 
BRANCH  26  27
HETATM   27  C   UNK N   1      36.327  12.995  13.989  0.00  0.00     0.301 C 
HETATM   28  F   UNK N   1      35.073  12.418  13.926  0.00  0.00    -0.197 F 
HETATM   29  F   UNK N   1      37.254  11.967  14.067  0.00  0.00    -0.197 F 
BRANCH  27  30
HETATM   30  C   UNK N   1      36.396  13.847  15.227  0.00  0.00     0.083 A 
HETATM   31  N   UNK N   1      37.239  14.919  15.283  0.00  0.00    -0.364 N 
HETATM   32  C   UNK N   1      37.358  15.675  16.408  0.00  0.00     0.088 A 
ATOM     33  HN  UNK N   1      37.792  15.159  14.460  1.00  0.00     0.165 HD
HETATM   34  C   UNK N   1      36.619  15.357  17.549  0.00  0.00     0.017 A 
HETATM   35  C   UNK N   1      35.752  14.264  17.518  0.00  0.00     0.003 A 
HETATM   36  C   UNK N   1      35.637  13.505  16.354  0.00  0.00     0.031 A 
ENDBRANCH  27  30
ENDBRANCH  26  27
ENDBRANCH  24  26
ENDBRANCH   1  24
TORSDOF 8
ENDMDL
MODEL 5
REMARK VINA RESULT:      -7.8      1.600      2.604
REMARK  8 active torsions:
REMARK  status: ('A' for Active; 'I' for Inactive)
REMARK    1  A    between atoms: C_3  and  C_8 
REMARK    2  A    between atoms: C_8  and  C_9 
REMARK    3  A    between atoms: C_9  and  N_12 
REMARK    4  A    between atoms: N_12  and  C_13 
REMARK    5  A    between atoms: N_15  and  C_22 
REMARK    6  A    between atoms: C_22  and  C_23 
REMARK       I    between atoms: C_23  and  N_24 
REMARK    7  A    between atoms: N_24  and  C_26 
REMARK    8  A    between atoms: C_26  and  C_27 
ROOT
HETATM    1  C   UNK N   1      36.338  14.023  12.407  0.00  0.00     0.171 A 
HETATM    2  C   UNK N   1      35.355  14.530  11.561  0.00  0.00     0.292 A 
HETATM    3  N   UNK N   1      35.564  14.547  10.181  0.00  0.00    -0.305 N 
HETATM    4  C   UNK N   1      36.718  14.003   9.679  0.00  0.00     0.027 A 
HETATM    5  C   UNK N   1      37.683  13.480  10.544  0.00  0.00     0.114 A 
HETATM    6  N   UNK N   1      37.485  13.521  11.887  0.00  0.00    -0.346 N 
ATOM      7  HN  UNK N   1      38.209  13.170  12.513  1.00  0.00     0.167 HD
HETATM    8  O   UNK N   1      34.333  14.970  12.056  0.00  0.00    -0.264 OA
HETATM    9  C   UNK N   1      36.989  13.964   8.207  0.00  0.00     0.070 C 
ENDROOT
BRANCH   3  10
HETATM   10  C   UNK N   1      34.599  15.129   9.223  0.00  0.00     0.235 C 
BRANCH  10  11
HETATM   11  C   UNK N   1      34.408  16.615   9.341  0.00  0.00     0.236 C 
HETATM   12  N   UNK N   1      33.253  17.189   8.947  0.00  0.00    -0.354 N 
HETATM   13  H   UNK N   1      33.107  18.147   9.122  0.00  0.00     0.162 HD
HETATM   14  O   UNK N   1      35.280  17.303   9.846  0.00  0.00    -0.272 OA
BRANCH  12  15
HETATM   15  C   UNK N   1      32.228  16.433   8.276  0.00  0.00     0.182 C 
BRANCH  15  16
HETATM   16  C   UNK N   1      30.998  17.249   8.378  0.00  0.00     0.066 A 
HETATM   17  C   UNK N   1      30.136  17.347   7.281  0.00  0.00     0.140 A 
HETATM   18  C   UNK N   1      28.927  18.024   7.421  0.00  0.00     0.046 A 
HETATM   19  F   UNK N   1      30.455  16.763   6.097  0.00  0.00    -0.204 F 
HETATM   20  C   UNK N   1      28.595  18.594   8.650  0.00  0.00     0.020 A 
HETATM   21  C   UNK N   1      29.485  18.484   9.722  0.00  0.00     0.088 A 
HETATM   22  N   UNK N   1      30.659  17.815   9.569  0.00  0.00    -0.365 N 
ATOM     23  HN  UNK N   1      31.298  17.736  10.360  1.00  0.00     0.165 HD
ENDBRANCH  15  16
ENDBRANCH  12  15
ENDBRANCH  10  11
ENDBRANCH   3  10
BRANCH   1  24
HETATM   24  N   UNK N   1      36.158  14.117  13.808  0.00  0.00    -0.366 N 
HETATM   25  H   UNK N   1      35.583  14.819  14.192  0.00  0.00     0.161 HD
BRANCH  24  26
HETATM   26  C   UNK N   1      36.828  13.173  14.666  0.00  0.00     0.207 C 
BRANCH  26  27
HETATM   27  C   UNK N   1      35.813  12.188  15.272  0.00  0.00     0.301 C 
HETATM   28  F   UNK N   1      36.385  11.601  16.384  0.00  0.00    -0.197 F 
HETATM   29  F   UNK N   1      34.683  12.870  15.695  0.00  0.00    -0.197 F 
BRANCH  27  30
HETATM   30  C   UNK N   1      35.428  11.100  14.306  0.00  0.00     0.083 A 
HETATM   31  N   UNK N   1      36.341  10.165  13.917  0.00  0.00    -0.364 N 
HETATM   32  C   UNK N   1      36.033   9.201  13.006  0.00  0.00     0.088 A 
ATOM     33  HN  UNK N   1      37.278  10.188  14.319  1.00  0.00     0.165 HD
HETATM   34  C   UNK N   1      34.759   9.159  12.434  0.00  0.00     0.017 A 
HETATM   35  C   UNK N   1      33.808  10.106  12.813  0.00  0.00     0.003 A 
HETATM   36  C   UNK N   1      34.140  11.081  13.754  0.00  0.00     0.031 A 
ENDBRANCH  27  30
ENDBRANCH  26  27
ENDBRANCH  24  26
ENDBRANCH   1  24
TORSDOF 8
ENDMDL
MODEL 6
REMARK VINA RESULT:      -7.7     10.306     14.048
REMARK  8 active torsions:
REMARK  status: ('A' for Active; 'I' for Inactive)
REMARK    1  A    between atoms: C_3  and  C_8 
REMARK    2  A    between atoms: C_8  and  C_9 
REMARK    3  A    between atoms: C_9  and  N_12 
REMARK    4  A    between atoms: N_12  and  C_13 
REMARK    5  A    between atoms: N_15  and  C_22 
REMARK    6  A    between atoms: C_22  and  C_23 
REMARK       I    between atoms: C_23  and  N_24 
REMARK    7  A    between atoms: N_24  and  C_26 
REMARK    8  A    between atoms: C_26  and  C_27 
ROOT
HETATM    1  C   UNK N   1      23.749  16.306   5.066  0.00  0.00     0.171 A 
HETATM    2  C   UNK N   1      22.959  15.652   6.007  0.00  0.00     0.292 A 
HETATM    3  N   UNK N   1      21.569  15.736   5.931  0.00  0.00    -0.305 N 
HETATM    4  C   UNK N   1      21.003  16.417   4.884  0.00  0.00     0.027 A 
HETATM    5  C   UNK N   1      21.813  17.049   3.937  0.00  0.00     0.114 A 
HETATM    6  N   UNK N   1      23.165  17.002   4.059  0.00  0.00    -0.346 N 
ATOM      7  HN  UNK N   1      23.748  17.495   3.384  1.00  0.00     0.167 HD
HETATM    8  O   UNK N   1      23.512  15.032   6.898  0.00  0.00    -0.264 OA
HETATM    9  C   UNK N   1      19.518  16.520   4.728  0.00  0.00     0.070 C 
ENDROOT
BRANCH   3  10
HETATM   10  C   UNK N   1      20.664  15.126   6.930  0.00  0.00     0.235 C 
BRANCH  10  11
HETATM   11  C   UNK N   1      20.736  15.733   8.303  0.00  0.00     0.236 C 
HETATM   12  N   UNK N   1      20.951  14.955   9.384  0.00  0.00    -0.354 N 
HETATM   13  H   UNK N   1      21.095  15.378  10.261  0.00  0.00     0.162 HD
HETATM   14  O   UNK N   1      20.655  16.943   8.440  0.00  0.00    -0.272 OA
BRANCH  12  15
HETATM   15  C   UNK N   1      20.977  13.519   9.283  0.00  0.00     0.182 C 
BRANCH  15  16
HETATM   16  C   UNK N   1      22.239  13.095   9.926  0.00  0.00     0.066 A 
HETATM   17  C   UNK N   1      22.202  12.382  11.129  0.00  0.00     0.140 A 
HETATM   18  C   UNK N   1      23.387  11.891  11.669  0.00  0.00     0.046 A 
HETATM   19  F   UNK N   1      21.019  12.139  11.752  0.00  0.00    -0.204 F 
HETATM   20  C   UNK N   1      24.593  12.120  11.006  0.00  0.00     0.020 A 
HETATM   21  C   UNK N   1      24.594  12.845   9.811  0.00  0.00     0.088 A 
HETATM   22  N   UNK N   1      23.426  13.313   9.296  0.00  0.00    -0.365 N 
ATOM     23  HN  UNK N   1      23.438  13.835   8.420  1.00  0.00     0.165 HD
ENDBRANCH  15  16
ENDBRANCH  12  15
ENDBRANCH  10  11
ENDBRANCH   3  10
BRANCH   1  24
HETATM   24  N   UNK N   1      25.156  16.305   5.224  0.00  0.00    -0.366 N 
HETATM   25  H   UNK N   1      25.561  16.075   6.092  0.00  0.00     0.161 HD
BRANCH  24  26
HETATM   26  C   UNK N   1      25.988  16.644   4.098  0.00  0.00     0.207 C 
BRANCH  26  27
HETATM   27  C   UNK N   1      27.371  17.118   4.578  0.00  0.00     0.301 C 
HETATM   28  F   UNK N   1      27.837  16.223   5.520  0.00  0.00    -0.197 F 
HETATM   29  F   UNK N   1      28.268  17.115   3.520  0.00  0.00    -0.197 F 
BRANCH  27  30
HETATM   30  C   UNK N   1      27.319  18.485   5.205  0.00  0.00     0.083 A 
HETATM   31  N   UNK N   1      27.849  18.698   6.444  0.00  0.00    -0.364 N 
HETATM   32  C   UNK N   1      27.771  19.911   7.056  0.00  0.00     0.088 A 
ATOM     33  HN  UNK N   1      28.316  17.927   6.924  1.00  0.00     0.165 HD
HETATM   34  C   UNK N   1      27.124  20.975   6.423  0.00  0.00     0.017 A 
HETATM   35  C   UNK N   1      26.572  20.782   5.157  0.00  0.00     0.003 A 
HETATM   36  C   UNK N   1      26.669  19.534   4.542  0.00  0.00     0.031 A 
ENDBRANCH  27  30
ENDBRANCH  26  27
ENDBRANCH  24  26
ENDBRANCH   1  24
TORSDOF 8
ENDMDL
MODEL 7
REMARK VINA RESULT:      -7.7      8.201     12.891
REMARK  8 active torsions:
REMARK  status: ('A' for Active; 'I' for Inactive)
REMARK    1  A    between atoms: C_3  and  C_8 
REMARK    2  A    between atoms: C_8  and  C_9 
REMARK    3  A    between atoms: C_9  and  N_12 
REMARK    4  A    between atoms: N_12  and  C_13 
REMARK    5  A    between atoms: N_15  and  C_22 
REMARK    6  A    between atoms: C_22  and  C_23 
REMARK       I    between atoms: C_23  and  N_24 
REMARK    7  A    between atoms: N_24  and  C_26 
REMARK    8  A    between atoms: C_26  and  C_27 
ROOT
HETATM    1  C   UNK N   1      25.049  17.574   5.091  0.00  0.00     0.171 A 
HETATM    2  C   UNK N   1      23.821  17.039   5.470  0.00  0.00     0.292 A 
HETATM    3  N   UNK N   1      22.637  17.635   5.037  0.00  0.00    -0.305 N 
HETATM    4  C   UNK N   1      22.708  18.710   4.188  0.00  0.00     0.027 A 
HETATM    5  C   UNK N   1      23.951  19.219   3.802  0.00  0.00     0.114 A 
HETATM    6  N   UNK N   1      25.093  18.658   4.278  0.00  0.00    -0.346 N 
ATOM      7  HN  UNK N   1      25.994  19.058   4.019  1.00  0.00     0.167 HD
HETATM    8  O   UNK N   1      23.814  16.062   6.198  0.00  0.00    -0.264 OA
HETATM    9  C   UNK N   1      21.474  19.376   3.664  0.00  0.00     0.070 C 
ENDROOT
BRANCH   3  10
HETATM   10  C   UNK N   1      21.295  17.168   5.450  0.00  0.00     0.235 C 
BRANCH  10  11
HETATM   11  C   UNK N   1      20.889  17.562   6.843  0.00  0.00     0.236 C 
HETATM   12  N   UNK N   1      20.526  16.624   7.741  0.00  0.00    -0.354 N 
HETATM   13  H   UNK N   1      20.359  16.889   8.674  0.00  0.00     0.162 HD
HETATM   14  O   UNK N   1      20.939  18.733   7.183  0.00  0.00    -0.272 OA
BRANCH  12  15
HETATM   15  C   UNK N   1      20.378  15.242   7.365  0.00  0.00     0.182 C 
BRANCH  15  16
HETATM   16  C   UNK N   1      21.220  14.478   8.312  0.00  0.00     0.066 A 
HETATM   17  C   UNK N   1      20.682  14.047   9.530  0.00  0.00     0.140 A 
HETATM   18  C   UNK N   1      21.446  13.235  10.364  0.00  0.00     0.046 A 
HETATM   19  F   UNK N   1      19.416  14.388   9.885  0.00  0.00    -0.204 F 
HETATM   20  C   UNK N   1      22.734  12.866   9.975  0.00  0.00     0.020 A 
HETATM   21  C   UNK N   1      23.242  13.323   8.756  0.00  0.00     0.088 A 
HETATM   22  N   UNK N   1      22.480  14.111   7.952  0.00  0.00    -0.365 N 
ATOM     23  HN  UNK N   1      22.859  14.434   7.061  1.00  0.00     0.165 HD
ENDBRANCH  15  16
ENDBRANCH  12  15
ENDBRANCH  10  11
ENDBRANCH   3  10
BRANCH   1  24
HETATM   24  N   UNK N   1      26.238  17.026   5.631  0.00  0.00    -0.366 N 
HETATM   25  H   UNK N   1      26.282  16.073   5.877  0.00  0.00     0.161 HD
BRANCH  24  26
HETATM   26  C   UNK N   1      27.383  17.881   5.816  0.00  0.00     0.207 C 
BRANCH  26  27
HETATM   27  C   UNK N   1      27.977  17.682   7.221  0.00  0.00     0.301 C 
HETATM   28  F   UNK N   1      27.701  18.805   7.975  0.00  0.00    -0.197 F 
HETATM   29  F   UNK N   1      27.371  16.601   7.845  0.00  0.00    -0.197 F 
BRANCH  27  30
HETATM   30  C   UNK N   1      29.468  17.486   7.187  0.00  0.00     0.083 A 
HETATM   31  N   UNK N   1      30.225  17.740   8.294  0.00  0.00    -0.364 N 
HETATM   32  C   UNK N   1      31.581  17.621   8.276  0.00  0.00     0.088 A 
ATOM     33  HN  UNK N   1      29.762  18.027   9.157  1.00  0.00     0.165 HD
HETATM   34  C   UNK N   1      32.236  17.243   7.102  0.00  0.00     0.017 A 
HETATM   35  C   UNK N   1      31.485  16.980   5.956  0.00  0.00     0.003 A 
HETATM   36  C   UNK N   1      30.096  17.100   5.995  0.00  0.00     0.031 A 
ENDBRANCH  27  30
ENDBRANCH  26  27
ENDBRANCH  24  26
ENDBRANCH   1  24
TORSDOF 8
ENDMDL
MODEL 8
REMARK VINA RESULT:      -7.5      2.047      2.525
REMARK  8 active torsions:
REMARK  status: ('A' for Active; 'I' for Inactive)
REMARK    1  A    between atoms: C_3  and  C_8 
REMARK    2  A    between atoms: C_8  and  C_9 
REMARK    3  A    between atoms: C_9  and  N_12 
REMARK    4  A    between atoms: N_12  and  C_13 
REMARK    5  A    between atoms: N_15  and  C_22 
REMARK    6  A    between atoms: C_22  and  C_23 
REMARK       I    between atoms: C_23  and  N_24 
REMARK    7  A    between atoms: N_24  and  C_26 
REMARK    8  A    between atoms: C_26  and  C_27 
ROOT
HETATM    1  C   UNK N   1      35.514  13.454  11.805  0.00  0.00     0.171 A 
HETATM    2  C   UNK N   1      35.040  13.347  10.501  0.00  0.00     0.292 A 
HETATM    3  N   UNK N   1      34.760  14.497   9.764  0.00  0.00    -0.305 N 
HETATM    4  C   UNK N   1      35.018  15.723  10.324  0.00  0.00     0.027 A 
HETATM    5  C   UNK N   1      35.514  15.808  11.627  0.00  0.00     0.114 A 
HETATM    6  N   UNK N   1      35.729  14.678  12.349  0.00  0.00    -0.346 N 
ATOM      7  HN  UNK N   1      36.057  14.751  13.311  1.00  0.00     0.167 HD
HETATM    8  O   UNK N   1      34.860  12.234  10.039  0.00  0.00    -0.264 OA
HETATM    9  C   UNK N   1      34.767  16.994   9.575  0.00  0.00     0.070 C 
ENDROOT
BRANCH   3  10
HETATM   10  C   UNK N   1      34.191  14.467   8.398  0.00  0.00     0.235 C 
BRANCH  10  11
HETATM   11  C   UNK N   1      32.726  14.139   8.330  0.00  0.00     0.236 C 
HETATM   12  N   UNK N   1      31.849  15.027   7.819  0.00  0.00    -0.354 N 
HETATM   13  H   UNK N   1      30.911  14.759   7.691  0.00  0.00     0.162 HD
HETATM   14  O   UNK N   1      32.330  13.041   8.689  0.00  0.00    -0.272 OA
BRANCH  12  15
HETATM   15  C   UNK N   1      32.255  16.360   7.456  0.00  0.00     0.182 C 
BRANCH  15  16
HETATM   16  C   UNK N   1      31.118  17.235   7.814  0.00  0.00     0.066 A 
HETATM   17  C   UNK N   1      30.010  17.320   6.963  0.00  0.00     0.140 A 
HETATM   18  C   UNK N   1      28.899  18.058   7.361  0.00  0.00     0.046 A 
HETATM   19  F   UNK N   1      30.001  16.663   5.774  0.00  0.00    -0.204 F 
HETATM   20  C   UNK N   1      28.907  18.703   8.598  0.00  0.00     0.020 A 
HETATM   21  C   UNK N   1      30.034  18.605   9.418  0.00  0.00     0.088 A 
HETATM   22  N   UNK N   1      31.109  17.875   9.016  0.00  0.00    -0.365 N 
ATOM     23  HN  UNK N   1      31.924  17.805   9.625  1.00  0.00     0.165 HD
ENDBRANCH  15  16
ENDBRANCH  12  15
ENDBRANCH  10  11
ENDBRANCH   3  10
BRANCH   1  24
HETATM   24  N   UNK N   1      35.685  12.279  12.578  0.00  0.00    -0.366 N 
HETATM   25  H   UNK N   1      36.122  11.486  12.190  0.00  0.00     0.161 HD
BRANCH  24  26
HETATM   26  C   UNK N   1      35.210  12.258  13.938  0.00  0.00     0.207 C 
BRANCH  26  27
HETATM   27  C   UNK N   1      36.396  12.244  14.918  0.00  0.00     0.301 C 
HETATM   28  F   UNK N   1      36.292  11.118  15.712  0.00  0.00    -0.197 F 
HETATM   29  F   UNK N   1      37.590  12.151  14.218  0.00  0.00    -0.197 F 
BRANCH  27  30
HETATM   30  C   UNK N   1      36.414  13.455  15.810  0.00  0.00     0.083 A 
HETATM   31  N   UNK N   1      37.254  14.496  15.546  0.00  0.00    -0.364 N 
HETATM   32  C   UNK N   1      37.327  15.581  16.365  0.00  0.00     0.088 A 
ATOM     33  HN  UNK N   1      37.842  14.461  14.713  1.00  0.00     0.165 HD
HETATM   34  C   UNK N   1      36.540  15.644  17.517  0.00  0.00     0.017 A 
HETATM   35  C   UNK N   1      35.674  14.591  17.811  0.00  0.00     0.003 A 
HETATM   36  C   UNK N   1      35.607  13.491  16.956  0.00  0.00     0.031 A 
ENDBRANCH  27  30
ENDBRANCH  26  27
ENDBRANCH  24  26
ENDBRANCH   1  24
TORSDOF 8
ENDMDL
MODEL 9
REMARK VINA RESULT:      -7.5      2.374      9.979
REMARK  8 active torsions:
REMARK  status: ('A' for Active; 'I' for Inactive)
REMARK    1  A    between atoms: C_3  and  C_8 
REMARK    2  A    between atoms: C_8  and  C_9 
REMARK    3  A    between atoms: C_9  and  N_12 
REMARK    4  A    between atoms: N_12  and  C_13 
REMARK    5  A    between atoms: N_15  and  C_22 
REMARK    6  A    between atoms: C_22  and  C_23 
REMARK       I    between atoms: C_23  and  N_24 
REMARK    7  A    between atoms: N_24  and  C_26 
REMARK    8  A    between atoms: C_26  and  C_27 
ROOT
HETATM    1  C   UNK N   1      33.677  16.657   6.619  0.00  0.00     0.171 A 
HETATM    2  C   UNK N   1      33.718  16.474   7.998  0.00  0.00     0.292 A 
HETATM    3  N   UNK N   1      34.575  15.521   8.549  0.00  0.00    -0.305 N 
HETATM    4  C   UNK N   1      35.411  14.821   7.718  0.00  0.00     0.027 A 
HETATM    5  C   UNK N   1      35.369  15.036   6.337  0.00  0.00     0.114 A 
HETATM    6  N   UNK N   1      34.490  15.929   5.815  0.00  0.00    -0.346 N 
ATOM      7  HN  UNK N   1      34.441  16.053   4.804  1.00  0.00     0.167 HD
HETATM    8  O   UNK N   1      32.979  17.146   8.695  0.00  0.00    -0.264 OA
HETATM    9  C   UNK N   1      36.374  13.806   8.249  0.00  0.00     0.070 C 
ENDROOT
BRANCH   3  10
HETATM   10  C   UNK N   1      34.628  15.220   9.997  0.00  0.00     0.235 C 
BRANCH  10  11
HETATM   11  C   UNK N   1      35.626  16.031  10.776  0.00  0.00     0.236 C 
HETATM   12  N   UNK N   1      36.460  15.433  11.650  0.00  0.00    -0.354 N 
HETATM   13  H   UNK N   1      37.172  15.962  12.077  0.00  0.00     0.162 HD
HETATM   14  O   UNK N   1      35.722  17.232  10.578  0.00  0.00    -0.272 OA
BRANCH  12  15
HETATM   15  C   UNK N   1      36.334  14.036  11.974  0.00  0.00     0.182 C 
BRANCH  15  16
HETATM   16  C   UNK N   1      36.191  13.978  13.445  0.00  0.00     0.066 A 
HETATM   17  C   UNK N   1      35.318  13.049  14.022  0.00  0.00     0.140 A 
HETATM   18  C   UNK N   1      35.273  12.925  15.408  0.00  0.00     0.046 A 
HETATM   19  F   UNK N   1      34.545  12.250  13.243  0.00  0.00    -0.204 F 
HETATM   20  C   UNK N   1      36.094  13.729  16.199  0.00  0.00     0.020 A 
HETATM   21  C   UNK N   1      36.947  14.653  15.588  0.00  0.00     0.088 A 
HETATM   22  N   UNK N   1      36.981  14.757  14.233  0.00  0.00    -0.365 N 
ATOM     23  HN  UNK N   1      37.612  15.430  13.797  1.00  0.00     0.165 HD
ENDBRANCH  15  16
ENDBRANCH  12  15
ENDBRANCH  10  11
ENDBRANCH   3  10
BRANCH   1  24
HETATM   24  N   UNK N   1      32.722  17.547   6.068  0.00  0.00    -0.366 N 
HETATM   25  H   UNK N   1      32.807  18.518   6.208  0.00  0.00     0.161 HD
BRANCH  24  26
HETATM   26  C   UNK N   1      31.626  17.012   5.302  0.00  0.00     0.207 C 
BRANCH  26  27
HETATM   27  C   UNK N   1      30.353  16.946   6.164  0.00  0.00     0.301 C 
HETATM   28  F   UNK N   1      30.206  15.653   6.626  0.00  0.00    -0.197 F 
HETATM   29  F   UNK N   1      30.485  17.772   7.270  0.00  0.00    -0.197 F 
BRANCH  27  30
HETATM   30  C   UNK N   1      29.119  17.317   5.388  0.00  0.00     0.083 A 
HETATM   31  N   UNK N   1      28.239  18.233   5.884  0.00  0.00    -0.364 N 
HETATM   32  C   UNK N   1      27.089  18.549   5.227  0.00  0.00     0.088 A 
ATOM     33  HN  UNK N   1      28.448  18.694   6.770  1.00  0.00     0.165 HD
HETATM   34  C   UNK N   1      26.777  17.921   4.019  0.00  0.00     0.017 A 
HETATM   35  C   UNK N   1      27.659  16.978   3.492  0.00  0.00     0.003 A 
HETATM   36  C   UNK N   1      28.836  16.673   4.175  0.00  0.00     0.031 A 
ENDBRANCH  27  30
ENDBRANCH  26  27
ENDBRANCH  24  26
ENDBRANCH   1  24
TORSDOF 8
ENDMDL
