REMARK  8 active torsions:
REMARK  status: ('A' for Active; 'I' for Inactive)
REMARK    1  A    between atoms: C_2  and  C_7 
REMARK    2  A    between atoms: C_7  and  C_8 
REMARK    3  A    between atoms: C_8  and  N_11 
REMARK    4  A    between atoms: N_11  and  C_12 
REMARK    5  A    between atoms: N_14  and  C_20 
REMARK    6  A    between atoms: C_20  and  C_21 
REMARK       I    between atoms: C_21  and  N_22 
REMARK    7  A    between atoms: N_22  and  C_24 
REMARK    8  A    between atoms: C_24  and  C_25 
ROOT
HETATM    1  C   UNK N   1      -3.227  -0.592  -0.664  0.00  0.00     0.171 A 
HETATM    2  C   UNK N   1      -1.843  -0.845  -0.577  0.00  0.00     0.292 A 
HETATM    3  N   UNK N   1      -1.400  -2.049  -0.051  0.00  0.00    -0.305 N 
HETATM    4  C   UNK N   1      -2.308  -2.991   0.356  0.00  0.00     0.027 A 
HETATM    5  C   UNK N   1      -3.671  -2.739   0.234  0.00  0.00     0.114 A 
HETATM    6  N   UNK N   1      -4.098  -1.556  -0.268  0.00  0.00    -0.346 N 
HETATM    7  O   UNK N   1      -1.040  -0.010  -0.962  0.00  0.00    -0.264 OA
HETATM    8  C   UNK N   1      -1.872  -4.304   0.923  0.00  0.00     0.070 C 
HETATM    9  H   UNK N   1      -5.065  -1.390  -0.348  0.00  0.00     0.167 HD
ENDROOT
BRANCH   3  10
HETATM   10  C   UNK N   1       0.034  -2.340   0.076  0.00  0.00     0.235 C 
BRANCH  10  11
HETATM   11  C   UNK N   1       0.770  -1.246   0.804  0.00  0.00     0.236 C 
HETATM   12  N   UNK N   1       1.910  -0.728   0.295  0.00  0.00    -0.354 N 
HETATM   13  H   UNK N   1       2.330   0.041   0.744  0.00  0.00     0.162 HD
HETATM   14  O   UNK N   1       0.330  -0.813   1.857  0.00  0.00    -0.272 OA
BRANCH  12  15
HETATM   15  C   UNK N   1       2.526  -1.273  -0.890  0.00  0.00     0.183 C 
BRANCH  15  16
HETATM   16  C   UNK N   1       3.864  -1.798  -0.504  0.00  0.00     0.066 A 
HETATM   17  C   UNK N   1       4.916  -0.915  -0.226  0.00  0.00     0.146 A 
HETATM   18  C   UNK N   1       6.146  -1.431   0.192  0.00  0.00    -0.020 A 
HETATM   19  F   UNK N   1       4.738   0.426  -0.353  0.00  0.00    -0.203 F 
HETATM   20  C   UNK N   1       6.308  -2.810   0.326  0.00  0.00     0.027 A 
HETATM   21  C   UNK N   1       7.281  -0.520   0.506  0.00  0.00     0.051 C 
HETATM   22  C   UNK N   1       5.238  -3.658   0.033  0.00  0.00     0.089 A 
HETATM   23  N   UNK N   1       4.047  -3.140  -0.372  0.00  0.00    -0.365 N 
ATOM     24  HN  UNK N   1       3.273  -3.771  -0.581  1.00  0.00     0.165 HD
ENDBRANCH  15  16
ENDBRANCH  12  15
ENDBRANCH  10  11
ENDBRANCH   3  10
BRANCH   1  25
HETATM   25  N   UNK N   1      -3.755   0.639  -1.140  0.00  0.00    -0.366 N 
HETATM   26  H   UNK N   1      -4.683   0.637  -1.471  0.00  0.00     0.161 HD
BRANCH  25  27
HETATM   27  C   UNK N   1      -3.035   1.893  -1.176  0.00  0.00     0.207 C 
BRANCH  27  28
HETATM   28  C   UNK N   1      -2.955   2.516   0.223  0.00  0.00     0.301 C 
HETATM   29  F   UNK N   1      -4.166   2.337   0.876  0.00  0.00    -0.197 F 
HETATM   30  F   UNK N   1      -1.961   1.899   0.962  0.00  0.00    -0.197 F 
BRANCH  28  31
HETATM   31  C   UNK N   1      -2.648   3.983   0.104  0.00  0.00     0.083 A 
HETATM   32  N   UNK N   1      -1.482   4.394  -0.472  0.00  0.00    -0.364 N 
HETATM   33  C   UNK N   1      -1.178   5.714  -0.603  0.00  0.00     0.088 A 
HETATM   34  H   UNK N   1      -0.844   3.719  -0.799  0.00  0.00     0.165 HD
HETATM   35  C   UNK N   1      -2.069   6.689  -0.148  0.00  0.00     0.017 A 
HETATM   36  C   UNK N   1      -3.268   6.295   0.445  0.00  0.00     0.003 A 
HETATM   37  C   UNK N   1      -3.561   4.938   0.575  0.00  0.00     0.031 A 
ENDBRANCH  28  31
ENDBRANCH  27  28
ENDBRANCH  25  27
ENDBRANCH   1  25
TORSDOF 8
