MODEL 1
REMARK VINA RESULT:      -8.4      0.000      0.000
REMARK  8 active torsions:
REMARK  status: ('A' for Active; 'I' for Inactive)
REMARK    1  A    between atoms: C_2  and  C_7 
REMARK    2  A    between atoms: C_7  and  C_8 
REMARK    3  A    between atoms: C_8  and  N_11 
REMARK    4  A    between atoms: N_11  and  C_12 
REMARK    5  A    between atoms: N_14  and  C_20 
REMARK    6  A    between atoms: C_20  and  C_21 
REMARK       I    between atoms: C_21  and  N_22 
REMARK    7  A    between atoms: N_22  and  C_24 
REMARK    8  A    between atoms: C_24  and  C_25 
ROOT
HETATM    1  C   UNK N   1      36.539  13.779  12.349  0.00  0.00     0.171 A 
HETATM    2  C   UNK N   1      35.439  14.278  11.622  0.00  0.00     0.292 A 
HETATM    3  N   UNK N   1      35.537  14.420  10.247  0.00  0.00    -0.305 N 
HETATM    4  C   UNK N   1      36.690  14.054   9.603  0.00  0.00     0.027 A 
HETATM    5  C   UNK N   1      37.755  13.533  10.331  0.00  0.00     0.114 A 
HETATM    6  N   UNK N   1      37.659  13.409  11.676  0.00  0.00    -0.346 N 
HETATM    7  O   UNK N   1      34.407  14.582  12.200  0.00  0.00    -0.264 OA
HETATM    8  C   UNK N   1      36.834  14.186   8.121  0.00  0.00     0.070 C 
HETATM    9  H   UNK N   1      38.420  13.040  12.180  0.00  0.00     0.167 HD
ENDROOT
BRANCH   3  10
HETATM   10  C   UNK N   1      34.420  14.957   9.457  0.00  0.00     0.235 C 
BRANCH  10  11
HETATM   11  C   UNK N   1      34.361  16.461   9.513  0.00  0.00     0.236 C 
HETATM   12  N   UNK N   1      33.326  17.129   8.955  0.00  0.00    -0.354 N 
HETATM   13  H   UNK N   1      33.265  18.104   9.074  0.00  0.00     0.162 HD
HETATM   14  O   UNK N   1      35.247  17.085  10.074  0.00  0.00    -0.272 OA
BRANCH  12  15
HETATM   15  C   UNK N   1      32.309  16.448   8.192  0.00  0.00     0.183 C 
BRANCH  15  16
HETATM   16  C   UNK N   1      31.040  17.210   8.349  0.00  0.00     0.066 A 
HETATM   17  C   UNK N   1      30.069  17.179   7.339  0.00  0.00     0.146 A 
HETATM   18  C   UNK N   1      28.861  17.855   7.535  0.00  0.00    -0.020 A 
HETATM   19  F   UNK N   1      30.297  16.494   6.188  0.00  0.00    -0.203 F 
HETATM   20  C   UNK N   1      28.641  18.546   8.726  0.00  0.00     0.027 A 
HETATM   21  C   UNK N   1      27.804  17.834   6.486  0.00  0.00     0.051 C 
HETATM   22  C   UNK N   1      29.635  18.559   9.706  0.00  0.00     0.089 A 
HETATM   23  N   UNK N   1      30.805  17.895   9.500  0.00  0.00    -0.365 N 
ATOM     24  HN  UNK N   1      31.523  17.911  10.225  1.00  0.00     0.165 HD
ENDBRANCH  15  16
ENDBRANCH  12  15
ENDBRANCH  10  11
ENDBRANCH   3  10
BRANCH   1  25
HETATM   25  N   UNK N   1      36.532  13.657  13.766  0.00  0.00    -0.366 N 
HETATM   26  H   UNK N   1      36.345  14.469  14.290  0.00  0.00     0.161 HD
BRANCH  25  27
HETATM   27  C   UNK N   1      36.780  12.432  14.495  0.00  0.00     0.207 C 
BRANCH  27  28
HETATM   28  C   UNK N   1      35.471  11.852  15.045  0.00  0.00     0.301 C 
HETATM   29  F   UNK N   1      34.396  12.468  14.421  0.00  0.00    -0.197 F 
HETATM   30  F   UNK N   1      35.409  10.493  14.789  0.00  0.00    -0.197 F 
BRANCH  28  31
HETATM   31  C   UNK N   1      35.404  12.081  16.529  0.00  0.00     0.083 A 
HETATM   32  N   UNK N   1      35.522  11.030  17.391  0.00  0.00    -0.364 N 
HETATM   33  C   UNK N   1      35.474  11.205  18.740  0.00  0.00     0.088 A 
HETATM   34  H   UNK N   1      35.643  10.123  17.028  0.00  0.00     0.165 HD
HETATM   35  C   UNK N   1      35.306  12.483  19.277  0.00  0.00     0.017 A 
HETATM   36  C   UNK N   1      35.182  13.575  18.418  0.00  0.00     0.003 A 
HETATM   37  C   UNK N   1      35.229  13.376  17.039  0.00  0.00     0.031 A 
ENDBRANCH  28  31
ENDBRANCH  27  28
ENDBRANCH  25  27
ENDBRANCH   1  25
TORSDOF 8
ENDMDL
MODEL 2
REMARK VINA RESULT:      -8.3      9.868     13.665
REMARK  8 active torsions:
REMARK  status: ('A' for Active; 'I' for Inactive)
REMARK    1  A    between atoms: C_2  and  C_7 
REMARK    2  A    between atoms: C_7  and  C_8 
REMARK    3  A    between atoms: C_8  and  N_11 
REMARK    4  A    between atoms: N_11  and  C_12 
REMARK    5  A    between atoms: N_14  and  C_20 
REMARK    6  A    between atoms: C_20  and  C_21 
REMARK       I    between atoms: C_21  and  N_22 
REMARK    7  A    between atoms: N_22  and  C_24 
REMARK    8  A    between atoms: C_24  and  C_25 
ROOT
HETATM    1  C   UNK N   1      24.123  19.657   3.874  0.00  0.00     0.171 A 
HETATM    2  C   UNK N   1      23.352  18.652   4.492  0.00  0.00     0.292 A 
HETATM    3  N   UNK N   1      21.999  18.555   4.205  0.00  0.00    -0.305 N 
HETATM    4  C   UNK N   1      21.428  19.417   3.306  0.00  0.00     0.027 A 
HETATM    5  C   UNK N   1      22.210  20.383   2.680  0.00  0.00     0.114 A 
HETATM    6  N   UNK N   1      23.528  20.482   2.974  0.00  0.00    -0.346 N 
HETATM    7  O   UNK N   1      23.871  17.873   5.276  0.00  0.00    -0.264 OA
HETATM    8  C   UNK N   1      19.975  19.342   2.964  0.00  0.00     0.070 C 
HETATM    9  H   UNK N   1      24.069  21.171   2.525  0.00  0.00     0.167 HD
ENDROOT
BRANCH   3  10
HETATM   10  C   UNK N   1      21.158  17.536   4.846  0.00  0.00     0.235 C 
BRANCH  10  11
HETATM   11  C   UNK N   1      21.139  17.680   6.345  0.00  0.00     0.236 C 
HETATM   12  N   UNK N   1      21.376  16.614   7.142  0.00  0.00    -0.354 N 
HETATM   13  H   UNK N   1      21.441  16.747   8.115  0.00  0.00     0.162 HD
HETATM   14  O   UNK N   1      20.920  18.770   6.849  0.00  0.00    -0.272 OA
BRANCH  12  15
HETATM   15  C   UNK N   1      21.539  15.287   6.601  0.00  0.00     0.183 C 
BRANCH  15  16
HETATM   16  C   UNK N   1      22.836  14.751   7.096  0.00  0.00     0.066 A 
HETATM   17  C   UNK N   1      22.858  13.723   8.049  0.00  0.00     0.146 A 
HETATM   18  C   UNK N   1      24.088  13.197   8.454  0.00  0.00    -0.020 A 
HETATM   19  F   UNK N   1      21.698  13.239   8.563  0.00  0.00    -0.203 F 
HETATM   20  C   UNK N   1      25.269  13.700   7.908  0.00  0.00     0.027 A 
HETATM   21  C   UNK N   1      24.147  12.097   9.455  0.00  0.00     0.051 C 
HETATM   22  C   UNK N   1      25.206  14.729   6.966  0.00  0.00     0.089 A 
HETATM   23  N   UNK N   1      24.001  15.230   6.582  0.00  0.00    -0.365 N 
ATOM     24  HN  UNK N   1      23.969  15.981   5.892  1.00  0.00     0.165 HD
ENDBRANCH  15  16
ENDBRANCH  12  15
ENDBRANCH  10  11
ENDBRANCH   3  10
BRANCH   1  25
HETATM   25  N   UNK N   1      25.501  19.853   4.160  0.00  0.00    -0.366 N 
HETATM   26  H   UNK N   1      26.155  19.462   3.534  0.00  0.00     0.161 HD
BRANCH  25  27
HETATM   27  C   UNK N   1      26.018  20.582   5.297  0.00  0.00     0.207 C 
BRANCH  27  28
HETATM   28  C   UNK N   1      27.529  20.363   5.445  0.00  0.00     0.301 C 
HETATM   29  F   UNK N   1      28.078  20.096   4.199  0.00  0.00    -0.197 F 
HETATM   30  F   UNK N   1      28.127  21.502   5.955  0.00  0.00    -0.197 F 
BRANCH  28  31
HETATM   31  C   UNK N   1      27.782  19.209   6.375  0.00  0.00     0.083 A 
HETATM   32  N   UNK N   1      27.756  19.400   7.725  0.00  0.00    -0.364 N 
HETATM   33  C   UNK N   1      27.973  18.375   8.594  0.00  0.00     0.088 A 
HETATM   34  H   UNK N   1      27.580  20.301   8.079  0.00  0.00     0.165 HD
HETATM   35  C   UNK N   1      28.224  17.087   8.114  0.00  0.00     0.017 A 
HETATM   36  C   UNK N   1      28.255  16.866   6.737  0.00  0.00     0.003 A 
HETATM   37  C   UNK N   1      28.036  17.929   5.862  0.00  0.00     0.031 A 
ENDBRANCH  28  31
ENDBRANCH  27  28
ENDBRANCH  25  27
ENDBRANCH   1  25
TORSDOF 8
ENDMDL
MODEL 3
REMARK VINA RESULT:      -8.2      8.678     13.062
REMARK  8 active torsions:
REMARK  status: ('A' for Active; 'I' for Inactive)
REMARK    1  A    between atoms: C_2  and  C_7 
REMARK    2  A    between atoms: C_7  and  C_8 
REMARK    3  A    between atoms: C_8  and  N_11 
REMARK    4  A    between atoms: N_11  and  C_12 
REMARK    5  A    between atoms: N_14  and  C_20 
REMARK    6  A    between atoms: C_20  and  C_21 
REMARK       I    between atoms: C_21  and  N_22 
REMARK    7  A    between atoms: N_22  and  C_24 
REMARK    8  A    between atoms: C_24  and  C_25 
ROOT
HETATM    1  C   UNK N   1      24.607  18.012   4.668  0.00  0.00     0.171 A 
HETATM    2  C   UNK N   1      23.447  17.425   5.214  0.00  0.00     0.292 A 
HETATM    3  N   UNK N   1      22.203  17.947   4.895  0.00  0.00    -0.305 N 
HETATM    4  C   UNK N   1      22.108  19.010   4.035  0.00  0.00     0.027 A 
HETATM    5  C   UNK N   1      23.261  19.558   3.480  0.00  0.00     0.114 A 
HETATM    6  N   UNK N   1      24.474  19.053   3.806  0.00  0.00    -0.346 N 
HETATM    7  O   UNK N   1      23.537  16.465   5.962  0.00  0.00    -0.264 OA
HETATM    8  C   UNK N   1      20.786  19.598   3.661  0.00  0.00     0.070 C 
HETATM    9  H   UNK N   1      25.282  19.450   3.407  0.00  0.00     0.167 HD
ENDROOT
BRANCH   3  10
HETATM   10  C   UNK N   1      20.973  17.377   5.460  0.00  0.00     0.235 C 
BRANCH  10  11
HETATM   11  C   UNK N   1      20.840  17.669   6.932  0.00  0.00     0.236 C 
HETATM   12  N   UNK N   1      20.672  16.664   7.820  0.00  0.00    -0.354 N 
HETATM   13  H   UNK N   1      20.669  16.869   8.782  0.00  0.00     0.162 HD
HETATM   14  O   UNK N   1      20.895  18.821   7.331  0.00  0.00    -0.272 OA
BRANCH  12  15
HETATM   15  C   UNK N   1      20.497  15.297   7.392  0.00  0.00     0.183 C 
BRANCH  15  16
HETATM   16  C   UNK N   1      21.433  14.452   8.183  0.00  0.00     0.066 A 
HETATM   17  C   UNK N   1      21.000  13.834   9.364  0.00  0.00     0.146 A 
HETATM   18  C   UNK N   1      21.879  12.998  10.057  0.00  0.00    -0.020 A 
HETATM   19  F   UNK N   1      19.738  14.040   9.823  0.00  0.00    -0.203 F 
HETATM   20  C   UNK N   1      23.169  12.791   9.566  0.00  0.00     0.027 A 
HETATM   21  C   UNK N   1      21.448  12.317  11.309  0.00  0.00     0.051 C 
HETATM   22  C   UNK N   1      23.565  13.430   8.389  0.00  0.00     0.089 A 
HETATM   23  N   UNK N   1      22.697  14.240   7.726  0.00  0.00    -0.365 N 
ATOM     24  HN  UNK N   1      22.999  14.699   6.866  1.00  0.00     0.165 HD
ENDBRANCH  15  16
ENDBRANCH  12  15
ENDBRANCH  10  11
ENDBRANCH   3  10
BRANCH   1  25
HETATM   25  N   UNK N   1      25.918  17.568   4.992  0.00  0.00    -0.366 N 
HETATM   26  H   UNK N   1      26.089  16.598   4.962  0.00  0.00     0.161 HD
BRANCH  25  27
HETATM   27  C   UNK N   1      27.019  18.430   5.362  0.00  0.00     0.207 C 
BRANCH  27  28
HETATM   28  C   UNK N   1      28.305  17.618   5.556  0.00  0.00     0.301 C 
HETATM   29  F   UNK N   1      28.080  16.302   5.179  0.00  0.00    -0.197 F 
HETATM   30  F   UNK N   1      29.318  18.135   4.767  0.00  0.00    -0.197 F 
BRANCH  28  31
HETATM   31  C   UNK N   1      28.723  17.673   7.000  0.00  0.00     0.083 A 
HETATM   32  N   UNK N   1      27.802  17.946   7.968  0.00  0.00    -0.364 N 
HETATM   33  C   UNK N   1      28.145  17.995   9.285  0.00  0.00     0.088 A 
HETATM   34  H   UNK N   1      26.867  18.115   7.709  0.00  0.00     0.165 HD
HETATM   35  C   UNK N   1      29.465  17.758   9.676  0.00  0.00     0.017 A 
HETATM   36  C   UNK N   1      30.425  17.476   8.705  0.00  0.00     0.003 A 
HETATM   37  C   UNK N   1      30.057  17.435   7.361  0.00  0.00     0.031 A 
ENDBRANCH  28  31
ENDBRANCH  27  28
ENDBRANCH  25  27
ENDBRANCH   1  25
TORSDOF 8
ENDMDL
MODEL 4
REMARK VINA RESULT:      -8.1      1.287      1.801
REMARK  8 active torsions:
REMARK  status: ('A' for Active; 'I' for Inactive)
REMARK    1  A    between atoms: C_2  and  C_7 
REMARK    2  A    between atoms: C_7  and  C_8 
REMARK    3  A    between atoms: C_8  and  N_11 
REMARK    4  A    between atoms: N_11  and  C_12 
REMARK    5  A    between atoms: N_14  and  C_20 
REMARK    6  A    between atoms: C_20  and  C_21 
REMARK       I    between atoms: C_21  and  N_22 
REMARK    7  A    between atoms: N_22  and  C_24 
REMARK    8  A    between atoms: C_24  and  C_25 
ROOT
HETATM    1  C   UNK N   1      36.460  13.687  12.447  0.00  0.00     0.171 A 
HETATM    2  C   UNK N   1      35.457  14.186  11.592  0.00  0.00     0.292 A 
HETATM    3  N   UNK N   1      35.693  14.253  10.227  0.00  0.00    -0.305 N 
HETATM    4  C   UNK N   1      36.887  13.812   9.720  0.00  0.00     0.027 A 
HETATM    5  C   UNK N   1      37.855  13.292  10.574  0.00  0.00     0.114 A 
HETATM    6  N   UNK N   1      37.624  13.242  11.907  0.00  0.00    -0.346 N 
HETATM    7  O   UNK N   1      34.387  14.556  12.049  0.00  0.00    -0.264 OA
HETATM    8  C   UNK N   1      37.180  13.861   8.254  0.00  0.00     0.070 C 
HETATM    9  H   UNK N   1      38.317  12.873  12.501  0.00  0.00     0.167 HD
ENDROOT
BRANCH   3  10
HETATM   10  C   UNK N   1      34.681  14.787   9.307  0.00  0.00     0.235 C 
BRANCH  10  11
HETATM   11  C   UNK N   1      34.555  16.284   9.413  0.00  0.00     0.236 C 
HETATM   12  N   UNK N   1      33.398  16.901   9.084  0.00  0.00    -0.354 N 
HETATM   13  H   UNK N   1      33.311  17.870   9.238  0.00  0.00     0.162 HD
HETATM   14  O   UNK N   1      35.499  16.948   9.810  0.00  0.00    -0.272 OA
BRANCH  12  15
HETATM   15  C   UNK N   1      32.290  16.177   8.513  0.00  0.00     0.183 C 
BRANCH  15  16
HETATM   16  C   UNK N   1      32.127  16.633   7.106  0.00  0.00     0.066 A 
HETATM   17  C   UNK N   1      30.851  16.898   6.592  0.00  0.00     0.146 A 
HETATM   18  C   UNK N   1      30.729  17.382   5.286  0.00  0.00    -0.020 A 
HETATM   19  F   UNK N   1      29.747  16.696   7.358  0.00  0.00    -0.203 F 
HETATM   20  C   UNK N   1      31.874  17.593   4.517  0.00  0.00     0.027 A 
HETATM   21  C   UNK N   1      29.389  17.685   4.713  0.00  0.00     0.051 C 
HETATM   22  C   UNK N   1      33.128  17.310   5.062  0.00  0.00     0.089 A 
HETATM   23  N   UNK N   1      33.230  16.840   6.335  0.00  0.00    -0.365 N 
ATOM     24  HN  UNK N   1      34.152  16.640   6.721  1.00  0.00     0.165 HD
ENDBRANCH  15  16
ENDBRANCH  12  15
ENDBRANCH  10  11
ENDBRANCH   3  10
BRANCH   1  25
HETATM   25  N   UNK N   1      36.311  13.639  13.860  0.00  0.00    -0.366 N 
HETATM   26  H   UNK N   1      35.911  14.424  14.302  0.00  0.00     0.161 HD
BRANCH  25  27
HETATM   27  C   UNK N   1      36.701  12.527  14.699  0.00  0.00     0.207 C 
BRANCH  27  28
HETATM   28  C   UNK N   1      35.468  11.822  15.278  0.00  0.00     0.301 C 
HETATM   29  F   UNK N   1      34.326  12.312  14.660  0.00  0.00    -0.197 F 
HETATM   30  F   UNK N   1      35.545  10.460  15.044  0.00  0.00    -0.197 F 
BRANCH  28  31
HETATM   31  C   UNK N   1      35.396  12.069  16.759  0.00  0.00     0.083 A 
HETATM   32  N   UNK N   1      35.555  11.034  17.634  0.00  0.00    -0.364 N 
HETATM   33  C   UNK N   1      35.504  11.225  18.981  0.00  0.00     0.088 A 
HETATM   34  H   UNK N   1      35.708  10.127  17.283  0.00  0.00     0.165 HD
HETATM   35  C   UNK N   1      35.290  12.504  19.502  0.00  0.00     0.017 A 
HETATM   36  C   UNK N   1      35.125  13.578  18.629  0.00  0.00     0.003 A 
HETATM   37  C   UNK N   1      35.175  13.363  17.252  0.00  0.00     0.031 A 
ENDBRANCH  28  31
ENDBRANCH  27  28
ENDBRANCH  25  27
ENDBRANCH   1  25
TORSDOF 8
ENDMDL
MODEL 5
REMARK VINA RESULT:      -7.9      2.182      9.791
REMARK  8 active torsions:
REMARK  status: ('A' for Active; 'I' for Inactive)
REMARK    1  A    between atoms: C_2  and  C_7 
REMARK    2  A    between atoms: C_7  and  C_8 
REMARK    3  A    between atoms: C_8  and  N_11 
REMARK    4  A    between atoms: N_11  and  C_12 
REMARK    5  A    between atoms: N_14  and  C_20 
REMARK    6  A    between atoms: C_20  and  C_21 
REMARK       I    between atoms: C_21  and  N_22 
REMARK    7  A    between atoms: N_22  and  C_24 
REMARK    8  A    between atoms: C_24  and  C_25 
ROOT
HETATM    1  C   UNK N   1      34.661  15.418   9.721  0.00  0.00     0.171 A 
HETATM    2  C   UNK N   1      34.833  14.601  10.857  0.00  0.00     0.292 A 
HETATM    3  N   UNK N   1      35.309  13.308  10.703  0.00  0.00    -0.305 N 
HETATM    4  C   UNK N   1      35.630  12.844   9.455  0.00  0.00     0.027 A 
HETATM    5  C   UNK N   1      35.485  13.673   8.347  0.00  0.00     0.114 A 
HETATM    6  N   UNK N   1      35.007  14.931   8.502  0.00  0.00    -0.346 N 
HETATM    7  O   UNK N   1      34.565  15.029  11.969  0.00  0.00    -0.264 OA
HETATM    8  C   UNK N   1      36.152  11.458   9.246  0.00  0.00     0.070 C 
HETATM    9  H   UNK N   1      34.908  15.507   7.710  0.00  0.00     0.167 HD
ENDROOT
BRANCH   3  10
HETATM   10  C   UNK N   1      35.481  12.420  11.860  0.00  0.00     0.235 C 
BRANCH  10  11
HETATM   11  C   UNK N   1      36.774  12.682  12.586  0.00  0.00     0.236 C 
HETATM   12  N   UNK N   1      36.769  13.048  13.888  0.00  0.00    -0.354 N 
HETATM   13  H   UNK N   1      37.626  13.134  14.365  0.00  0.00     0.162 HD
HETATM   14  O   UNK N   1      37.837  12.553  12.001  0.00  0.00    -0.272 OA
BRANCH  12  15
HETATM   15  C   UNK N   1      35.541  13.313  14.595  0.00  0.00     0.183 C 
BRANCH  15  16
HETATM   16  C   UNK N   1      35.437  12.329  15.707  0.00  0.00     0.066 A 
HETATM   17  C   UNK N   1      35.453  12.765  17.039  0.00  0.00     0.146 A 
HETATM   18  C   UNK N   1      35.294  11.828  18.064  0.00  0.00    -0.020 A 
HETATM   19  F   UNK N   1      35.611  14.083  17.328  0.00  0.00    -0.203 F 
HETATM   20  C   UNK N   1      35.124  10.480  17.748  0.00  0.00     0.027 A 
HETATM   21  C   UNK N   1      35.295  12.258  19.489  0.00  0.00     0.051 C 
HETATM   22  C   UNK N   1      35.121  10.084  16.409  0.00  0.00     0.089 A 
HETATM   23  N   UNK N   1      35.276  11.008  15.423  0.00  0.00    -0.365 N 
ATOM     24  HN  UNK N   1      35.270  10.706  14.449  1.00  0.00     0.165 HD
ENDBRANCH  15  16
ENDBRANCH  12  15
ENDBRANCH  10  11
ENDBRANCH   3  10
BRANCH   1  25
HETATM   25  N   UNK N   1      34.127  16.734   9.794  0.00  0.00    -0.366 N 
HETATM   26  H   UNK N   1      33.974  17.112  10.691  0.00  0.00     0.161 HD
BRANCH  25  27
HETATM   27  C   UNK N   1      33.791  17.558   8.654  0.00  0.00     0.207 C 
BRANCH  27  28
HETATM   28  C   UNK N   1      32.311  17.399   8.284  0.00  0.00     0.301 C 
HETATM   29  F   UNK N   1      31.823  16.222   8.834  0.00  0.00    -0.197 F 
HETATM   30  F   UNK N   1      31.578  18.458   8.791  0.00  0.00    -0.197 F 
BRANCH  28  31
HETATM   31  C   UNK N   1      32.167  17.366   6.788  0.00  0.00     0.083 A 
HETATM   32  N   UNK N   1      30.937  17.203   6.222  0.00  0.00    -0.364 N 
HETATM   33  C   UNK N   1      30.771  17.177   4.872  0.00  0.00     0.088 A 
HETATM   34  H   UNK N   1      30.150  17.099   6.805  0.00  0.00     0.165 HD
HETATM   35  C   UNK N   1      31.873  17.324   4.025  0.00  0.00     0.017 A 
HETATM   36  C   UNK N   1      33.141  17.492   4.579  0.00  0.00     0.003 A 
HETATM   37  C   UNK N   1      33.293  17.511   5.965  0.00  0.00     0.031 A 
ENDBRANCH  28  31
ENDBRANCH  27  28
ENDBRANCH  25  27
ENDBRANCH   1  25
TORSDOF 8
ENDMDL
MODEL 6
REMARK VINA RESULT:      -7.8      1.514      2.496
REMARK  8 active torsions:
REMARK  status: ('A' for Active; 'I' for Inactive)
REMARK    1  A    between atoms: C_2  and  C_7 
REMARK    2  A    between atoms: C_7  and  C_8 
REMARK    3  A    between atoms: C_8  and  N_11 
REMARK    4  A    between atoms: N_11  and  C_12 
REMARK    5  A    between atoms: N_14  and  C_20 
REMARK    6  A    between atoms: C_20  and  C_21 
REMARK       I    between atoms: C_21  and  N_22 
REMARK    7  A    between atoms: N_22  and  C_24 
REMARK    8  A    between atoms: C_24  and  C_25 
ROOT
HETATM    1  C   UNK N   1      36.561  14.003  12.366  0.00  0.00     0.171 A 
HETATM    2  C   UNK N   1      35.453  14.450  11.619  0.00  0.00     0.292 A 
HETATM    3  N   UNK N   1      35.530  14.485  10.235  0.00  0.00    -0.305 N 
HETATM    4  C   UNK N   1      36.671  14.063   9.604  0.00  0.00     0.027 A 
HETATM    5  C   UNK N   1      37.745  13.595  10.354  0.00  0.00     0.114 A 
HETATM    6  N   UNK N   1      37.669  13.575  11.706  0.00  0.00    -0.346 N 
HETATM    7  O   UNK N   1      34.431  14.804  12.187  0.00  0.00    -0.264 OA
HETATM    8  C   UNK N   1      36.792  14.080   8.114  0.00  0.00     0.070 C 
HETATM    9  H   UNK N   1      38.437  13.242  12.225  0.00  0.00     0.167 HD
ENDROOT
BRANCH   3  10
HETATM   10  C   UNK N   1      34.403  14.965   9.424  0.00  0.00     0.235 C 
BRANCH  10  11
HETATM   11  C   UNK N   1      34.301  16.468   9.433  0.00  0.00     0.236 C 
HETATM   12  N   UNK N   1      33.182  17.083   8.989  0.00  0.00    -0.354 N 
HETATM   13  H   UNK N   1      33.104  18.060   9.080  0.00  0.00     0.162 HD
HETATM   14  O   UNK N   1      35.229  17.139   9.854  0.00  0.00    -0.272 OA
BRANCH  12  15
HETATM   15  C   UNK N   1      32.100  16.344   8.387  0.00  0.00     0.183 C 
BRANCH  15  16
HETATM   16  C   UNK N   1      30.875  17.185   8.470  0.00  0.00     0.066 A 
HETATM   17  C   UNK N   1      30.104  17.426   7.325  0.00  0.00     0.146 A 
HETATM   18  C   UNK N   1      28.926  18.170   7.440  0.00  0.00    -0.020 A 
HETATM   19  F   UNK N   1      30.493  16.933   6.120  0.00  0.00    -0.203 F 
HETATM   20  C   UNK N   1      28.537  18.660   8.687  0.00  0.00     0.027 A 
HETATM   21  C   UNK N   1      28.078  18.434   6.246  0.00  0.00     0.051 C 
HETATM   22  C   UNK N   1      29.336  18.405   9.804  0.00  0.00     0.089 A 
HETATM   23  N   UNK N   1      30.479  17.679   9.675  0.00  0.00    -0.365 N 
ATOM     24  HN  UNK N   1      31.052  17.498  10.499  1.00  0.00     0.165 HD
ENDBRANCH  15  16
ENDBRANCH  12  15
ENDBRANCH  10  11
ENDBRANCH   3  10
BRANCH   1  25
HETATM   25  N   UNK N   1      36.577  13.991  13.787  0.00  0.00    -0.366 N 
HETATM   26  H   UNK N   1      36.239  14.791  14.251  0.00  0.00     0.161 HD
BRANCH  25  27
HETATM   27  C   UNK N   1      37.050  12.894  14.603  0.00  0.00     0.207 C 
BRANCH  27  28
HETATM   28  C   UNK N   1      35.874  12.096  15.179  0.00  0.00     0.301 C 
HETATM   29  F   UNK N   1      36.254  11.519  16.381  0.00  0.00    -0.197 F 
HETATM   30  F   UNK N   1      34.799  12.936  15.414  0.00  0.00    -0.197 F 
BRANCH  28  31
HETATM   31  C   UNK N   1      35.465  11.027  14.203  0.00  0.00     0.083 A 
HETATM   32  N   UNK N   1      36.316  10.000  13.917  0.00  0.00    -0.364 N 
HETATM   33  C   UNK N   1      35.973   9.013  13.045  0.00  0.00     0.088 A 
HETATM   34  H   UNK N   1      37.200   9.974  14.349  0.00  0.00     0.165 HD
HETATM   35  C   UNK N   1      34.723   9.029  12.421  0.00  0.00     0.017 A 
HETATM   36  C   UNK N   1      33.836  10.068  12.697  0.00  0.00     0.003 A 
HETATM   37  C   UNK N   1      34.205  11.074  13.589  0.00  0.00     0.031 A 
ENDBRANCH  28  31
ENDBRANCH  27  28
ENDBRANCH  25  27
ENDBRANCH   1  25
TORSDOF 8
ENDMDL
MODEL 7
REMARK VINA RESULT:      -7.8      1.751      2.631
REMARK  8 active torsions:
REMARK  status: ('A' for Active; 'I' for Inactive)
REMARK    1  A    between atoms: C_2  and  C_7 
REMARK    2  A    between atoms: C_7  and  C_8 
REMARK    3  A    between atoms: C_8  and  N_11 
REMARK    4  A    between atoms: N_11  and  C_12 
REMARK    5  A    between atoms: N_14  and  C_20 
REMARK    6  A    between atoms: C_20  and  C_21 
REMARK       I    between atoms: C_21  and  N_22 
REMARK    7  A    between atoms: N_22  and  C_24 
REMARK    8  A    between atoms: C_24  and  C_25 
ROOT
HETATM    1  C   UNK N   1      36.660  14.408   9.476  0.00  0.00     0.171 A 
HETATM    2  C   UNK N   1      35.454  14.847   8.893  0.00  0.00     0.292 A 
HETATM    3  N   UNK N   1      35.291  14.766   7.518  0.00  0.00    -0.305 N 
HETATM    4  C   UNK N   1      36.289  14.239   6.742  0.00  0.00     0.027 A 
HETATM    5  C   UNK N   1      37.461  13.781   7.336  0.00  0.00     0.114 A 
HETATM    6  N   UNK N   1      37.621  13.874   8.678  0.00  0.00    -0.346 N 
HETATM    7  O   UNK N   1      34.560  15.294   9.593  0.00  0.00    -0.264 OA
HETATM    8  C   UNK N   1      36.150  14.129   5.257  0.00  0.00     0.070 C 
HETATM    9  H   UNK N   1      38.455  13.547   9.085  0.00  0.00     0.167 HD
ENDROOT
BRANCH   3  10
HETATM   10  C   UNK N   1      34.057  15.233   6.872  0.00  0.00     0.235 C 
BRANCH  10  11
HETATM   11  C   UNK N   1      33.906  16.729   6.958  0.00  0.00     0.236 C 
HETATM   12  N   UNK N   1      32.969  17.281   7.761  0.00  0.00    -0.354 N 
HETATM   13  H   UNK N   1      32.942  18.259   7.865  0.00  0.00     0.162 HD
HETATM   14  O   UNK N   1      34.643  17.454   6.307  0.00  0.00    -0.272 OA
BRANCH  12  15
HETATM   15  C   UNK N   1      32.009  16.471   8.470  0.00  0.00     0.183 C 
BRANCH  15  16
HETATM   16  C   UNK N   1      30.717  17.209   8.483  0.00  0.00     0.066 A 
HETATM   17  C   UNK N   1      29.883  17.193   7.357  0.00  0.00     0.146 A 
HETATM   18  C   UNK N   1      28.647  17.844   7.415  0.00  0.00    -0.020 A 
HETATM   19  F   UNK N   1      30.268  16.544   6.227  0.00  0.00    -0.203 F 
HETATM   20  C   UNK N   1      28.264  18.497   8.587  0.00  0.00     0.027 A 
HETATM   21  C   UNK N   1      27.733  17.837   6.241  0.00  0.00     0.051 C 
HETATM   22  C   UNK N   1      29.125  18.496   9.686  0.00  0.00     0.089 A 
HETATM   23  N   UNK N   1      30.324  17.857   9.614  0.00  0.00    -0.365 N 
ATOM     24  HN  UNK N   1      30.943  17.863  10.425  1.00  0.00     0.165 HD
ENDBRANCH  15  16
ENDBRANCH  12  15
ENDBRANCH  10  11
ENDBRANCH   3  10
BRANCH   1  25
HETATM   25  N   UNK N   1      36.922  14.510  10.870  0.00  0.00    -0.366 N 
HETATM   26  H   UNK N   1      37.167  15.397  11.222  0.00  0.00     0.161 HD
BRANCH  25  27
HETATM   27  C   UNK N   1      36.856  13.412  11.809  0.00  0.00     0.207 C 
BRANCH  27  28
HETATM   28  C   UNK N   1      35.575  13.489  12.649  0.00  0.00     0.301 C 
HETATM   29  F   UNK N   1      34.759  14.494  12.151  0.00  0.00    -0.197 F 
HETATM   30  F   UNK N   1      34.888  12.290  12.579  0.00  0.00    -0.197 F 
BRANCH  28  31
HETATM   31  C   UNK N   1      35.929  13.777  14.081  0.00  0.00     0.083 A 
HETATM   32  N   UNK N   1      36.871  14.716  14.379  0.00  0.00    -0.364 N 
HETATM   33  C   UNK N   1      37.208  15.007  15.665  0.00  0.00     0.088 A 
HETATM   34  H   UNK N   1      37.321  15.195  13.644  0.00  0.00     0.165 HD
HETATM   35  C   UNK N   1      36.582  14.343  16.722  0.00  0.00     0.017 A 
HETATM   36  C   UNK N   1      35.615  13.377  16.445  0.00  0.00     0.003 A 
HETATM   37  C   UNK N   1      35.286  13.089  15.121  0.00  0.00     0.031 A 
ENDBRANCH  28  31
ENDBRANCH  27  28
ENDBRANCH  25  27
ENDBRANCH   1  25
TORSDOF 8
ENDMDL
MODEL 8
REMARK VINA RESULT:      -7.6      1.544      2.138
REMARK  8 active torsions:
REMARK  status: ('A' for Active; 'I' for Inactive)
REMARK    1  A    between atoms: C_2  and  C_7 
REMARK    2  A    between atoms: C_7  and  C_8 
REMARK    3  A    between atoms: C_8  and  N_11 
REMARK    4  A    between atoms: N_11  and  C_12 
REMARK    5  A    between atoms: N_14  and  C_20 
REMARK    6  A    between atoms: C_20  and  C_21 
REMARK       I    between atoms: C_21  and  N_22 
REMARK    7  A    between atoms: N_22  and  C_24 
REMARK    8  A    between atoms: C_24  and  C_25 
ROOT
HETATM    1  C   UNK N   1      36.799  13.443  12.373  0.00  0.00     0.171 A 
HETATM    2  C   UNK N   1      35.723  14.018  11.667  0.00  0.00     0.292 A 
HETATM    3  N   UNK N   1      35.821  14.192  10.295  0.00  0.00    -0.305 N 
HETATM    4  C   UNK N   1      36.949  13.782   9.634  0.00  0.00     0.027 A 
HETATM    5  C   UNK N   1      37.989  13.186  10.341  0.00  0.00     0.114 A 
HETATM    6  N   UNK N   1      37.893  13.031  11.683  0.00  0.00    -0.346 N 
HETATM    7  O   UNK N   1      34.712  14.362  12.259  0.00  0.00    -0.264 OA
HETATM    8  C   UNK N   1      37.093  13.946   8.155  0.00  0.00     0.070 C 
HETATM    9  H   UNK N   1      38.637  12.609  12.171  0.00  0.00     0.167 HD
ENDROOT
BRANCH   3  10
HETATM   10  C   UNK N   1      34.731  14.808   9.528  0.00  0.00     0.235 C 
BRANCH  10  11
HETATM   11  C   UNK N   1      33.845  13.778   8.879  0.00  0.00     0.236 C 
HETATM   12  N   UNK N   1      33.245  14.035   7.695  0.00  0.00    -0.354 N 
HETATM   13  H   UNK N   1      32.737  13.319   7.249  0.00  0.00     0.162 HD
HETATM   14  O   UNK N   1      33.673  12.696   9.418  0.00  0.00    -0.272 OA
BRANCH  12  15
HETATM   15  C   UNK N   1      33.332  15.331   7.067  0.00  0.00     0.183 C 
BRANCH  15  16
HETATM   16  C   UNK N   1      31.996  15.976   7.175  0.00  0.00     0.066 A 
HETATM   17  C   UNK N   1      31.774  16.991   8.115  0.00  0.00     0.146 A 
HETATM   18  C   UNK N   1      30.528  17.622   8.156  0.00  0.00    -0.020 A 
HETATM   19  F   UNK N   1      32.763  17.361   8.970  0.00  0.00    -0.203 F 
HETATM   20  C   UNK N   1      29.527  17.235   7.265  0.00  0.00     0.027 A 
HETATM   21  C   UNK N   1      30.264  18.711   9.136  0.00  0.00     0.051 C 
HETATM   22  C   UNK N   1      29.784  16.215   6.346  0.00  0.00     0.089 A 
HETATM   23  N   UNK N   1      31.002  15.611   6.319  0.00  0.00    -0.365 N 
ATOM     24  HN  UNK N   1      31.177  14.868   5.642  1.00  0.00     0.165 HD
ENDBRANCH  15  16
ENDBRANCH  12  15
ENDBRANCH  10  11
ENDBRANCH   3  10
BRANCH   1  25
HETATM   25  N   UNK N   1      36.793  13.283  13.786  0.00  0.00    -0.366 N 
HETATM   26  H   UNK N   1      36.655  14.091  14.333  0.00  0.00     0.161 HD
BRANCH  25  27
HETATM   27  C   UNK N   1      36.975  12.028  14.480  0.00  0.00     0.207 C 
BRANCH  27  28
HETATM   28  C   UNK N   1      35.647  11.529  15.062  0.00  0.00     0.301 C 
HETATM   29  F   UNK N   1      34.598  12.006  14.289  0.00  0.00    -0.197 F 
HETATM   30  F   UNK N   1      35.611  10.146  15.047  0.00  0.00    -0.197 F 
BRANCH  28  31
HETATM   31  C   UNK N   1      35.503  12.015  16.478  0.00  0.00     0.083 A 
HETATM   32  N   UNK N   1      35.362  13.347  16.733  0.00  0.00    -0.364 N 
HETATM   33  C   UNK N   1      35.221  13.819  18.002  0.00  0.00     0.088 A 
HETATM   34  H   UNK N   1      35.365  13.983  15.981  0.00  0.00     0.165 HD
HETATM   35  C   UNK N   1      35.213  12.935  19.084  0.00  0.00     0.017 A 
HETATM   36  C   UNK N   1      35.356  11.568  18.849  0.00  0.00     0.003 A 
HETATM   37  C   UNK N   1      35.504  11.102  17.543  0.00  0.00     0.031 A 
ENDBRANCH  28  31
ENDBRANCH  27  28
ENDBRANCH  25  27
ENDBRANCH   1  25
TORSDOF 8
ENDMDL
MODEL 9
REMARK VINA RESULT:      -7.6     10.035     13.784
REMARK  8 active torsions:
REMARK  status: ('A' for Active; 'I' for Inactive)
REMARK    1  A    between atoms: C_2  and  C_7 
REMARK    2  A    between atoms: C_7  and  C_8 
REMARK    3  A    between atoms: C_8  and  N_11 
REMARK    4  A    between atoms: N_11  and  C_12 
REMARK    5  A    between atoms: N_14  and  C_20 
REMARK    6  A    between atoms: C_20  and  C_21 
REMARK       I    between atoms: C_21  and  N_22 
REMARK    7  A    between atoms: N_22  and  C_24 
REMARK    8  A    between atoms: C_24  and  C_25 
ROOT
HETATM    1  C   UNK N   1      23.445  17.525   5.198  0.00  0.00     0.171 A 
HETATM    2  C   UNK N   1      22.226  17.550   5.906  0.00  0.00     0.292 A 
HETATM    3  N   UNK N   1      21.402  16.435   5.886  0.00  0.00    -0.305 N 
HETATM    4  C   UNK N   1      21.788  15.313   5.202  0.00  0.00     0.027 A 
HETATM    5  C   UNK N   1      23.009  15.293   4.534  0.00  0.00     0.114 A 
HETATM    6  N   UNK N   1      23.804  16.389   4.546  0.00  0.00    -0.346 N 
HETATM    7  O   UNK N   1      21.898  18.545   6.532  0.00  0.00    -0.264 OA
HETATM    8  C   UNK N   1      20.931  14.088   5.160  0.00  0.00     0.070 C 
HETATM    9  H   UNK N   1      24.664  16.363   4.069  0.00  0.00     0.167 HD
ENDROOT
BRANCH   3  10
HETATM   10  C   UNK N   1      20.114  16.430   6.593  0.00  0.00     0.235 C 
BRANCH  10  11
HETATM   11  C   UNK N   1      20.281  16.672   8.071  0.00  0.00     0.236 C 
HETATM   12  N   UNK N   1      20.623  15.659   8.898  0.00  0.00    -0.354 N 
HETATM   13  H   UNK N   1      20.806  15.855   9.846  0.00  0.00     0.162 HD
HETATM   14  O   UNK N   1      20.117  17.792   8.526  0.00  0.00    -0.272 OA
BRANCH  12  15
HETATM   15  C   UNK N   1      20.727  14.300   8.428  0.00  0.00     0.183 C 
BRANCH  15  16
HETATM   16  C   UNK N   1      21.978  13.721   8.989  0.00  0.00     0.066 A 
HETATM   17  C   UNK N   1      21.964  13.084  10.237  0.00  0.00     0.146 A 
HETATM   18  C   UNK N   1      23.139  12.497  10.715  0.00  0.00    -0.020 A 
HETATM   19  F   UNK N   1      20.820  13.030  10.967  0.00  0.00    -0.203 F 
HETATM   20  C   UNK N   1      24.303  12.553   9.947  0.00  0.00     0.027 A 
HETATM   21  C   UNK N   1      23.156  11.802  12.031  0.00  0.00     0.051 C 
HETATM   22  C   UNK N   1      24.278  13.204   8.712  0.00  0.00     0.089 A 
HETATM   23  N   UNK N   1      23.127  13.769   8.260  0.00  0.00    -0.365 N 
ATOM     24  HN  UNK N   1      23.122  14.240   7.355  1.00  0.00     0.165 HD
ENDBRANCH  15  16
ENDBRANCH  12  15
ENDBRANCH  10  11
ENDBRANCH   3  10
BRANCH   1  25
HETATM   25  N   UNK N   1      24.315  18.647   5.127  0.00  0.00    -0.366 N 
HETATM   26  H   UNK N   1      24.084  19.436   5.670  0.00  0.00     0.161 HD
BRANCH  25  27
HETATM   27  C   UNK N   1      25.512  18.719   4.319  0.00  0.00     0.207 C 
BRANCH  27  28
HETATM   28  C   UNK N   1      26.485  19.765   4.877  0.00  0.00     0.301 C 
HETATM   29  F   UNK N   1      27.189  20.344   3.831  0.00  0.00    -0.197 F 
HETATM   30  F   UNK N   1      25.785  20.759   5.539  0.00  0.00    -0.197 F 
BRANCH  28  31
HETATM   31  C   UNK N   1      27.438  19.106   5.835  0.00  0.00     0.083 A 
HETATM   32  N   UNK N   1      27.384  19.400   7.166  0.00  0.00    -0.364 N 
HETATM   33  C   UNK N   1      28.227  18.814   8.060  0.00  0.00     0.088 A 
HETATM   34  H   UNK N   1      26.721  20.053   7.487  0.00  0.00     0.165 HD
HETATM   35  C   UNK N   1      29.174  17.883   7.627  0.00  0.00     0.017 A 
HETATM   36  C   UNK N   1      29.249  17.565   6.271  0.00  0.00     0.003 A 
HETATM   37  C   UNK N   1      28.381  18.178   5.369  0.00  0.00     0.031 A 
ENDBRANCH  28  31
ENDBRANCH  27  28
ENDBRANCH  25  27
ENDBRANCH   1  25
TORSDOF 8
ENDMDL
