MODEL 1
REMARK VINA RESULT:      -7.8      0.000      0.000
REMARK  9 active torsions:
REMARK  status: ('A' for Active; 'I' for Inactive)
REMARK    1  A    between atoms: N_2  and  O_33 
REMARK    2  A    between atoms: C_3  and  C_7 
REMARK    3  A    between atoms: C_7  and  C_8 
REMARK    4  A    between atoms: C_8  and  N_11 
REMARK    5  A    between atoms: N_11  and  C_12 
REMARK    6  A    between atoms: N_14  and  C_19 
REMARK    7  A    between atoms: C_19  and  C_20 
REMARK       I    between atoms: C_20  and  N_21 
REMARK    8  A    between atoms: N_21  and  C_22 
REMARK    9  A    between atoms: C_22  and  C_23 
ROOT
HETATM    1  C   UNK N   1      34.399  15.338   9.263  0.00  0.00     0.171 A 
HETATM    2  C   UNK N   1      34.755  14.755  10.461  0.00  0.00     0.293 A 
HETATM    3  N   UNK N   1      35.849  13.918  10.528  0.00  0.00    -0.291 N 
HETATM    4  C   UNK N   1      36.539  13.613   9.389  0.00  0.00     0.124 A 
HETATM    5  C   UNK N   1      36.141  14.180   8.166  0.00  0.00     0.132 A 
HETATM    6  N   UNK N   1      35.087  15.049   8.128  0.00  0.00    -0.345 N 
ATOM      7  HN  UNK N   1      34.816  15.480   7.244  1.00  0.00     0.167 HD
HETATM    8  O   UNK N   1      34.100  15.012  11.458  0.00  0.00    -0.264 OA
HETATM    9 Cl   UNK N   1      37.917  12.515   9.422  0.00  0.00    -0.063 Cl
ENDROOT
BRANCH   1  10
HETATM   10  N   UNK N   1      33.324  16.247   9.307  0.00  0.00    -0.366 N 
HETATM   11  H   UNK N   1      33.488  17.075   9.812  0.00  0.00     0.161 HD
BRANCH  10  12
HETATM   12  C   UNK N   1      32.031  16.134   8.722  0.00  0.00     0.207 C 
BRANCH  12  13
HETATM   13  C   UNK N   1      31.759  17.450   7.977  0.00  0.00     0.303 C 
HETATM   14  F   UNK N   1      30.443  17.788   8.234  0.00  0.00    -0.197 F 
HETATM   15  F   UNK N   1      32.554  18.462   8.496  0.00  0.00    -0.197 F 
BRANCH  13  16
HETATM   16  C   UNK N   1      31.988  17.361   6.471  0.00  0.00     0.112 A 
HETATM   17  N   UNK N   1      33.233  17.509   5.900  0.00  0.00    -0.234 N 
HETATM   18  C   UNK N   1      33.397  17.457   4.548  0.00  0.00     0.123 A 
HETATM   19  C   UNK N   1      32.306  17.246   3.705  0.00  0.00     0.020 A 
HETATM   20  C   UNK N   1      31.038  17.098   4.258  0.00  0.00     0.004 A 
HETATM   21  C   UNK N   1      30.877  17.162   5.639  0.00  0.00     0.034 A 
BRANCH  17  22
HETATM   22  O   UNK N   1      34.304  17.754   6.647  0.00  0.00    -0.283 OA
ATOM     23  HO  UNK N   1      35.010  17.117   6.636  1.00  0.00     0.245 HD
ENDBRANCH  17  22
ENDBRANCH  13  16
ENDBRANCH  12  13
ENDBRANCH  10  12
ENDBRANCH   1  10
BRANCH   3  24
HETATM   24  C   UNK N   1      36.284  13.406  11.834  0.00  0.00     0.236 C 
BRANCH  24  25
HETATM   25  C   UNK N   1      35.325  12.326  12.287  0.00  0.00     0.236 C 
HETATM   26  N   UNK N   1      35.047  12.151  13.597  0.00  0.00    -0.355 N 
HETATM   27  H   UNK N   1      34.577  11.332  13.877  0.00  0.00     0.162 HD
HETATM   28  O   UNK N   1      34.882  11.533  11.474  0.00  0.00    -0.272 OA
BRANCH  26  29
HETATM   29  C   UNK N   1      35.410  13.118  14.596  0.00  0.00     0.164 C 
BRANCH  29  30
HETATM   30  C   UNK N   1      35.738  12.289  15.774  0.00  0.00    -0.002 A 
HETATM   31  C   UNK N   1      36.483  11.120  15.596  0.00  0.00     0.012 A 
HETATM   32  C   UNK N   1      36.644  10.231  16.659  0.00  0.00     0.001 A 
HETATM   33  C   UNK N   1      36.042  10.499  17.892  0.00  0.00     0.003 A 
HETATM   34  C   UNK N   1      35.294  11.666  18.069  0.00  0.00     0.043 A 
HETATM   35  C   UNK N   1      35.140  12.564  17.012  0.00  0.00     0.124 A 
HETATM   36  F   UNK N   1      34.369  13.669  17.179  0.00  0.00    -0.205 F 
ENDBRANCH  29  30
ENDBRANCH  26  29
ENDBRANCH  24  25
ENDBRANCH   3  24
TORSDOF 9
ENDMDL
MODEL 2
REMARK VINA RESULT:      -7.7      1.904     10.091
REMARK  9 active torsions:
REMARK  status: ('A' for Active; 'I' for Inactive)
REMARK    1  A    between atoms: N_2  and  O_33 
REMARK    2  A    between atoms: C_3  and  C_7 
REMARK    3  A    between atoms: C_7  and  C_8 
REMARK    4  A    between atoms: C_8  and  N_11 
REMARK    5  A    between atoms: N_11  and  C_12 
REMARK    6  A    between atoms: N_14  and  C_19 
REMARK    7  A    between atoms: C_19  and  C_20 
REMARK       I    between atoms: C_20  and  N_21 
REMARK    8  A    between atoms: N_21  and  C_22 
REMARK    9  A    between atoms: C_22  and  C_23 
ROOT
HETATM    1  C   UNK N   1      36.777  13.753  12.335  0.00  0.00     0.171 A 
HETATM    2  C   UNK N   1      35.682  14.383  11.782  0.00  0.00     0.293 A 
HETATM    3  N   UNK N   1      35.558  14.485  10.412  0.00  0.00    -0.291 N 
HETATM    4  C   UNK N   1      36.559  14.021   9.606  0.00  0.00     0.124 A 
HETATM    5  C   UNK N   1      37.689  13.419  10.182  0.00  0.00     0.132 A 
HETATM    6  N   UNK N   1      37.771  13.279  11.539  0.00  0.00    -0.345 N 
ATOM      7  HN  UNK N   1      38.580  12.817  11.955  1.00  0.00     0.167 HD
HETATM    8  O   UNK N   1      34.820  14.823  12.525  0.00  0.00    -0.264 OA
HETATM    9 Cl   UNK N   1      36.461  14.170   7.852  0.00  0.00    -0.063 Cl
ENDROOT
BRANCH   1  10
HETATM   10  N   UNK N   1      36.776  13.617  13.737  0.00  0.00    -0.366 N 
HETATM   11  H   UNK N   1      36.695  14.456  14.245  0.00  0.00     0.161 HD
BRANCH  10  12
HETATM   12  C   UNK N   1      36.876  12.434  14.523  0.00  0.00     0.207 C 
BRANCH  12  13
HETATM   13  C   UNK N   1      35.512  12.228  15.200  0.00  0.00     0.303 C 
HETATM   14  F   UNK N   1      34.788  13.388  14.997  0.00  0.00    -0.197 F 
HETATM   15  F   UNK N   1      34.824  11.197  14.576  0.00  0.00    -0.197 F 
BRANCH  13  16
HETATM   16  C   UNK N   1      35.609  11.930  16.693  0.00  0.00     0.112 A 
HETATM   17  N   UNK N   1      36.078  10.729  17.181  0.00  0.00    -0.234 N 
HETATM   18  C   UNK N   1      36.120  10.484  18.521  0.00  0.00     0.123 A 
HETATM   19  C   UNK N   1      35.691  11.446  19.436  0.00  0.00     0.020 A 
HETATM   20  C   UNK N   1      35.208  12.662  18.967  0.00  0.00     0.004 A 
HETATM   21  C   UNK N   1      35.160  12.903  17.597  0.00  0.00     0.034 A 
BRANCH  17  22
HETATM   22  O   UNK N   1      36.462   9.759  16.359  0.00  0.00    -0.283 OA
ATOM     23  HO  UNK N   1      37.282   9.870  15.891  1.00  0.00     0.245 HD
ENDBRANCH  17  22
ENDBRANCH  13  16
ENDBRANCH  12  13
ENDBRANCH  10  12
ENDBRANCH   1  10
BRANCH   3  24
HETATM   24  C   UNK N   1      34.329  15.049   9.842  0.00  0.00     0.236 C 
BRANCH  24  25
HETATM   25  C   UNK N   1      34.493  16.546   9.689  0.00  0.00     0.236 C 
HETATM   26  N   UNK N   1      33.588  17.277   9.005  0.00  0.00    -0.355 N 
HETATM   27  H   UNK N   1      33.813  18.204   8.759  0.00  0.00     0.162 HD
HETATM   28  O   UNK N   1      35.509  17.086  10.095  0.00  0.00    -0.272 OA
BRANCH  26  29
HETATM   29  C   UNK N   1      32.307  16.751   8.621  0.00  0.00     0.164 C 
BRANCH  29  30
HETATM   30  C   UNK N   1      32.300  16.900   7.151  0.00  0.00    -0.002 A 
HETATM   31  C   UNK N   1      33.477  17.277   6.500  0.00  0.00     0.012 A 
HETATM   32  C   UNK N   1      33.448  17.603   5.144  0.00  0.00     0.001 A 
HETATM   33  C   UNK N   1      32.239  17.574   4.444  0.00  0.00     0.003 A 
HETATM   34  C   UNK N   1      31.060  17.199   5.095  0.00  0.00     0.043 A 
HETATM   35  C   UNK N   1      31.086  16.861   6.449  0.00  0.00     0.124 A 
HETATM   36  F   UNK N   1      29.928  16.549   7.084  0.00  0.00    -0.205 F 
ENDBRANCH  29  30
ENDBRANCH  26  29
ENDBRANCH  24  25
ENDBRANCH   3  24
TORSDOF 9
ENDMDL
MODEL 3
REMARK VINA RESULT:      -7.6      8.812     11.953
REMARK  9 active torsions:
REMARK  status: ('A' for Active; 'I' for Inactive)
REMARK    1  A    between atoms: N_2  and  O_33 
REMARK    2  A    between atoms: C_3  and  C_7 
REMARK    3  A    between atoms: C_7  and  C_8 
REMARK    4  A    between atoms: C_8  and  N_11 
REMARK    5  A    between atoms: N_11  and  C_12 
REMARK    6  A    between atoms: N_14  and  C_19 
REMARK    7  A    between atoms: C_19  and  C_20 
REMARK       I    between atoms: C_20  and  N_21 
REMARK    8  A    between atoms: N_21  and  C_22 
REMARK    9  A    between atoms: C_22  and  C_23 
ROOT
HETATM    1  C   UNK N   1      24.540  16.945   5.005  0.00  0.00     0.171 A 
HETATM    2  C   UNK N   1      23.675  16.123   5.695  0.00  0.00     0.293 A 
HETATM    3  N   UNK N   1      22.316  16.203   5.473  0.00  0.00    -0.291 N 
HETATM    4  C   UNK N   1      21.824  17.149   4.619  0.00  0.00     0.124 A 
HETATM    5  C   UNK N   1      22.713  18.010   3.954  0.00  0.00     0.132 A 
HETATM    6  N   UNK N   1      24.059  17.881   4.145  0.00  0.00    -0.345 N 
ATOM      7  HN  UNK N   1      24.705  18.489   3.641  1.00  0.00     0.167 HD
HETATM    8  O   UNK N   1      24.136  15.312   6.481  0.00  0.00    -0.264 OA
HETATM    9 Cl   UNK N   1      20.091  17.314   4.340  0.00  0.00    -0.063 Cl
ENDROOT
BRANCH   1  10
HETATM   10  N   UNK N   1      25.915  16.733   5.229  0.00  0.00    -0.366 N 
HETATM   11  H   UNK N   1      26.298  15.938   4.792  0.00  0.00     0.161 HD
BRANCH  10  12
HETATM   12  C   UNK N   1      26.828  17.508   5.998  0.00  0.00     0.207 C 
BRANCH  12  13
HETATM   13  C   UNK N   1      27.582  16.533   6.916  0.00  0.00     0.303 C 
HETATM   14  F   UNK N   1      26.663  16.060   7.834  0.00  0.00    -0.197 F 
HETATM   15  F   UNK N   1      28.032  15.443   6.183  0.00  0.00    -0.197 F 
BRANCH  13  16
HETATM   16  C   UNK N   1      28.764  17.166   7.642  0.00  0.00     0.112 A 
HETATM   17  N   UNK N   1      28.612  17.953   8.763  0.00  0.00    -0.234 N 
HETATM   18  C   UNK N   1      29.689  18.530   9.368  0.00  0.00     0.123 A 
HETATM   19  C   UNK N   1      30.977  18.335   8.870  0.00  0.00     0.020 A 
HETATM   20  C   UNK N   1      31.155  17.550   7.736  0.00  0.00     0.004 A 
HETATM   21  C   UNK N   1      30.051  16.970   7.118  0.00  0.00     0.034 A 
BRANCH  17  22
HETATM   22  O   UNK N   1      27.407  18.209   9.261  0.00  0.00    -0.283 OA
ATOM     23  HO  UNK N   1      26.650  17.983   8.733  1.00  0.00     0.245 HD
ENDBRANCH  17  22
ENDBRANCH  13  16
ENDBRANCH  12  13
ENDBRANCH  10  12
ENDBRANCH   1  10
BRANCH   3  24
HETATM   24  C   UNK N   1      21.423  15.236   6.125  0.00  0.00     0.236 C 
BRANCH  24  25
HETATM   25  C   UNK N   1      21.227  15.639   7.571  0.00  0.00     0.236 C 
HETATM   26  N   UNK N   1      21.129  14.706   8.543  0.00  0.00    -0.355 N 
HETATM   27  H   UNK N   1      20.815  14.981   9.435  0.00  0.00     0.162 HD
HETATM   28  O   UNK N   1      21.047  16.811   7.852  0.00  0.00    -0.272 OA
BRANCH  26  29
HETATM   29  C   UNK N   1      21.468  13.327   8.322  0.00  0.00     0.164 C 
BRANCH  29  30
HETATM   30  C   UNK N   1      22.383  13.015   9.439  0.00  0.00    -0.002 A 
HETATM   31  C   UNK N   1      23.762  13.041   9.215  0.00  0.00     0.012 A 
HETATM   32  C   UNK N   1      24.635  12.572  10.197  0.00  0.00     0.001 A 
HETATM   33  C   UNK N   1      24.127  12.054  11.393  0.00  0.00     0.003 A 
HETATM   34  C   UNK N   1      22.748  12.025  11.616  0.00  0.00     0.043 A 
HETATM   35  C   UNK N   1      21.872  12.504  10.641  0.00  0.00     0.124 A 
HETATM   36  F   UNK N   1      20.533  12.423  10.846  0.00  0.00    -0.205 F 
ENDBRANCH  29  30
ENDBRANCH  26  29
ENDBRANCH  24  25
ENDBRANCH   3  24
TORSDOF 9
ENDMDL
MODEL 4
REMARK VINA RESULT:      -7.6      2.305      9.464
REMARK  9 active torsions:
REMARK  status: ('A' for Active; 'I' for Inactive)
REMARK    1  A    between atoms: N_2  and  O_33 
REMARK    2  A    between atoms: C_3  and  C_7 
REMARK    3  A    between atoms: C_7  and  C_8 
REMARK    4  A    between atoms: C_8  and  N_11 
REMARK    5  A    between atoms: N_11  and  C_12 
REMARK    6  A    between atoms: N_14  and  C_19 
REMARK    7  A    between atoms: C_19  and  C_20 
REMARK       I    between atoms: C_20  and  N_21 
REMARK    8  A    between atoms: N_21  and  C_22 
REMARK    9  A    between atoms: C_22  and  C_23 
ROOT
HETATM    1  C   UNK N   1      35.142  12.582  11.924  0.00  0.00     0.171 A 
HETATM    2  C   UNK N   1      35.752  13.717  11.434  0.00  0.00     0.293 A 
HETATM    3  N   UNK N   1      35.449  14.178  10.170  0.00  0.00    -0.291 N 
HETATM    4  C   UNK N   1      34.593  13.466   9.377  0.00  0.00     0.124 A 
HETATM    5  C   UNK N   1      34.010  12.287   9.872  0.00  0.00     0.132 A 
HETATM    6  N   UNK N   1      34.281  11.875  11.146  0.00  0.00    -0.345 N 
ATOM      7  HN  UNK N   1      33.836  11.033  11.513  1.00  0.00     0.167 HD
HETATM    8  O   UNK N   1      36.542  14.314  12.147  0.00  0.00    -0.264 OA
HETATM    9 Cl   UNK N   1      34.211  13.996   7.740  0.00  0.00    -0.063 Cl
ENDROOT
BRANCH   1  10
HETATM   10  N   UNK N   1      35.445  12.236  13.256  0.00  0.00    -0.366 N 
HETATM   11  H   UNK N   1      36.403  12.179  13.472  0.00  0.00     0.161 HD
BRANCH  10  12
HETATM   12  C   UNK N   1      34.557  11.958  14.334  0.00  0.00     0.207 C 
BRANCH  12  13
HETATM   13  C   UNK N   1      35.421  11.781  15.592  0.00  0.00     0.303 C 
HETATM   14  F   UNK N   1      34.704  10.974  16.456  0.00  0.00    -0.197 F 
HETATM   15  F   UNK N   1      36.591  11.106  15.273  0.00  0.00    -0.197 F 
BRANCH  13  16
HETATM   16  C   UNK N   1      35.777  13.094  16.281  0.00  0.00     0.112 A 
HETATM   17  N   UNK N   1      36.734  13.955  15.789  0.00  0.00    -0.234 N 
HETATM   18  C   UNK N   1      37.050  15.105  16.450  0.00  0.00     0.123 A 
HETATM   19  C   UNK N   1      36.408  15.444  17.641  0.00  0.00     0.020 A 
HETATM   20  C   UNK N   1      35.442  14.588  18.159  0.00  0.00     0.004 A 
HETATM   21  C   UNK N   1      35.131  13.411  17.486  0.00  0.00     0.034 A 
BRANCH  17  22
HETATM   22  O   UNK N   1      37.409  13.667  14.682  0.00  0.00    -0.283 OA
ATOM     23  HO  UNK N   1      37.684  12.767  14.549  1.00  0.00     0.245 HD
ENDBRANCH  17  22
ENDBRANCH  13  16
ENDBRANCH  12  13
ENDBRANCH  10  12
ENDBRANCH   1  10
BRANCH   3  24
HETATM   24  C   UNK N   1      36.015  15.454   9.715  0.00  0.00     0.236 C 
BRANCH  24  25
HETATM   25  C   UNK N   1      35.117  16.585  10.169  0.00  0.00     0.236 C 
HETATM   26  N   UNK N   1      34.576  17.441   9.276  0.00  0.00    -0.355 N 
HETATM   27  H   UNK N   1      34.158  18.270   9.606  0.00  0.00     0.162 HD
HETATM   28  O   UNK N   1      34.966  16.794  11.361  0.00  0.00    -0.272 OA
BRANCH  26  29
HETATM   29  C   UNK N   1      34.587  17.187   7.862  0.00  0.00     0.164 C 
BRANCH  29  30
HETATM   30  C   UNK N   1      33.169  17.336   7.475  0.00  0.00    -0.002 A 
HETATM   31  C   UNK N   1      32.186  17.309   8.468  0.00  0.00     0.012 A 
HETATM   32  C   UNK N   1      30.838  17.261   8.111  0.00  0.00     0.001 A 
HETATM   33  C   UNK N   1      30.474  17.216   6.762  0.00  0.00     0.003 A 
HETATM   34  C   UNK N   1      31.456  17.240   5.768  0.00  0.00     0.043 A 
HETATM   35  C   UNK N   1      32.805  17.300   6.120  0.00  0.00     0.124 A 
HETATM   36  F   UNK N   1      33.753  17.270   5.149  0.00  0.00    -0.205 F 
ENDBRANCH  29  30
ENDBRANCH  26  29
ENDBRANCH  24  25
ENDBRANCH   3  24
TORSDOF 9
ENDMDL
MODEL 5
REMARK VINA RESULT:      -7.6      7.768     11.582
REMARK  9 active torsions:
REMARK  status: ('A' for Active; 'I' for Inactive)
REMARK    1  A    between atoms: N_2  and  O_33 
REMARK    2  A    between atoms: C_3  and  C_7 
REMARK    3  A    between atoms: C_7  and  C_8 
REMARK    4  A    between atoms: C_8  and  N_11 
REMARK    5  A    between atoms: N_11  and  C_12 
REMARK    6  A    between atoms: N_14  and  C_19 
REMARK    7  A    between atoms: C_19  and  C_20 
REMARK       I    between atoms: C_20  and  N_21 
REMARK    8  A    between atoms: N_21  and  C_22 
REMARK    9  A    between atoms: C_22  and  C_23 
ROOT
HETATM    1  C   UNK N   1      24.870  15.776   6.125  0.00  0.00     0.171 A 
HETATM    2  C   UNK N   1      26.115  16.195   5.707  0.00  0.00     0.293 A 
HETATM    3  N   UNK N   1      26.252  17.377   5.009  0.00  0.00    -0.291 N 
HETATM    4  C   UNK N   1      25.140  18.096   4.672  0.00  0.00     0.124 A 
HETATM    5  C   UNK N   1      23.873  17.636   5.066  0.00  0.00     0.132 A 
HETATM    6  N   UNK N   1      23.761  16.492   5.803  0.00  0.00    -0.345 N 
ATOM      7  HN  UNK N   1      22.842  16.173   6.111  1.00  0.00     0.167 HD
HETATM    8  O   UNK N   1      27.089  15.516   5.988  0.00  0.00    -0.264 OA
HETATM    9 Cl   UNK N   1      25.266  19.589   3.743  0.00  0.00    -0.063 Cl
ENDROOT
BRANCH   1  10
HETATM   10  N   UNK N   1      24.836  14.605   6.907  0.00  0.00    -0.366 N 
HETATM   11  H   UNK N   1      25.665  14.073   6.912  0.00  0.00     0.161 HD
BRANCH  10  12
HETATM   12  C   UNK N   1      23.770  14.082   7.693  0.00  0.00     0.207 C 
BRANCH  12  13
HETATM   13  C   UNK N   1      24.405  13.218   8.793  0.00  0.00     0.303 C 
HETATM   14  F   UNK N   1      24.898  12.085   8.175  0.00  0.00    -0.197 F 
HETATM   15  F   UNK N   1      25.484  13.885   9.356  0.00  0.00    -0.197 F 
BRANCH  13  16
HETATM   16  C   UNK N   1      23.432  12.824   9.900  0.00  0.00     0.112 A 
HETATM   17  N   UNK N   1      23.847  12.259  11.087  0.00  0.00    -0.234 N 
HETATM   18  C   UNK N   1      22.946  11.888  12.041  0.00  0.00     0.123 A 
HETATM   19  C   UNK N   1      21.578  12.077  11.843  0.00  0.00     0.020 A 
HETATM   20  C   UNK N   1      21.136  12.641  10.652  0.00  0.00     0.004 A 
HETATM   21  C   UNK N   1      22.059  13.008   9.678  0.00  0.00     0.034 A 
BRANCH  17  22
HETATM   22  O   UNK N   1      25.132  12.017  11.316  0.00  0.00    -0.283 OA
ATOM     23  HO  UNK N   1      25.352  11.356  11.964  1.00  0.00     0.245 HD
ENDBRANCH  17  22
ENDBRANCH  13  16
ENDBRANCH  12  13
ENDBRANCH  10  12
ENDBRANCH   1  10
BRANCH   3  24
HETATM   24  C   UNK N   1      27.597  17.867   4.682  0.00  0.00     0.236 C 
BRANCH  24  25
HETATM   25  C   UNK N   1      28.206  18.505   5.913  0.00  0.00     0.236 C 
HETATM   26  N   UNK N   1      29.268  17.946   6.529  0.00  0.00    -0.355 N 
HETATM   27  H   UNK N   1      29.523  18.269   7.424  0.00  0.00     0.162 HD
HETATM   28  O   UNK N   1      27.666  19.474   6.419  0.00  0.00    -0.272 OA
BRANCH  26  29
HETATM   29  C   UNK N   1      30.043  16.896   5.926  0.00  0.00     0.164 C 
BRANCH  29  30
HETATM   30  C   UNK N   1      31.396  17.105   6.480  0.00  0.00    -0.002 A 
HETATM   31  C   UNK N   1      31.534  17.438   7.830  0.00  0.00     0.012 A 
HETATM   32  C   UNK N   1      32.780  17.820   8.328  0.00  0.00     0.001 A 
HETATM   33  C   UNK N   1      33.883  17.892   7.472  0.00  0.00     0.003 A 
HETATM   34  C   UNK N   1      33.745  17.563   6.121  0.00  0.00     0.043 A 
HETATM   35  C   UNK N   1      32.503  17.169   5.621  0.00  0.00     0.124 A 
HETATM   36  F   UNK N   1      32.368  16.900   4.297  0.00  0.00    -0.205 F 
ENDBRANCH  29  30
ENDBRANCH  26  29
ENDBRANCH  24  25
ENDBRANCH   3  24
TORSDOF 9
ENDMDL
MODEL 6
REMARK VINA RESULT:      -7.5      9.585     11.781
REMARK  9 active torsions:
REMARK  status: ('A' for Active; 'I' for Inactive)
REMARK    1  A    between atoms: N_2  and  O_33 
REMARK    2  A    between atoms: C_3  and  C_7 
REMARK    3  A    between atoms: C_7  and  C_8 
REMARK    4  A    between atoms: C_8  and  N_11 
REMARK    5  A    between atoms: N_11  and  C_12 
REMARK    6  A    between atoms: N_14  and  C_19 
REMARK    7  A    between atoms: C_19  and  C_20 
REMARK       I    between atoms: C_20  and  N_21 
REMARK    8  A    between atoms: N_21  and  C_22 
REMARK    9  A    between atoms: C_22  and  C_23 
ROOT
HETATM    1  C   UNK N   1      25.087  15.975   5.633  0.00  0.00     0.171 A 
HETATM    2  C   UNK N   1      23.991  15.361   6.203  0.00  0.00     0.293 A 
HETATM    3  N   UNK N   1      22.717  15.696   5.795  0.00  0.00    -0.291 N 
HETATM    4  C   UNK N   1      22.541  16.690   4.873  0.00  0.00     0.124 A 
HETATM    5  C   UNK N   1      23.664  17.337   4.331  0.00  0.00     0.132 A 
HETATM    6  N   UNK N   1      24.920  16.955   4.707  0.00  0.00    -0.345 N 
ATOM      7  HN  UNK N   1      25.735  17.409   4.293  1.00  0.00     0.167 HD
HETATM    8  O   UNK N   1      24.173  14.504   7.051  0.00  0.00    -0.264 OA
HETATM    9 Cl   UNK N   1      20.929  17.179   4.356  0.00  0.00    -0.063 Cl
ENDROOT
BRANCH   1  10
HETATM   10  N   UNK N   1      26.350  15.506   6.046  0.00  0.00    -0.366 N 
HETATM   11  H   UNK N   1      26.336  14.770   6.699  0.00  0.00     0.161 HD
BRANCH  10  12
HETATM   12  C   UNK N   1      27.643  15.950   5.651  0.00  0.00     0.207 C 
BRANCH  12  13
HETATM   13  C   UNK N   1      28.123  16.944   6.720  0.00  0.00     0.303 C 
HETATM   14  F   UNK N   1      27.436  16.643   7.881  0.00  0.00    -0.197 F 
HETATM   15  F   UNK N   1      29.473  16.750   6.977  0.00  0.00    -0.197 F 
BRANCH  13  16
HETATM   16  C   UNK N   1      27.894  18.405   6.345  0.00  0.00     0.112 A 
HETATM   17  N   UNK N   1      27.636  19.381   7.283  0.00  0.00    -0.234 N 
HETATM   18  C   UNK N   1      27.403  20.671   6.910  0.00  0.00     0.123 A 
HETATM   19  C   UNK N   1      27.424  21.039   5.564  0.00  0.00     0.020 A 
HETATM   20  C   UNK N   1      27.676  20.071   4.599  0.00  0.00     0.004 A 
HETATM   21  C   UNK N   1      27.905  18.754   4.986  0.00  0.00     0.034 A 
BRANCH  17  22
HETATM   22  O   UNK N   1      27.563  19.084   8.576  0.00  0.00    -0.283 OA
ATOM     23  HO  UNK N   1      26.829  18.557   8.871  1.00  0.00     0.245 HD
ENDBRANCH  17  22
ENDBRANCH  13  16
ENDBRANCH  12  13
ENDBRANCH  10  12
ENDBRANCH   1  10
BRANCH   3  24
HETATM   24  C   UNK N   1      21.572  14.945   6.324  0.00  0.00     0.236 C 
BRANCH  24  25
HETATM   25  C   UNK N   1      21.260  15.436   7.722  0.00  0.00     0.236 C 
HETATM   26  N   UNK N   1      20.989  14.566   8.717  0.00  0.00    -0.355 N 
HETATM   27  H   UNK N   1      20.607  14.909   9.558  0.00  0.00     0.162 HD
HETATM   28  O   UNK N   1      21.145  16.632   7.929  0.00  0.00    -0.272 OA
BRANCH  26  29
HETATM   29  C   UNK N   1      21.239  13.155   8.596  0.00  0.00     0.164 C 
BRANCH  29  30
HETATM   30  C   UNK N   1      22.027  12.840   9.804  0.00  0.00    -0.002 A 
HETATM   31  C   UNK N   1      23.416  12.725   9.700  0.00  0.00     0.012 A 
HETATM   32  C   UNK N   1      24.157  12.248  10.781  0.00  0.00     0.001 A 
HETATM   33  C   UNK N   1      23.509  11.864  11.958  0.00  0.00     0.003 A 
HETATM   34  C   UNK N   1      22.119  11.976  12.063  0.00  0.00     0.043 A 
HETATM   35  C   UNK N   1      21.375  12.463  10.988  0.00  0.00     0.124 A 
HETATM   36  F   UNK N   1      20.022  12.520  11.081  0.00  0.00    -0.205 F 
ENDBRANCH  29  30
ENDBRANCH  26  29
ENDBRANCH  24  25
ENDBRANCH   3  24
TORSDOF 9
ENDMDL
MODEL 7
REMARK VINA RESULT:      -7.5      1.975      9.664
REMARK  9 active torsions:
REMARK  status: ('A' for Active; 'I' for Inactive)
REMARK    1  A    between atoms: N_2  and  O_33 
REMARK    2  A    between atoms: C_3  and  C_7 
REMARK    3  A    between atoms: C_7  and  C_8 
REMARK    4  A    between atoms: C_8  and  N_11 
REMARK    5  A    between atoms: N_11  and  C_12 
REMARK    6  A    between atoms: N_14  and  C_19 
REMARK    7  A    between atoms: C_19  and  C_20 
REMARK       I    between atoms: C_20  and  N_21 
REMARK    8  A    between atoms: N_21  and  C_22 
REMARK    9  A    between atoms: C_22  and  C_23 
ROOT
HETATM    1  C   UNK N   1      36.675  14.346  12.044  0.00  0.00     0.171 A 
HETATM    2  C   UNK N   1      35.941  15.125  11.174  0.00  0.00     0.293 A 
HETATM    3  N   UNK N   1      36.062  14.946   9.812  0.00  0.00    -0.291 N 
HETATM    4  C   UNK N   1      36.963  14.041   9.326  0.00  0.00     0.124 A 
HETATM    5  C   UNK N   1      37.735  13.283  10.222  0.00  0.00     0.132 A 
HETATM    6  N   UNK N   1      37.564  13.436  11.568  0.00  0.00    -0.345 N 
ATOM      7  HN  UNK N   1      38.106  12.866  12.218  1.00  0.00     0.167 HD
HETATM    8  O   UNK N   1      35.172  15.953  11.633  0.00  0.00    -0.264 OA
HETATM    9 Cl   UNK N   1      37.180  13.811   7.591  0.00  0.00    -0.063 Cl
ENDROOT
BRANCH   1  10
HETATM   10  N   UNK N   1      36.421  14.536  13.417  0.00  0.00    -0.366 N 
HETATM   11  H   UNK N   1      36.916  15.274  13.841  0.00  0.00     0.161 HD
BRANCH  10  12
HETATM   12  C   UNK N   1      35.549  13.811  14.277  0.00  0.00     0.207 C 
BRANCH  12  13
HETATM   13  C   UNK N   1      36.360  13.435  15.527  0.00  0.00     0.303 C 
HETATM   14  F   UNK N   1      37.562  14.112  15.439  0.00  0.00    -0.197 F 
HETATM   15  F   UNK N   1      35.713  13.890  16.667  0.00  0.00    -0.197 F 
BRANCH  13  16
HETATM   16  C   UNK N   1      36.615  11.938  15.664  0.00  0.00     0.112 A 
HETATM   17  N   UNK N   1      37.524  11.264  14.876  0.00  0.00    -0.234 N 
HETATM   18  C   UNK N   1      37.703   9.919  15.003  0.00  0.00     0.123 A 
HETATM   19  C   UNK N   1      36.972   9.187  15.940  0.00  0.00     0.020 A 
HETATM   20  C   UNK N   1      36.046   9.844  16.743  0.00  0.00     0.004 A 
HETATM   21  C   UNK N   1      35.862  11.216  16.602  0.00  0.00     0.034 A 
BRANCH  17  22
HETATM   22  O   UNK N   1      38.219  11.898  13.939  0.00  0.00    -0.283 OA
ATOM     23  HO  UNK N   1      38.698  12.680  14.191  1.00  0.00     0.245 HD
ENDBRANCH  17  22
ENDBRANCH  13  16
ENDBRANCH  12  13
ENDBRANCH  10  12
ENDBRANCH   1  10
BRANCH   3  24
HETATM   24  C   UNK N   1      35.184  15.698   8.908  0.00  0.00     0.236 C 
BRANCH  24  25
HETATM   25  C   UNK N   1      33.816  15.050   8.891  0.00  0.00     0.236 C 
HETATM   26  N   UNK N   1      32.693  15.799   8.914  0.00  0.00    -0.355 N 
HETATM   27  H   UNK N   1      31.831  15.357   9.093  0.00  0.00     0.162 HD
HETATM   28  O   UNK N   1      33.723  13.836   8.966  0.00  0.00    -0.272 OA
BRANCH  26  29
HETATM   29  C   UNK N   1      32.711  17.218   8.686  0.00  0.00     0.164 C 
BRANCH  29  30
HETATM   30  C   UNK N   1      32.123  17.356   7.337  0.00  0.00    -0.002 A 
HETATM   31  C   UNK N   1      30.746  17.187   7.175  0.00  0.00     0.012 A 
HETATM   32  C   UNK N   1      30.199  17.129   5.893  0.00  0.00     0.001 A 
HETATM   33  C   UNK N   1      31.032  17.217   4.773  0.00  0.00     0.003 A 
HETATM   34  C   UNK N   1      32.410  17.383   4.935  0.00  0.00     0.043 A 
HETATM   35  C   UNK N   1      32.960  17.453   6.215  0.00  0.00     0.124 A 
HETATM   36  F   UNK N   1      34.305  17.562   6.362  0.00  0.00    -0.205 F 
ENDBRANCH  29  30
ENDBRANCH  26  29
ENDBRANCH  24  25
ENDBRANCH   3  24
TORSDOF 9
ENDMDL
MODEL 8
REMARK VINA RESULT:      -7.5      2.276      2.931
REMARK  9 active torsions:
REMARK  status: ('A' for Active; 'I' for Inactive)
REMARK    1  A    between atoms: N_2  and  O_33 
REMARK    2  A    between atoms: C_3  and  C_7 
REMARK    3  A    between atoms: C_7  and  C_8 
REMARK    4  A    between atoms: C_8  and  N_11 
REMARK    5  A    between atoms: N_11  and  C_12 
REMARK    6  A    between atoms: N_14  and  C_19 
REMARK    7  A    between atoms: C_19  and  C_20 
REMARK       I    between atoms: C_20  and  N_21 
REMARK    8  A    between atoms: N_21  and  C_22 
REMARK    9  A    between atoms: C_22  and  C_23 
ROOT
HETATM    1  C   UNK N   1      34.300  14.132   8.119  0.00  0.00     0.171 A 
HETATM    2  C   UNK N   1      34.161  14.303   9.480  0.00  0.00     0.293 A 
HETATM    3  N   UNK N   1      34.934  13.569  10.355  0.00  0.00    -0.291 N 
HETATM    4  C   UNK N   1      35.789  12.620   9.869  0.00  0.00     0.124 A 
HETATM    5  C   UNK N   1      35.891  12.425   8.482  0.00  0.00     0.132 A 
HETATM    6  N   UNK N   1      35.156  13.198   7.628  0.00  0.00    -0.345 N 
ATOM      7  HN  UNK N   1      35.251  13.074   6.620  1.00  0.00     0.167 HD
HETATM    8  O   UNK N   1      33.363  15.129   9.890  0.00  0.00    -0.264 OA
HETATM    9 Cl   UNK N   1      36.764  11.629  10.953  0.00  0.00    -0.063 Cl
ENDROOT
BRANCH   1  10
HETATM   10  N   UNK N   1      33.534  14.987   7.301  0.00  0.00    -0.366 N 
HETATM   11  H   UNK N   1      32.592  15.094   7.565  0.00  0.00     0.161 HD
BRANCH  10  12
HETATM   12  C   UNK N   1      33.934  15.717   6.147  0.00  0.00     0.207 C 
BRANCH  12  13
HETATM   13  C   UNK N   1      33.549  17.185   6.389  0.00  0.00     0.303 C 
HETATM   14  F   UNK N   1      34.498  17.708   7.247  0.00  0.00    -0.197 F 
HETATM   15  F   UNK N   1      33.629  17.898   5.201  0.00  0.00    -0.197 F 
BRANCH  13  16
HETATM   16  C   UNK N   1      32.156  17.363   6.983  0.00  0.00     0.112 A 
HETATM   17  N   UNK N   1      31.009  17.015   6.303  0.00  0.00    -0.234 N 
HETATM   18  C   UNK N   1      29.777  17.219   6.851  0.00  0.00     0.123 A 
HETATM   19  C   UNK N   1      29.646  17.783   8.120  0.00  0.00     0.020 A 
HETATM   20  C   UNK N   1      30.789  18.148   8.823  0.00  0.00     0.004 A 
HETATM   21  C   UNK N   1      32.043  17.945   8.254  0.00  0.00     0.034 A 
BRANCH  17  22
HETATM   22  O   UNK N   1      31.068  16.511   5.075  0.00  0.00    -0.283 OA
ATOM     23  HO  UNK N   1      31.924  16.417   4.673  1.00  0.00     0.245 HD
ENDBRANCH  17  22
ENDBRANCH  13  16
ENDBRANCH  12  13
ENDBRANCH  10  12
ENDBRANCH   1  10
BRANCH   3  24
HETATM   24  C   UNK N   1      34.860  13.853  11.793  0.00  0.00     0.236 C 
BRANCH  24  25
HETATM   25  C   UNK N   1      35.990  14.786  12.173  0.00  0.00     0.236 C 
HETATM   26  N   UNK N   1      36.707  14.583  13.299  0.00  0.00    -0.355 N 
HETATM   27  H   UNK N   1      37.301  15.300  13.620  0.00  0.00     0.162 HD
HETATM   28  O   UNK N   1      36.187  15.794  11.516  0.00  0.00    -0.272 OA
BRANCH  26  29
HETATM   29  C   UNK N   1      36.635  13.358  14.046  0.00  0.00     0.164 C 
BRANCH  29  30
HETATM   30  C   UNK N   1      36.184  13.796  15.383  0.00  0.00    -0.002 A 
HETATM   31  C   UNK N   1      36.896  14.798  16.047  0.00  0.00     0.012 A 
HETATM   32  C   UNK N   1      36.602  15.094  17.378  0.00  0.00     0.001 A 
HETATM   33  C   UNK N   1      35.611  14.374  18.052  0.00  0.00     0.003 A 
HETATM   34  C   UNK N   1      34.900  13.370  17.390  0.00  0.00     0.043 A 
HETATM   35  C   UNK N   1      35.183  13.077  16.055  0.00  0.00     0.124 A 
HETATM   36  F   UNK N   1      34.523  12.065  15.436  0.00  0.00    -0.205 F 
ENDBRANCH  29  30
ENDBRANCH  26  29
ENDBRANCH  24  25
ENDBRANCH   3  24
TORSDOF 9
ENDMDL
MODEL 9
REMARK VINA RESULT:      -7.4      2.443      9.651
REMARK  9 active torsions:
REMARK  status: ('A' for Active; 'I' for Inactive)
REMARK    1  A    between atoms: N_2  and  O_33 
REMARK    2  A    between atoms: C_3  and  C_7 
REMARK    3  A    between atoms: C_7  and  C_8 
REMARK    4  A    between atoms: C_8  and  N_11 
REMARK    5  A    between atoms: N_11  and  C_12 
REMARK    6  A    between atoms: N_14  and  C_19 
REMARK    7  A    between atoms: C_19  and  C_20 
REMARK       I    between atoms: C_20  and  N_21 
REMARK    8  A    between atoms: N_21  and  C_22 
REMARK    9  A    between atoms: C_22  and  C_23 
ROOT
HETATM    1  C   UNK N   1      36.109  14.076  11.752  0.00  0.00     0.171 A 
HETATM    2  C   UNK N   1      35.007  14.535  11.063  0.00  0.00     0.293 A 
HETATM    3  N   UNK N   1      35.059  14.686   9.693  0.00  0.00    -0.291 N 
HETATM    4  C   UNK N   1      36.229  14.446   9.029  0.00  0.00     0.124 A 
HETATM    5  C   UNK N   1      37.357  14.020   9.749  0.00  0.00     0.132 A 
HETATM    6  N   UNK N   1      37.273  13.824  11.098  0.00  0.00    -0.345 N 
ATOM      7  HN  UNK N   1      38.086  13.489  11.615  1.00  0.00     0.167 HD
HETATM    8  O   UNK N   1      33.985  14.779  11.683  0.00  0.00    -0.264 OA
HETATM    9 Cl   UNK N   1      36.351  14.669   7.285  0.00  0.00    -0.063 Cl
ENDROOT
BRANCH   1  10
HETATM   10  N   UNK N   1      35.937  13.867  13.135  0.00  0.00    -0.366 N 
HETATM   11  H   UNK N   1      36.225  14.608  13.715  0.00  0.00     0.161 HD
BRANCH  10  12
HETATM   12  C   UNK N   1      35.404  12.734  13.811  0.00  0.00     0.207 C 
BRANCH  12  13
HETATM   13  C   UNK N   1      36.310  12.465  15.022  0.00  0.00     0.303 C 
HETATM   14  F   UNK N   1      35.987  11.205  15.489  0.00  0.00    -0.197 F 
HETATM   15  F   UNK N   1      37.639  12.429  14.622  0.00  0.00    -0.197 F 
BRANCH  13  16
HETATM   16  C   UNK N   1      36.156  13.489  16.142  0.00  0.00     0.112 A 
HETATM   17  N   UNK N   1      36.857  14.676  16.163  0.00  0.00    -0.234 N 
HETATM   18  C   UNK N   1      36.719  15.554  17.197  0.00  0.00     0.123 A 
HETATM   19  C   UNK N   1      35.860  15.276  18.261  0.00  0.00     0.020 A 
HETATM   20  C   UNK N   1      35.147  14.082  18.264  0.00  0.00     0.004 A 
HETATM   21  C   UNK N   1      35.299  13.186  17.210  0.00  0.00     0.034 A 
BRANCH  17  22
HETATM   22  O   UNK N   1      37.720  14.979  15.201  0.00  0.00    -0.283 OA
ATOM     23  HO  UNK N   1      37.598  15.798  14.735  1.00  0.00     0.245 HD
ENDBRANCH  17  22
ENDBRANCH  13  16
ENDBRANCH  12  13
ENDBRANCH  10  12
ENDBRANCH   1  10
BRANCH   3  24
HETATM   24  C   UNK N   1      33.840  15.057   8.964  0.00  0.00     0.236 C 
BRANCH  24  25
HETATM   25  C   UNK N   1      33.720  16.566   8.933  0.00  0.00     0.236 C 
HETATM   26  N   UNK N   1      32.762  17.171   8.199  0.00  0.00    -0.355 N 
HETATM   27  H   UNK N   1      32.823  18.142   8.044  0.00  0.00     0.162 HD
HETATM   28  O   UNK N   1      34.564  17.250   9.488  0.00  0.00    -0.272 OA
BRANCH  26  29
HETATM   29  C   UNK N   1      31.654  16.449   7.636  0.00  0.00     0.164 C 
BRANCH  29  30
HETATM   30  C   UNK N   1      30.506  17.351   7.858  0.00  0.00    -0.002 A 
HETATM   31  C   UNK N   1      30.200  17.753   9.161  0.00  0.00     0.012 A 
HETATM   32  C   UNK N   1      29.018  18.449   9.414  0.00  0.00     0.001 A 
HETATM   33  C   UNK N   1      28.131  18.723   8.368  0.00  0.00     0.003 A 
HETATM   34  C   UNK N   1      28.435  18.318   7.065  0.00  0.00     0.043 A 
HETATM   35  C   UNK N   1      29.621  17.632   6.806  0.00  0.00     0.124 A 
HETATM   36  F   UNK N   1      29.883  17.198   5.547  0.00  0.00    -0.205 F 
ENDBRANCH  29  30
ENDBRANCH  26  29
ENDBRANCH  24  25
ENDBRANCH   3  24
TORSDOF 9
ENDMDL
