REMARK  9 active torsions:
REMARK  status: ('A' for Active; 'I' for Inactive)
REMARK    1  A    between atoms: N_2  and  O_33 
REMARK    2  A    between atoms: C_3  and  C_7 
REMARK    3  A    between atoms: C_7  and  C_8 
REMARK    4  A    between atoms: C_8  and  N_11 
REMARK    5  A    between atoms: N_11  and  C_12 
REMARK    6  A    between atoms: N_14  and  C_19 
REMARK    7  A    between atoms: C_19  and  C_20 
REMARK       I    between atoms: C_20  and  N_21 
REMARK    8  A    between atoms: N_21  and  C_22 
REMARK    9  A    between atoms: C_22  and  C_23 
ROOT
HETATM    1  C   UNK N   1      -2.540  -0.509   0.302  0.00  0.00     0.171 A 
HETATM    2  C   UNK N   1      -1.243  -0.976   0.339  0.00  0.00     0.293 A 
HETATM    3  N   UNK N   1      -0.960  -2.270  -0.045  0.00  0.00    -0.291 N 
HETATM    4  C   UNK N   1      -1.979  -3.110  -0.396  0.00  0.00     0.124 A 
HETATM    5  C   UNK N   1      -3.301  -2.635  -0.389  0.00  0.00     0.132 A 
HETATM    6  N   UNK N   1      -3.557  -1.335  -0.057  0.00  0.00    -0.345 N 
ATOM      7  HN  UNK N   1      -4.515  -0.984  -0.078  1.00  0.00     0.167 HD
HETATM    8  O   UNK N   1      -0.355  -0.218   0.693  0.00  0.00    -0.264 OA
HETATM    9 Cl   UNK N   1      -1.666  -4.784  -0.852  0.00  0.00    -0.063 Cl
ENDROOT
BRANCH   1  10
HETATM   10  N   UNK N   1      -2.723   0.850   0.626  0.00  0.00    -0.366 N 
HETATM   11  H   UNK N   1      -1.900   1.356   0.814  0.00  0.00     0.161 HD
BRANCH  10  12
HETATM   12  C   UNK N   1      -3.933   1.594   0.719  0.00  0.00     0.207 C 
BRANCH  12  13
HETATM   13  C   UNK N   1      -3.573   2.965   1.312  0.00  0.00     0.303 C 
HETATM   14  F   UNK N   1      -4.743   3.499   1.818  0.00  0.00    -0.197 F 
HETATM   15  F   UNK N   1      -2.697   2.806   2.377  0.00  0.00    -0.197 F 
BRANCH  13  16
HETATM   16  C   UNK N   1      -2.957   3.927   0.301  0.00  0.00     0.112 A 
HETATM   17  N   UNK N   1      -1.677   3.772  -0.186  0.00  0.00    -0.234 N 
HETATM   18  C   UNK N   1      -1.146   4.670  -1.064  0.00  0.00     0.123 A 
HETATM   19  C   UNK N   1      -1.888   5.769  -1.497  0.00  0.00     0.020 A 
HETATM   20  C   UNK N   1      -3.180   5.949  -1.015  0.00  0.00     0.004 A 
HETATM   21  C   UNK N   1      -3.713   5.034  -0.112  0.00  0.00     0.034 A 
BRANCH  17  22
HETATM   22  O   UNK N   1      -0.907   2.769   0.220  0.00  0.00    -0.283 OA
ATOM     23  HO  UNK N   1      -1.277   2.143   0.832  1.00  0.00     0.245 HD
ENDBRANCH  17  22
ENDBRANCH  13  16
ENDBRANCH  12  13
ENDBRANCH  10  12
ENDBRANCH   1  10
BRANCH   3  24
HETATM   24  C   UNK N   1       0.439  -2.709  -0.116  0.00  0.00     0.236 C 
BRANCH  24  25
HETATM   25  C   UNK N   1       1.253  -1.657  -0.839  0.00  0.00     0.236 C 
HETATM   26  N   UNK N   1       2.288  -1.041  -0.229  0.00  0.00    -0.355 N 
HETATM   27  H   UNK N   1       2.675  -0.237  -0.646  0.00  0.00     0.162 HD
HETATM   28  O   UNK N   1       0.906  -1.281  -1.946  0.00  0.00    -0.272 OA
BRANCH  26  29
HETATM   29  C   UNK N   1       2.846  -1.517   1.007  0.00  0.00     0.164 C 
BRANCH  29  30
HETATM   30  C   UNK N   1       4.090  -2.193   0.585  0.00  0.00    -0.002 A 
HETATM   31  C   UNK N   1       5.248  -1.433   0.401  0.00  0.00     0.012 A 
HETATM   32  C   UNK N   1       6.378  -2.016  -0.173  0.00  0.00     0.001 A 
HETATM   33  C   UNK N   1       6.343  -3.352  -0.584  0.00  0.00     0.003 A 
HETATM   34  C   UNK N   1       5.184  -4.112  -0.403  0.00  0.00     0.043 A 
HETATM   35  C   UNK N   1       4.055  -3.536   0.181  0.00  0.00     0.124 A 
HETATM   36  F   UNK N   1       2.918  -4.267   0.305  0.00  0.00    -0.205 F 
ENDBRANCH  29  30
ENDBRANCH  26  29
ENDBRANCH  24  25
ENDBRANCH   3  24
TORSDOF 9
