MODEL 1
REMARK VINA RESULT:      -6.1      0.000      0.000
REMARK  3 active torsions:
REMARK  status: ('A' for Active; 'I' for Inactive)
REMARK       I    between atoms: C_7  and  N_11 
REMARK       I    between atoms: C_10  and  N_18 
REMARK    1  A    between atoms: C_12  and  N_11 
REMARK    2  A    between atoms: C_12  and  C_15 
REMARK    3  A    between atoms: N_18  and  C_19 
ROOT
HETATM    1  C   UNK N   1      33.664  17.207   8.289  0.00  0.00     0.132 C 
HETATM    2  C   UNK N   1      34.602  18.352   8.378  0.00  0.00     0.091 C 
HETATM    3  N   UNK N   1      35.344  19.241   8.490  0.00  0.00    -0.195 NA
HETATM    4  C   UNK N   1      32.285  17.728   7.879  0.00  0.00     0.055 C 
ENDROOT
BRANCH   1   5
HETATM    5  N   UNK N   1      33.559  16.589   9.603  0.00  0.00    -0.204 N 
HETATM    6  C   UNK N   1      34.484  15.610  10.065  0.00  0.00     0.696 A 
HETATM    7  N   UNK N   1      35.548  15.272   9.293  0.00  0.00    -0.165 N 
HETATM    8  N   UNK N   1      34.385  15.113  11.330  0.00  0.00    -0.022 N 
HETATM    9  C   UNK N   1      36.512  14.455   9.765  0.00  0.00     0.208 A 
ATOM     10  HN  UNK N   1      35.618  15.640   8.344  1.00  0.00     0.186 HD
HETATM   11  N   UNK N   1      36.430  13.979  11.028  0.00  0.00    -0.165 N 
HETATM   12 Cl   UNK N   1      37.904  14.077   8.764  0.00  0.00    -0.044 Cl
HETATM   13  C   UNK N   1      35.363  14.293  11.812  0.00  0.00     0.694 A 
ATOM     14  HN  UNK N   1      37.171  13.381  11.395  1.00  0.00     0.186 HD
HETATM   15  N   UNK N   1      35.321  13.841  13.154  0.00  0.00    -0.226 N 
HETATM   16  H   UNK N   1      34.465  13.826  13.639  0.00  0.00     0.177 HD
ATOM     17  HN  UNK N   1      33.583  15.352  11.913  1.00  0.00     0.203 HD
HETATM   18  H   UNK N   1      32.820  16.859  10.196  0.00  0.00     0.179 HD
BRANCH  15  19
HETATM   19  C   UNK N   1      36.533  13.401  13.816  0.00  0.00     0.133 C 
HETATM   20  C   UNK N   1      36.568  13.853  15.266  0.00  0.00     0.027 C 
ENDBRANCH  15  19
ENDBRANCH   1   5
BRANCH   1  21
HETATM   21  C   UNK N   1      34.241  16.189   7.270  0.00  0.00     0.042 C 
HETATM   22  C   UNK N   1      34.024  16.528   5.795  0.00  0.00     0.009 C 
ENDBRANCH   1  21
TORSDOF 3
ENDMDL
MODEL 2
REMARK VINA RESULT:      -5.7      5.423      8.932
REMARK  3 active torsions:
REMARK  status: ('A' for Active; 'I' for Inactive)
REMARK       I    between atoms: C_7  and  N_11 
REMARK       I    between atoms: C_10  and  N_18 
REMARK    1  A    between atoms: C_12  and  N_11 
REMARK    2  A    between atoms: C_12  and  C_15 
REMARK    3  A    between atoms: N_18  and  C_19 
ROOT
HETATM    1  C   UNK N   1      32.670  16.688   6.718  0.00  0.00     0.132 C 
HETATM    2  C   UNK N   1      33.977  16.255   6.168  0.00  0.00     0.091 C 
HETATM    3  N   UNK N   1      34.989  15.926   5.698  0.00  0.00    -0.195 NA
HETATM    4  C   UNK N   1      31.999  15.493   7.398  0.00  0.00     0.055 C 
ENDROOT
BRANCH   1   5
HETATM    5  N   UNK N   1      31.827  17.133   5.617  0.00  0.00    -0.204 N 
HETATM    6  C   UNK N   1      30.480  17.552   5.805  0.00  0.00     0.696 A 
HETATM    7  N   UNK N   1      29.961  17.608   7.058  0.00  0.00    -0.165 N 
HETATM    8  N   UNK N   1      29.754  18.028   4.754  0.00  0.00    -0.022 N 
HETATM    9  C   UNK N   1      28.738  18.134   7.277  0.00  0.00     0.208 A 
ATOM     10  HN  UNK N   1      30.502  17.247   7.844  1.00  0.00     0.186 HD
HETATM   11  N   UNK N   1      28.025  18.630   6.239  0.00  0.00    -0.165 N 
HETATM   12 Cl   UNK N   1      28.113  18.242   8.914  0.00  0.00    -0.044 Cl
HETATM   13  C   UNK N   1      28.521  18.568   4.974  0.00  0.00     0.694 A 
ATOM     14  HN  UNK N   1      27.111  19.050   6.406  1.00  0.00     0.186 HD
HETATM   15  N   UNK N   1      27.793  19.148   3.905  0.00  0.00    -0.226 N 
HETATM   16  H   UNK N   1      27.993  18.887   2.978  0.00  0.00     0.177 HD
ATOM     17  HN  UNK N   1      30.132  17.980   3.808  1.00  0.00     0.203 HD
HETATM   18  H   UNK N   1      32.205  17.146   4.707  0.00  0.00     0.179 HD
BRANCH  15  19
HETATM   19  C   UNK N   1      26.756  20.125   4.172  0.00  0.00     0.133 C 
HETATM   20  C   UNK N   1      25.959  20.443   2.919  0.00  0.00     0.027 C 
ENDBRANCH  15  19
ENDBRANCH   1   5
BRANCH   1  21
HETATM   21  C   UNK N   1      32.925  17.863   7.698  0.00  0.00     0.042 C 
HETATM   22  C   UNK N   1      34.271  17.845   8.423  0.00  0.00     0.009 C 
ENDBRANCH   1  21
TORSDOF 3
ENDMDL
MODEL 3
REMARK VINA RESULT:      -5.7      2.875      6.782
REMARK  3 active torsions:
REMARK  status: ('A' for Active; 'I' for Inactive)
REMARK       I    between atoms: C_7  and  N_11 
REMARK       I    between atoms: C_10  and  N_18 
REMARK    1  A    between atoms: C_12  and  N_11 
REMARK    2  A    between atoms: C_12  and  C_15 
REMARK    3  A    between atoms: N_18  and  C_19 
ROOT
HETATM    1  C   UNK N   1      36.356  12.948  15.280  0.00  0.00     0.132 C 
HETATM    2  C   UNK N   1      37.015  14.245  15.569  0.00  0.00     0.091 C 
HETATM    3  N   UNK N   1      37.504  15.281  15.769  0.00  0.00    -0.195 NA
HETATM    4  C   UNK N   1      37.388  11.992  14.680  0.00  0.00     0.055 C 
ENDROOT
BRANCH   1   5
HETATM    5  N   UNK N   1      35.300  13.172  14.302  0.00  0.00    -0.204 N 
HETATM    6  C   UNK N   1      35.569  13.382  12.920  0.00  0.00     0.696 A 
HETATM    7  N   UNK N   1      36.846  13.313  12.464  0.00  0.00    -0.165 N 
HETATM    8  N   UNK N   1      34.544  13.515  12.032  0.00  0.00    -0.022 N 
HETATM    9  C   UNK N   1      37.112  13.368  11.142  0.00  0.00     0.208 A 
ATOM     10  HN  UNK N   1      37.613  13.218  13.129  1.00  0.00     0.186 HD
HETATM   11  N   UNK N   1      36.095  13.476  10.257  0.00  0.00    -0.165 N 
HETATM   12 Cl   UNK N   1      38.767  13.222  10.577  0.00  0.00    -0.044 Cl
HETATM   13  C   UNK N   1      34.810  13.563  10.695  0.00  0.00     0.694 A 
ATOM     14  HN  UNK N   1      36.292  13.492   9.257  1.00  0.00     0.186 HD
HETATM   15  N   UNK N   1      33.750  13.611   9.755  0.00  0.00    -0.226 N 
HETATM   16  H   UNK N   1      32.863  13.936  10.034  0.00  0.00     0.177 HD
ATOM     17  HN  UNK N   1      33.582  13.580  12.366  1.00  0.00     0.203 HD
HETATM   18  H   UNK N   1      34.364  13.176  14.608  0.00  0.00     0.179 HD
BRANCH  15  19
HETATM   19  C   UNK N   1      33.964  13.181   8.389  0.00  0.00     0.133 C 
HETATM   20  C   UNK N   1      33.023  13.891   7.430  0.00  0.00     0.027 C 
ENDBRANCH  15  19
ENDBRANCH   1   5
BRANCH   1  21
HETATM   21  C   UNK N   1      35.748  12.412  16.602  0.00  0.00     0.042 C 
HETATM   22  C   UNK N   1      34.964  13.426  17.434  0.00  0.00     0.009 C 
ENDBRANCH   1  21
TORSDOF 3
ENDMDL
MODEL 4
REMARK VINA RESULT:      -5.7      6.742      9.136
REMARK  3 active torsions:
REMARK  status: ('A' for Active; 'I' for Inactive)
REMARK       I    between atoms: C_7  and  N_11 
REMARK       I    between atoms: C_10  and  N_18 
REMARK    1  A    between atoms: C_12  and  N_11 
REMARK    2  A    between atoms: C_12  and  C_15 
REMARK    3  A    between atoms: N_18  and  C_19 
ROOT
HETATM    1  C   UNK N   1      26.546  19.859   4.211  0.00  0.00     0.132 C 
HETATM    2  C   UNK N   1      26.792  20.866   5.271  0.00  0.00     0.091 C 
HETATM    3  N   UNK N   1      27.027  21.645   6.102  0.00  0.00    -0.195 NA
HETATM    4  C   UNK N   1      25.559  18.816   4.738  0.00  0.00     0.055 C 
ENDROOT
BRANCH   1   5
HETATM    5  N   UNK N   1      27.805  19.196   3.899  0.00  0.00    -0.204 N 
HETATM    6  C   UNK N   1      28.630  18.610   4.900  0.00  0.00     0.696 A 
HETATM    7  N   UNK N   1      28.217  18.601   6.194  0.00  0.00    -0.165 N 
HETATM    8  N   UNK N   1      29.764  17.939   4.551  0.00  0.00    -0.022 N 
HETATM    9  C   UNK N   1      28.912  17.931   7.137  0.00  0.00     0.208 A 
ATOM     10  HN  UNK N   1      27.372  19.108   6.455  1.00  0.00     0.186 HD
HETATM   11  N   UNK N   1      30.024  17.244   6.789  0.00  0.00    -0.165 N 
HETATM   12 Cl   UNK N   1      28.326  17.892   8.791  0.00  0.00    -0.044 Cl
HETATM   13  C   UNK N   1      30.463  17.254   5.502  0.00  0.00     0.694 A 
ATOM     14  HN  UNK N   1      30.535  16.716   7.496  1.00  0.00     0.186 HD
HETATM   15  N   UNK N   1      31.592  16.477   5.139  0.00  0.00    -0.226 N 
HETATM   16  H   UNK N   1      32.074  16.675   4.304  0.00  0.00     0.177 HD
ATOM     17  HN  UNK N   1      30.088  17.949   3.584  1.00  0.00     0.203 HD
HETATM   18  H   UNK N   1      28.096  19.150   2.959  0.00  0.00     0.179 HD
BRANCH  15  19
HETATM   19  C   UNK N   1      32.039  15.394   5.991  0.00  0.00     0.133 C 
HETATM   20  C   UNK N   1      31.458  14.063   5.546  0.00  0.00     0.027 C 
ENDBRANCH  15  19
ENDBRANCH   1   5
BRANCH   1  21
HETATM   21  C   UNK N   1      26.013  20.599   2.957  0.00  0.00     0.042 C 
HETATM   22  C   UNK N   1      24.496  20.588   2.771  0.00  0.00     0.009 C 
ENDBRANCH   1  21
TORSDOF 3
ENDMDL
MODEL 5
REMARK VINA RESULT:      -5.6      2.125      6.259
REMARK  3 active torsions:
REMARK  status: ('A' for Active; 'I' for Inactive)
REMARK       I    between atoms: C_7  and  N_11 
REMARK       I    between atoms: C_10  and  N_18 
REMARK    1  A    between atoms: C_12  and  N_11 
REMARK    2  A    between atoms: C_12  and  C_15 
REMARK    3  A    between atoms: N_18  and  C_19 
ROOT
HETATM    1  C   UNK N   1      35.082  11.198  12.559  0.00  0.00     0.132 C 
HETATM    2  C   UNK N   1      36.306  11.478  13.346  0.00  0.00     0.091 C 
HETATM    3  N   UNK N   1      37.257  11.739  13.964  0.00  0.00    -0.195 NA
HETATM    4  C   UNK N   1      35.484  10.555  11.230  0.00  0.00     0.055 C 
ENDROOT
BRANCH   1   5
HETATM    5  N   UNK N   1      34.408  12.460  12.283  0.00  0.00    -0.204 N 
HETATM    6  C   UNK N   1      35.048  13.538  11.608  0.00  0.00     0.696 A 
HETATM    7  N   UNK N   1      36.312  13.383  11.137  0.00  0.00    -0.165 N 
HETATM    8  N   UNK N   1      34.354  14.672  11.310  0.00  0.00    -0.022 N 
HETATM    9  C   UNK N   1      36.887  14.334  10.373  0.00  0.00     0.208 A 
ATOM     10  HN  UNK N   1      36.833  12.536  11.365  1.00  0.00     0.186 HD
HETATM   11  N   UNK N   1      36.193  15.451  10.056  0.00  0.00    -0.165 N 
HETATM   12 Cl   UNK N   1      38.503  14.083   9.734  0.00  0.00    -0.044 Cl
HETATM   13  C   UNK N   1      34.931  15.632  10.531  0.00  0.00     0.694 A 
ATOM     14  HN  UNK N   1      36.617  16.159   9.458  1.00  0.00     0.186 HD
HETATM   15  N   UNK N   1      34.190  16.775  10.138  0.00  0.00    -0.226 N 
HETATM   16  H   UNK N   1      33.407  17.056  10.664  0.00  0.00     0.177 HD
ATOM     17  HN  UNK N   1      33.408  14.803  11.668  1.00  0.00     0.203 HD
HETATM   18  H   UNK N   1      33.474  12.572  12.574  0.00  0.00     0.179 HD
BRANCH  15  19
HETATM   19  C   UNK N   1      34.580  17.531   8.965  0.00  0.00     0.133 C 
HETATM   20  C   UNK N   1      33.531  17.437   7.870  0.00  0.00     0.027 C 
ENDBRANCH  15  19
ENDBRANCH   1   5
BRANCH   1  21
HETATM   21  C   UNK N   1      34.162  10.282  13.407  0.00  0.00     0.042 C 
HETATM   22  C   UNK N   1      33.605  10.902  14.689  0.00  0.00     0.009 C 
ENDBRANCH   1  21
TORSDOF 3
ENDMDL
MODEL 6
REMARK VINA RESULT:      -5.6      2.140      6.692
REMARK  3 active torsions:
REMARK  status: ('A' for Active; 'I' for Inactive)
REMARK       I    between atoms: C_7  and  N_11 
REMARK       I    between atoms: C_10  and  N_18 
REMARK    1  A    between atoms: C_12  and  N_11 
REMARK    2  A    between atoms: C_12  and  C_15 
REMARK    3  A    between atoms: N_18  and  C_19 
ROOT
HETATM    1  C   UNK N   1      35.617  12.655  14.538  0.00  0.00     0.132 C 
HETATM    2  C   UNK N   1      35.455  12.812  16.003  0.00  0.00     0.091 C 
HETATM    3  N   UNK N   1      35.327  12.978  17.147  0.00  0.00    -0.195 NA
HETATM    4  C   UNK N   1      36.954  11.969  14.258  0.00  0.00     0.055 C 
ENDROOT
BRANCH   1   5
HETATM    5  N   UNK N   1      35.632  13.978  13.928  0.00  0.00    -0.204 N 
HETATM    6  C   UNK N   1      35.404  14.182  12.538  0.00  0.00     0.696 A 
HETATM    7  N   UNK N   1      35.095  13.126  11.743  0.00  0.00    -0.165 N 
HETATM    8  N   UNK N   1      35.358  15.445  12.026  0.00  0.00    -0.022 N 
HETATM    9  C   UNK N   1      34.737  13.310  10.455  0.00  0.00     0.208 A 
ATOM     10  HN  UNK N   1      35.135  12.181  12.125  1.00  0.00     0.186 HD
HETATM   11  N   UNK N   1      34.666  14.564   9.951  0.00  0.00    -0.165 N 
HETATM   12 Cl   UNK N   1      34.291  11.931   9.466  0.00  0.00    -0.044 Cl
HETATM   13  C   UNK N   1      34.988  15.634  10.727  0.00  0.00     0.694 A 
ATOM     14  HN  UNK N   1      34.372  14.707   8.986  1.00  0.00     0.186 HD
HETATM   15  N   UNK N   1      34.848  16.945  10.206  0.00  0.00    -0.226 N 
HETATM   16  H   UNK N   1      35.316  17.696  10.639  0.00  0.00     0.177 HD
ATOM     17  HN  UNK N   1      35.599  16.244  12.612  1.00  0.00     0.203 HD
HETATM   18  H   UNK N   1      35.806  14.761  14.499  0.00  0.00     0.179 HD
BRANCH  15  19
HETATM   19  C   UNK N   1      34.019  17.186   9.043  0.00  0.00     0.133 C 
HETATM   20  C   UNK N   1      34.541  18.352   8.221  0.00  0.00     0.027 C 
ENDBRANCH  15  19
ENDBRANCH   1   5
BRANCH   1  21
HETATM   21  C   UNK N   1      34.409  11.841  14.004  0.00  0.00     0.042 C 
HETATM   22  C   UNK N   1      34.074  10.564  14.775  0.00  0.00     0.009 C 
ENDBRANCH   1  21
TORSDOF 3
ENDMDL
MODEL 7
REMARK VINA RESULT:      -5.6      1.786      2.740
REMARK  3 active torsions:
REMARK  status: ('A' for Active; 'I' for Inactive)
REMARK       I    between atoms: C_7  and  N_11 
REMARK       I    between atoms: C_10  and  N_18 
REMARK    1  A    between atoms: C_12  and  N_11 
REMARK    2  A    between atoms: C_12  and  C_15 
REMARK    3  A    between atoms: N_18  and  C_19 
ROOT
HETATM    1  C   UNK N   1      31.758  16.776   8.119  0.00  0.00     0.132 C 
HETATM    2  C   UNK N   1      31.686  15.671   7.133  0.00  0.00     0.091 C 
HETATM    3  N   UNK N   1      31.637  14.776   6.392  0.00  0.00    -0.195 NA
HETATM    4  C   UNK N   1      32.875  17.735   7.706  0.00  0.00     0.055 C 
ENDROOT
BRANCH   1   5
HETATM    5  N   UNK N   1      32.082  16.215   9.424  0.00  0.00    -0.204 N 
HETATM    6  C   UNK N   1      33.203  15.363   9.633  0.00  0.00     0.696 A 
HETATM    7  N   UNK N   1      34.053  15.103   8.607  0.00  0.00    -0.165 N 
HETATM    8  N   UNK N   1      33.506  14.920  10.886  0.00  0.00    -0.022 N 
HETATM    9  C   UNK N   1      35.196  14.416   8.813  0.00  0.00     0.208 A 
ATOM     10  HN  UNK N   1      33.823  15.430   7.668  1.00  0.00     0.186 HD
HETATM   11  N   UNK N   1      35.511  13.996  10.060  0.00  0.00    -0.165 N 
HETATM   12 Cl   UNK N   1      36.302  14.140   7.478  0.00  0.00    -0.044 Cl
HETATM   13  C   UNK N   1      34.665  14.233  11.098  0.00  0.00     0.694 A 
ATOM     14  HN  UNK N   1      36.387  13.499  10.221  1.00  0.00     0.186 HD
HETATM   15  N   UNK N   1      35.037  13.845  12.410  0.00  0.00    -0.226 N 
HETATM   16  H   UNK N   1      34.350  13.764  13.110  0.00  0.00     0.177 HD
ATOM     17  HN  UNK N   1      32.868  15.102  11.662  1.00  0.00     0.203 HD
HETATM   18  H   UNK N   1      31.504  16.434  10.190  0.00  0.00     0.179 HD
BRANCH  15  19
HETATM   19  C   UNK N   1      36.424  13.569  12.724  0.00  0.00     0.133 C 
HETATM   20  C   UNK N   1      36.654  13.522  14.226  0.00  0.00     0.027 C 
ENDBRANCH  15  19
ENDBRANCH   1   5
BRANCH   1  21
HETATM   21  C   UNK N   1      30.370  17.467   8.170  0.00  0.00     0.042 C 
HETATM   22  C   UNK N   1      30.247  18.641   9.142  0.00  0.00     0.009 C 
ENDBRANCH   1  21
TORSDOF 3
ENDMDL
MODEL 8
REMARK VINA RESULT:      -5.5      1.723      2.145
REMARK  3 active torsions:
REMARK  status: ('A' for Active; 'I' for Inactive)
REMARK       I    between atoms: C_7  and  N_11 
REMARK       I    between atoms: C_10  and  N_18 
REMARK    1  A    between atoms: C_12  and  N_11 
REMARK    2  A    between atoms: C_12  and  C_15 
REMARK    3  A    between atoms: N_18  and  C_19 
ROOT
HETATM    1  C   UNK N   1      34.086  17.165   8.599  0.00  0.00     0.132 C 
HETATM    2  C   UNK N   1      34.681  16.135   7.714  0.00  0.00     0.091 C 
HETATM    3  N   UNK N   1      35.170  15.311   7.053  0.00  0.00    -0.195 NA
HETATM    4  C   UNK N   1      34.486  18.549   8.087  0.00  0.00     0.055 C 
ENDROOT
BRANCH   1   5
HETATM    5  N   UNK N   1      34.623  16.989   9.942  0.00  0.00    -0.204 N 
HETATM    6  C   UNK N   1      34.694  15.718  10.578  0.00  0.00     0.696 A 
HETATM    7  N   UNK N   1      34.311  14.604   9.902  0.00  0.00    -0.165 N 
HETATM    8  N   UNK N   1      35.270  15.595  11.807  0.00  0.00    -0.022 N 
HETATM    9  C   UNK N   1      34.500  13.377  10.429  0.00  0.00     0.208 A 
ATOM     10  HN  UNK N   1      33.875  14.698   8.985  1.00  0.00     0.186 HD
HETATM   11  N   UNK N   1      35.094  13.249  11.638  0.00  0.00    -0.165 N 
HETATM   12 Cl   UNK N   1      34.044  11.952   9.511  0.00  0.00    -0.044 Cl
HETATM   13  C   UNK N   1      35.469  14.354  12.338  0.00  0.00     0.694 A 
ATOM     14  HN  UNK N   1      35.260  12.321  12.027  1.00  0.00     0.186 HD
HETATM   15  N   UNK N   1      36.148  14.205  13.573  0.00  0.00    -0.226 N 
HETATM   16  H   UNK N   1      36.186  14.959  14.205  0.00  0.00     0.177 HD
ATOM     17  HN  UNK N   1      35.551  16.426  12.327  1.00  0.00     0.203 HD
HETATM   18  H   UNK N   1      34.951  17.781  10.428  0.00  0.00     0.179 HD
BRANCH  15  19
HETATM   19  C   UNK N   1      36.787  12.949  13.910  0.00  0.00     0.133 C 
HETATM   20  C   UNK N   1      36.523  12.561  15.355  0.00  0.00     0.027 C 
ENDBRANCH  15  19
ENDBRANCH   1   5
BRANCH   1  21
HETATM   21  C   UNK N   1      32.549  16.958   8.613  0.00  0.00     0.042 C 
HETATM   22  C   UNK N   1      31.840  17.146   7.272  0.00  0.00     0.009 C 
ENDBRANCH   1  21
TORSDOF 3
ENDMDL
MODEL 9
REMARK VINA RESULT:      -5.4     15.532     18.868
REMARK  3 active torsions:
REMARK  status: ('A' for Active; 'I' for Inactive)
REMARK       I    between atoms: C_7  and  N_11 
REMARK       I    between atoms: C_10  and  N_18 
REMARK    1  A    between atoms: C_12  and  N_11 
REMARK    2  A    between atoms: C_12  and  C_15 
REMARK    3  A    between atoms: N_18  and  C_19 
ROOT
HETATM    1  C   UNK N   1      30.909  22.109  -4.254  0.00  0.00     0.132 C 
HETATM    2  C   UNK N   1      30.871  22.557  -2.841  0.00  0.00     0.091 C 
HETATM    3  N   UNK N   1      30.800  22.918  -1.738  0.00  0.00    -0.195 NA
HETATM    4  C   UNK N   1      31.933  22.954  -5.014  0.00  0.00     0.055 C 
ENDROOT
BRANCH   1   5
HETATM    5  N   UNK N   1      29.594  22.325  -4.845  0.00  0.00    -0.204 N 
HETATM    6  C   UNK N   1      28.920  23.576  -4.774  0.00  0.00     0.696 A 
HETATM    7  N   UNK N   1      29.532  24.641  -4.195  0.00  0.00    -0.165 N 
HETATM    8  N   UNK N   1      27.723  23.749  -5.404  0.00  0.00    -0.022 N 
HETATM    9  C   UNK N   1      28.974  25.868  -4.241  0.00  0.00     0.208 A 
ATOM     10  HN  UNK N   1      30.425  24.510  -3.720  1.00  0.00     0.186 HD
HETATM   11  N   UNK N   1      27.799  26.048  -4.886  0.00  0.00    -0.165 N 
HETATM   12 Cl   UNK N   1      29.814  27.236  -3.530  0.00  0.00    -0.044 Cl
HETATM   13  C   UNK N   1      27.161  24.991  -5.458  0.00  0.00     0.694 A 
ATOM     14  HN  UNK N   1      27.388  26.979  -4.943  1.00  0.00     0.186 HD
HETATM   15  N   UNK N   1      25.964  25.204  -6.185  0.00  0.00    -0.226 N 
HETATM   16  H   UNK N   1      25.362  24.447  -6.370  0.00  0.00     0.177 HD
ATOM     17  HN  UNK N   1      27.250  22.953  -5.832  1.00  0.00     0.203 HD
HETATM   18  H   UNK N   1      29.157  21.576  -5.312  0.00  0.00     0.179 HD
BRANCH  15  19
HETATM   19  C   UNK N   1      25.622  26.529  -6.660  0.00  0.00     0.133 C 
HETATM   20  C   UNK N   1      24.636  27.214  -5.729  0.00  0.00     0.027 C 
ENDBRANCH  15  19
ENDBRANCH   1   5
BRANCH   1  21
HETATM   21  C   UNK N   1      31.255  20.598  -4.272  0.00  0.00     0.042 C 
HETATM   22  C   UNK N   1      31.976  20.095  -5.522  0.00  0.00     0.009 C 
ENDBRANCH   1  21
TORSDOF 3
ENDMDL
