MODEL 1
REMARK VINA RESULT:      -6.0      0.000      0.000
REMARK  9 active torsions:
REMARK  status: ('A' for Active; 'I' for Inactive)
REMARK    1  A    between atoms: C_6  and  N_7 
REMARK       I    between atoms: N_7  and  C_8 
REMARK    2  A    between atoms: C_8  and  C_10 
REMARK    3  A    between atoms: C_10  and  C_11 
REMARK    4  A    between atoms: C_11  and  C_12 
REMARK    5  A    between atoms: C_12  and  C_13 
REMARK    6  A    between atoms: C_13  and  C_14 
REMARK    7  A    between atoms: C_14  and  C_15 
REMARK    8  A    between atoms: C_15  and  C_16 
REMARK    9  A    between atoms: C_16  and  C_18 
ROOT
HETATM    1  C   UNK N   1      27.251  22.382  -7.103  0.00  0.00     0.103 C 
ENDROOT
BRANCH   1   2
HETATM    2  C   UNK N   1      26.524  23.404  -6.299  0.00  0.00     0.222 C 
HETATM    3  N   UNK N   1      27.171  24.544  -5.943  0.00  0.00    -0.327 N 
HETATM    4  H   UNK N   1      28.118  24.618  -6.199  0.00  0.00     0.169 HD
HETATM    5  O   UNK N   1      25.342  23.232  -6.027  0.00  0.00    -0.273 OA
BRANCH   3   6
HETATM    6  C   UNK N   1      26.605  25.644  -5.236  0.00  0.00     0.034 A 
HETATM    7  C   UNK N   1      26.861  25.764  -3.866  0.00  0.00     0.029 A 
HETATM    8  C   UNK N   1      26.346  26.843  -3.141  0.00  0.00     0.002 A 
HETATM    9  C   UNK N   1      25.568  27.809  -3.783  0.00  0.00     0.000 A 
HETATM   10  C   UNK N   1      25.303  27.696  -5.150  0.00  0.00     0.002 A 
HETATM   11  C   UNK N   1      25.820  26.619  -5.875  0.00  0.00     0.029 A 
ENDBRANCH   3   6
ENDBRANCH   1   2
BRANCH   1  12
HETATM   12  C   UNK N   1      28.737  22.402  -6.810  0.00  0.00     0.009 C 
BRANCH  12  13
HETATM   13  C   UNK N   1      29.345  21.129  -7.366  0.00  0.00     0.000 C 
BRANCH  13  14
HETATM   14  C   UNK N   1      30.207  20.400  -6.335  0.00  0.00     0.000 C 
BRANCH  14  15
HETATM   15  C   UNK N   1      30.835  21.327  -5.284  0.00  0.00     0.008 C 
BRANCH  15  16
HETATM   16  C   UNK N   1      30.527  20.948  -3.832  0.00  0.00     0.088 C 
BRANCH  16  17
HETATM   17  C   UNK N   1      30.829  22.044  -2.850  0.00  0.00     0.232 C 
HETATM   18  O   UNK N   1      31.899  22.032  -2.261  0.00  0.00    -0.288 OA
BRANCH  17  19
HETATM   19  C   UNK N   1      29.853  23.159  -2.606  0.00  0.00     0.451 C 
HETATM   20  F   UNK N   1      28.830  23.082  -3.530  0.00  0.00    -0.163 F 
HETATM   21  F   UNK N   1      30.484  24.384  -2.735  0.00  0.00    -0.163 F 
HETATM   22  F   UNK N   1      29.327  23.062  -1.332  0.00  0.00    -0.163 F 
ENDBRANCH  17  19
ENDBRANCH  16  17
ENDBRANCH  15  16
ENDBRANCH  14  15
ENDBRANCH  13  14
ENDBRANCH  12  13
ENDBRANCH   1  12
TORSDOF 9
ENDMDL
MODEL 2
REMARK VINA RESULT:      -5.7      2.695      6.316
REMARK  9 active torsions:
REMARK  status: ('A' for Active; 'I' for Inactive)
REMARK    1  A    between atoms: C_6  and  N_7 
REMARK       I    between atoms: N_7  and  C_8 
REMARK    2  A    between atoms: C_8  and  C_10 
REMARK    3  A    between atoms: C_10  and  C_11 
REMARK    4  A    between atoms: C_11  and  C_12 
REMARK    5  A    between atoms: C_12  and  C_13 
REMARK    6  A    between atoms: C_13  and  C_14 
REMARK    7  A    between atoms: C_14  and  C_15 
REMARK    8  A    between atoms: C_15  and  C_16 
REMARK    9  A    between atoms: C_16  and  C_18 
ROOT
HETATM    1  C   UNK N   1      27.074  26.801  -4.419  0.00  0.00     0.103 C 
ENDROOT
BRANCH   1   2
HETATM    2  C   UNK N   1      27.585  25.468  -3.990  0.00  0.00     0.222 C 
HETATM    3  N   UNK N   1      28.791  25.047  -4.453  0.00  0.00    -0.327 N 
HETATM    4  H   UNK N   1      29.252  25.632  -5.096  0.00  0.00     0.169 HD
HETATM    5  O   UNK N   1      26.948  24.805  -3.182  0.00  0.00    -0.273 OA
BRANCH   3   6
HETATM    6  C   UNK N   1      29.451  23.838  -4.093  0.00  0.00     0.034 A 
HETATM    7  C   UNK N   1      29.418  22.762  -4.987  0.00  0.00     0.029 A 
HETATM    8  C   UNK N   1      30.076  21.567  -4.683  0.00  0.00     0.002 A 
HETATM    9  C   UNK N   1      30.771  21.439  -3.478  0.00  0.00     0.000 A 
HETATM   10  C   UNK N   1      30.807  22.504  -2.576  0.00  0.00     0.002 A 
HETATM   11  C   UNK N   1      30.152  23.700  -2.882  0.00  0.00     0.029 A 
ENDBRANCH   3   6
ENDBRANCH   1   2
BRANCH   1  12
HETATM   12  C   UNK N   1      25.560  26.847  -4.392  0.00  0.00     0.009 C 
BRANCH  12  13
HETATM   13  C   UNK N   1      25.062  26.849  -5.825  0.00  0.00     0.000 C 
BRANCH  13  14
HETATM   14  C   UNK N   1      26.206  26.901  -6.837  0.00  0.00     0.000 C 
BRANCH  14  15
HETATM   15  C   UNK N   1      25.925  26.125  -8.132  0.00  0.00     0.008 C 
BRANCH  15  16
HETATM   16  C   UNK N   1      26.553  24.729  -8.191  0.00  0.00     0.088 C 
BRANCH  16  17
HETATM   17  C   UNK N   1      25.571  23.618  -7.952  0.00  0.00     0.232 C 
HETATM   18  O   UNK N   1      24.590  23.531  -8.673  0.00  0.00    -0.288 OA
BRANCH  17  19
HETATM   19  C   UNK N   1      25.793  22.605  -6.866  0.00  0.00     0.451 C 
HETATM   20  F   UNK N   1      24.786  21.660  -6.910  0.00  0.00    -0.163 F 
HETATM   21  F   UNK N   1      25.777  23.220  -5.626  0.00  0.00    -0.163 F 
HETATM   22  F   UNK N   1      27.013  21.981  -7.037  0.00  0.00    -0.163 F 
ENDBRANCH  17  19
ENDBRANCH  16  17
ENDBRANCH  15  16
ENDBRANCH  14  15
ENDBRANCH  13  14
ENDBRANCH  12  13
ENDBRANCH   1  12
TORSDOF 9
ENDMDL
MODEL 3
REMARK VINA RESULT:      -5.7     17.905     21.091
REMARK  9 active torsions:
REMARK  status: ('A' for Active; 'I' for Inactive)
REMARK    1  A    between atoms: C_6  and  N_7 
REMARK       I    between atoms: N_7  and  C_8 
REMARK    2  A    between atoms: C_8  and  C_10 
REMARK    3  A    between atoms: C_10  and  C_11 
REMARK    4  A    between atoms: C_11  and  C_12 
REMARK    5  A    between atoms: C_12  and  C_13 
REMARK    6  A    between atoms: C_13  and  C_14 
REMARK    7  A    between atoms: C_14  and  C_15 
REMARK    8  A    between atoms: C_15  and  C_16 
REMARK    9  A    between atoms: C_16  and  C_18 
ROOT
HETATM    1  C   UNK N   1      36.114  11.958  12.326  0.00  0.00     0.103 C 
ENDROOT
BRANCH   1   2
HETATM    2  C   UNK N   1      35.775  12.791  13.514  0.00  0.00     0.222 C 
HETATM    3  N   UNK N   1      36.754  13.091  14.408  0.00  0.00    -0.327 N 
HETATM    4  H   UNK N   1      37.641  12.697  14.247  0.00  0.00     0.169 HD
HETATM    5  O   UNK N   1      34.644  13.245  13.635  0.00  0.00    -0.273 OA
BRANCH   3   6
HETATM    6  C   UNK N   1      36.616  13.924  15.555  0.00  0.00     0.034 A 
HETATM    7  C   UNK N   1      35.786  13.498  16.597  0.00  0.00     0.029 A 
HETATM    8  C   UNK N   1      35.644  14.274  17.752  0.00  0.00     0.002 A 
HETATM    9  C   UNK N   1      36.332  15.484  17.870  0.00  0.00     0.000 A 
HETATM   10  C   UNK N   1      37.158  15.921  16.832  0.00  0.00     0.002 A 
HETATM   11  C   UNK N   1      37.303  15.144  15.680  0.00  0.00     0.029 A 
ENDBRANCH   3   6
ENDBRANCH   1   2
BRANCH   1  12
HETATM   12  C   UNK N   1      37.047  12.691  11.385  0.00  0.00     0.009 C 
BRANCH  12  13
HETATM   13  C   UNK N   1      36.317  13.906  10.846  0.00  0.00     0.000 C 
BRANCH  13  14
HETATM   14  C   UNK N   1      36.754  14.263   9.426  0.00  0.00     0.000 C 
BRANCH  14  15
HETATM   15  C   UNK N   1      35.622  14.814   8.548  0.00  0.00     0.008 C 
BRANCH  15  16
HETATM   16  C   UNK N   1      34.552  15.608   9.306  0.00  0.00     0.088 C 
BRANCH  16  17
HETATM   17  C   UNK N   1      34.814  17.086   9.340  0.00  0.00     0.232 C 
HETATM   18  O   UNK N   1      35.496  17.545  10.242  0.00  0.00    -0.288 OA
BRANCH  17  19
HETATM   19  C   UNK N   1      34.277  17.995   8.272  0.00  0.00     0.451 C 
HETATM   20  F   UNK N   1      34.425  17.390   7.039  0.00  0.00    -0.163 F 
HETATM   21  F   UNK N   1      34.969  19.194   8.269  0.00  0.00    -0.163 F 
HETATM   22  F   UNK N   1      32.938  18.255   8.495  0.00  0.00    -0.163 F 
ENDBRANCH  17  19
ENDBRANCH  16  17
ENDBRANCH  15  16
ENDBRANCH  14  15
ENDBRANCH  13  14
ENDBRANCH  12  13
ENDBRANCH   1  12
TORSDOF 9
ENDMDL
MODEL 4
REMARK VINA RESULT:      -5.7      2.904      3.940
REMARK  9 active torsions:
REMARK  status: ('A' for Active; 'I' for Inactive)
REMARK    1  A    between atoms: C_6  and  N_7 
REMARK       I    between atoms: N_7  and  C_8 
REMARK    2  A    between atoms: C_8  and  C_10 
REMARK    3  A    between atoms: C_10  and  C_11 
REMARK    4  A    between atoms: C_11  and  C_12 
REMARK    5  A    between atoms: C_12  and  C_13 
REMARK    6  A    between atoms: C_13  and  C_14 
REMARK    7  A    between atoms: C_14  and  C_15 
REMARK    8  A    between atoms: C_15  and  C_16 
REMARK    9  A    between atoms: C_16  and  C_18 
ROOT
HETATM    1  C   UNK N   1      29.163  23.241  -2.568  0.00  0.00     0.103 C 
ENDROOT
BRANCH   1   2
HETATM    2  C   UNK N   1      27.939  23.985  -2.979  0.00  0.00     0.222 C 
HETATM    3  N   UNK N   1      28.043  24.950  -3.930  0.00  0.00    -0.327 N 
HETATM    4  H   UNK N   1      28.946  25.145  -4.270  0.00  0.00     0.169 HD
HETATM    5  O   UNK N   1      26.853  23.673  -2.507  0.00  0.00    -0.273 OA
BRANCH   3   6
HETATM    6  C   UNK N   1      26.968  25.704  -4.481  0.00  0.00     0.034 A 
HETATM    7  C   UNK N   1      26.569  26.877  -3.831  0.00  0.00     0.029 A 
HETATM    8  C   UNK N   1      25.535  27.660  -4.355  0.00  0.00     0.002 A 
HETATM    9  C   UNK N   1      24.891  27.272  -5.532  0.00  0.00     0.000 A 
HETATM   10  C   UNK N   1      25.279  26.100  -6.186  0.00  0.00     0.002 A 
HETATM   11  C   UNK N   1      26.314  25.319  -5.665  0.00  0.00     0.029 A 
ENDBRANCH   3   6
ENDBRANCH   1   2
BRANCH   1  12
HETATM   12  C   UNK N   1      30.419  23.931  -3.057  0.00  0.00     0.009 C 
BRANCH  12  13
HETATM   13  C   UNK N   1      31.422  22.863  -3.451  0.00  0.00     0.000 C 
BRANCH  13  14
HETATM   14  C   UNK N   1      30.843  21.454  -3.338  0.00  0.00     0.000 C 
BRANCH  14  15
HETATM   15  C   UNK N   1      30.889  20.657  -4.650  0.00  0.00     0.008 C 
BRANCH  15  16
HETATM   16  C   UNK N   1      30.821  21.511  -5.921  0.00  0.00     0.088 C 
BRANCH  16  17
HETATM   17  C   UNK N   1      29.432  21.651  -6.476  0.00  0.00     0.232 C 
HETATM   18  O   UNK N   1      28.708  22.533  -6.042  0.00  0.00    -0.288 OA
BRANCH  17  19
HETATM   19  C   UNK N   1      28.937  20.747  -7.568  0.00  0.00     0.451 C 
HETATM   20  F   UNK N   1      29.174  19.432  -7.215  0.00  0.00    -0.163 F 
HETATM   21  F   UNK N   1      29.598  21.019  -8.753  0.00  0.00    -0.163 F 
HETATM   22  F   UNK N   1      27.582  20.931  -7.762  0.00  0.00    -0.163 F 
ENDBRANCH  17  19
ENDBRANCH  16  17
ENDBRANCH  15  16
ENDBRANCH  14  15
ENDBRANCH  13  14
ENDBRANCH  12  13
ENDBRANCH   1  12
TORSDOF 9
ENDMDL
MODEL 5
REMARK VINA RESULT:      -5.6     10.734     12.294
REMARK  9 active torsions:
REMARK  status: ('A' for Active; 'I' for Inactive)
REMARK    1  A    between atoms: C_6  and  N_7 
REMARK       I    between atoms: N_7  and  C_8 
REMARK    2  A    between atoms: C_8  and  C_10 
REMARK    3  A    between atoms: C_10  and  C_11 
REMARK    4  A    between atoms: C_11  and  C_12 
REMARK    5  A    between atoms: C_12  and  C_13 
REMARK    6  A    between atoms: C_13  and  C_14 
REMARK    7  A    between atoms: C_14  and  C_15 
REMARK    8  A    between atoms: C_15  and  C_16 
REMARK    9  A    between atoms: C_16  and  C_18 
ROOT
HETATM    1  C   UNK N   1      29.931  16.013   3.343  0.00  0.00     0.103 C 
ENDROOT
BRANCH   1   2
HETATM    2  C   UNK N   1      28.873  16.839   3.991  0.00  0.00     0.222 C 
HETATM    3  N   UNK N   1      29.145  18.134   4.298  0.00  0.00    -0.327 N 
HETATM    4  H   UNK N   1      30.059  18.453   4.118  0.00  0.00     0.169 HD
HETATM    5  O   UNK N   1      27.760  16.363   4.176  0.00  0.00    -0.273 OA
BRANCH   3   6
HETATM    6  C   UNK N   1      28.232  19.074   4.855  0.00  0.00     0.034 A 
HETATM    7  C   UNK N   1      28.188  19.225   6.245  0.00  0.00     0.029 A 
HETATM    8  C   UNK N   1      27.324  20.156   6.830  0.00  0.00     0.002 A 
HETATM    9  C   UNK N   1      26.495  20.941   6.026  0.00  0.00     0.000 A 
HETATM   10  C   UNK N   1      26.527  20.796   4.638  0.00  0.00     0.002 A 
HETATM   11  C   UNK N   1      27.393  19.868   4.053  0.00  0.00     0.029 A 
ENDBRANCH   3   6
ENDBRANCH   1   2
BRANCH   1  12
HETATM   12  C   UNK N   1      31.204  16.806   3.139  0.00  0.00     0.009 C 
BRANCH  12  13
HETATM   13  C   UNK N   1      32.221  16.341   4.164  0.00  0.00     0.000 C 
BRANCH  13  14
HETATM   14  C   UNK N   1      33.015  17.502   4.761  0.00  0.00     0.000 C 
BRANCH  14  15
HETATM   15  C   UNK N   1      33.858  17.113   5.985  0.00  0.00     0.008 C 
BRANCH  15  16
HETATM   16  C   UNK N   1      33.578  17.941   7.244  0.00  0.00     0.088 C 
BRANCH  16  17
HETATM   17  C   UNK N   1      32.737  17.222   8.259  0.00  0.00     0.232 C 
HETATM   18  O   UNK N   1      33.277  16.442   9.028  0.00  0.00    -0.288 OA
BRANCH  17  19
HETATM   19  C   UNK N   1      31.259  17.469   8.360  0.00  0.00     0.451 C 
HETATM   20  F   UNK N   1      30.693  16.523   9.192  0.00  0.00    -0.163 F 
HETATM   21  F   UNK N   1      30.671  17.378   7.110  0.00  0.00    -0.163 F 
HETATM   22  F   UNK N   1      31.021  18.730   8.873  0.00  0.00    -0.163 F 
ENDBRANCH  17  19
ENDBRANCH  16  17
ENDBRANCH  15  16
ENDBRANCH  14  15
ENDBRANCH  13  14
ENDBRANCH  12  13
ENDBRANCH   1  12
TORSDOF 9
ENDMDL
MODEL 6
REMARK VINA RESULT:      -5.6     11.229     12.526
REMARK  9 active torsions:
REMARK  status: ('A' for Active; 'I' for Inactive)
REMARK    1  A    between atoms: C_6  and  N_7 
REMARK       I    between atoms: N_7  and  C_8 
REMARK    2  A    between atoms: C_8  and  C_10 
REMARK    3  A    between atoms: C_10  and  C_11 
REMARK    4  A    between atoms: C_11  and  C_12 
REMARK    5  A    between atoms: C_12  and  C_13 
REMARK    6  A    between atoms: C_13  and  C_14 
REMARK    7  A    between atoms: C_14  and  C_15 
REMARK    8  A    between atoms: C_15  and  C_16 
REMARK    9  A    between atoms: C_16  and  C_18 
ROOT
HETATM    1  C   UNK N   1      31.098  16.932   5.335  0.00  0.00     0.103 C 
ENDROOT
BRANCH   1   2
HETATM    2  C   UNK N   1      29.787  17.619   5.509  0.00  0.00     0.222 C 
HETATM    3  N   UNK N   1      29.258  18.302   4.461  0.00  0.00    -0.327 N 
HETATM    4  H   UNK N   1      29.799  18.350   3.640  0.00  0.00     0.169 HD
HETATM    5  O   UNK N   1      29.178  17.504   6.565  0.00  0.00    -0.273 OA
BRANCH   3   6
HETATM    6  C   UNK N   1      27.992  18.955   4.438  0.00  0.00     0.034 A 
HETATM    7  C   UNK N   1      26.912  18.303   3.834  0.00  0.00     0.029 A 
HETATM    8  C   UNK N   1      25.647  18.898   3.815  0.00  0.00     0.002 A 
HETATM    9  C   UNK N   1      25.455  20.152   4.398  0.00  0.00     0.000 A 
HETATM   10  C   UNK N   1      26.528  20.814   4.999  0.00  0.00     0.002 A 
HETATM   11  C   UNK N   1      27.792  20.218   5.022  0.00  0.00     0.029 A 
ENDBRANCH   3   6
ENDBRANCH   1   2
BRANCH   1  12
HETATM   12  C   UNK N   1      31.955  17.630   4.299  0.00  0.00     0.009 C 
BRANCH  12  13
HETATM   13  C   UNK N   1      32.982  16.637   3.788  0.00  0.00     0.000 C 
BRANCH  13  14
HETATM   14  C   UNK N   1      33.236  15.503   4.780  0.00  0.00     0.000 C 
BRANCH  14  15
HETATM   15  C   UNK N   1      34.673  15.462   5.321  0.00  0.00     0.008 C 
BRANCH  15  16
HETATM   16  C   UNK N   1      34.798  15.714   6.827  0.00  0.00     0.088 C 
BRANCH  16  17
HETATM   17  C   UNK N   1      34.220  17.029   7.265  0.00  0.00     0.232 C 
HETATM   18  O   UNK N   1      34.564  18.048   6.686  0.00  0.00    -0.288 OA
BRANCH  17  19
HETATM   19  C   UNK N   1      33.211  17.104   8.375  0.00  0.00     0.451 C 
HETATM   20  F   UNK N   1      32.473  18.264   8.244  0.00  0.00    -0.163 F 
HETATM   21  F   UNK N   1      33.850  17.114   9.603  0.00  0.00    -0.163 F 
HETATM   22  F   UNK N   1      32.364  16.014   8.323  0.00  0.00    -0.163 F 
ENDBRANCH  17  19
ENDBRANCH  16  17
ENDBRANCH  15  16
ENDBRANCH  14  15
ENDBRANCH  13  14
ENDBRANCH  12  13
ENDBRANCH   1  12
TORSDOF 9
ENDMDL
MODEL 7
REMARK VINA RESULT:      -5.5      2.939      3.882
REMARK  9 active torsions:
REMARK  status: ('A' for Active; 'I' for Inactive)
REMARK    1  A    between atoms: C_6  and  N_7 
REMARK       I    between atoms: N_7  and  C_8 
REMARK    2  A    between atoms: C_8  and  C_10 
REMARK    3  A    between atoms: C_10  and  C_11 
REMARK    4  A    between atoms: C_11  and  C_12 
REMARK    5  A    between atoms: C_12  and  C_13 
REMARK    6  A    between atoms: C_13  and  C_14 
REMARK    7  A    between atoms: C_14  and  C_15 
REMARK    8  A    between atoms: C_15  and  C_16 
REMARK    9  A    between atoms: C_16  and  C_18 
ROOT
HETATM    1  C   UNK N   1      28.939  23.263  -2.480  0.00  0.00     0.103 C 
ENDROOT
BRANCH   1   2
HETATM    2  C   UNK N   1      27.753  24.026  -2.960  0.00  0.00     0.222 C 
HETATM    3  N   UNK N   1      27.937  25.040  -3.846  0.00  0.00    -0.327 N 
HETATM    4  H   UNK N   1      28.865  25.253  -4.093  0.00  0.00     0.169 HD
HETATM    5  O   UNK N   1      26.630  23.690  -2.604  0.00  0.00    -0.273 OA
BRANCH   3   6
HETATM    6  C   UNK N   1      26.911  25.821  -4.451  0.00  0.00     0.034 A 
HETATM    7  C   UNK N   1      26.369  25.392  -5.666  0.00  0.00     0.029 A 
HETATM    8  C   UNK N   1      25.342  26.116  -6.279  0.00  0.00     0.002 A 
HETATM    9  C   UNK N   1      24.852  27.279  -5.680  0.00  0.00     0.000 A 
HETATM   10  C   UNK N   1      25.390  27.720  -4.469  0.00  0.00     0.002 A 
HETATM   11  C   UNK N   1      26.414  26.993  -3.854  0.00  0.00     0.029 A 
ENDBRANCH   3   6
ENDBRANCH   1   2
BRANCH   1  12
HETATM   12  C   UNK N   1      30.228  23.854  -3.009  0.00  0.00     0.009 C 
BRANCH  12  13
HETATM   13  C   UNK N   1      31.164  22.713  -3.358  0.00  0.00     0.000 C 
BRANCH  13  14
HETATM   14  C   UNK N   1      30.486  21.649  -4.221  0.00  0.00     0.000 C 
BRANCH  14  15
HETATM   15  C   UNK N   1      31.298  20.354  -4.362  0.00  0.00     0.008 C 
BRANCH  15  16
HETATM   16  C   UNK N   1      32.406  20.405  -5.420  0.00  0.00     0.088 C 
BRANCH  16  17
HETATM   17  C   UNK N   1      33.685  21.013  -4.920  0.00  0.00     0.232 C 
HETATM   18  O   UNK N   1      34.132  21.998  -5.486  0.00  0.00    -0.288 OA
BRANCH  17  19
HETATM   19  C   UNK N   1      34.399  20.449  -3.725  0.00  0.00     0.451 C 
HETATM   20  F   UNK N   1      34.290  19.071  -3.736  0.00  0.00    -0.163 F 
HETATM   21  F   UNK N   1      33.838  20.935  -2.557  0.00  0.00    -0.163 F 
HETATM   22  F   UNK N   1      35.734  20.801  -3.758  0.00  0.00    -0.163 F 
ENDBRANCH  17  19
ENDBRANCH  16  17
ENDBRANCH  15  16
ENDBRANCH  14  15
ENDBRANCH  13  14
ENDBRANCH  12  13
ENDBRANCH   1  12
TORSDOF 9
ENDMDL
MODEL 8
REMARK VINA RESULT:      -5.5      1.900      2.130
REMARK  9 active torsions:
REMARK  status: ('A' for Active; 'I' for Inactive)
REMARK    1  A    between atoms: C_6  and  N_7 
REMARK       I    between atoms: N_7  and  C_8 
REMARK    2  A    between atoms: C_8  and  C_10 
REMARK    3  A    between atoms: C_10  and  C_11 
REMARK    4  A    between atoms: C_11  and  C_12 
REMARK    5  A    between atoms: C_12  and  C_13 
REMARK    6  A    between atoms: C_13  and  C_14 
REMARK    7  A    between atoms: C_14  and  C_15 
REMARK    8  A    between atoms: C_15  and  C_16 
REMARK    9  A    between atoms: C_16  and  C_18 
ROOT
HETATM    1  C   UNK N   1      27.119  22.415  -8.108  0.00  0.00     0.103 C 
ENDROOT
BRANCH   1   2
HETATM    2  C   UNK N   1      26.464  23.299  -7.103  0.00  0.00     0.222 C 
HETATM    3  N   UNK N   1      27.044  24.489  -6.797  0.00  0.00    -0.327 N 
HETATM    4  H   UNK N   1      27.907  24.689  -7.226  0.00  0.00     0.169 HD
HETATM    5  O   UNK N   1      25.387  22.975  -6.619  0.00  0.00    -0.273 OA
BRANCH   3   6
HETATM    6  C   UNK N   1      26.519  25.475  -5.913  0.00  0.00     0.034 A 
HETATM    7  C   UNK N   1      26.951  25.483  -4.583  0.00  0.00     0.029 A 
HETATM    8  C   UNK N   1      26.481  26.451  -3.690  0.00  0.00     0.002 A 
HETATM    9  C   UNK N   1      25.570  27.418  -4.124  0.00  0.00     0.000 A 
HETATM   10  C   UNK N   1      25.128  27.416  -5.448  0.00  0.00     0.002 A 
HETATM   11  C   UNK N   1      25.601  26.450  -6.341  0.00  0.00     0.029 A 
ENDBRANCH   3   6
ENDBRANCH   1   2
BRANCH   1  12
HETATM   12  C   UNK N   1      27.896  21.300  -7.440  0.00  0.00     0.009 C 
BRANCH  12  13
HETATM   13  C   UNK N   1      29.372  21.637  -7.524  0.00  0.00     0.000 C 
BRANCH  13  14
HETATM   14  C   UNK N   1      30.151  21.138  -6.308  0.00  0.00     0.000 C 
BRANCH  14  15
HETATM   15  C   UNK N   1      30.030  22.049  -5.077  0.00  0.00     0.008 C 
BRANCH  15  16
HETATM   16  C   UNK N   1      30.190  21.332  -3.732  0.00  0.00     0.088 C 
BRANCH  16  17
HETATM   17  C   UNK N   1      31.422  21.741  -2.978  0.00  0.00     0.232 C 
HETATM   18  O   UNK N   1      31.307  22.491  -2.020  0.00  0.00    -0.288 OA
BRANCH  17  19
HETATM   19  C   UNK N   1      32.778  21.223  -3.362  0.00  0.00     0.451 C 
HETATM   20  F   UNK N   1      33.526  21.009  -2.221  0.00  0.00    -0.163 F 
HETATM   21  F   UNK N   1      33.433  22.143  -4.163  0.00  0.00    -0.163 F 
HETATM   22  F   UNK N   1      32.655  20.036  -4.058  0.00  0.00    -0.163 F 
ENDBRANCH  17  19
ENDBRANCH  16  17
ENDBRANCH  15  16
ENDBRANCH  14  15
ENDBRANCH  13  14
ENDBRANCH  12  13
ENDBRANCH   1  12
TORSDOF 9
ENDMDL
MODEL 9
REMARK VINA RESULT:      -5.4     11.024     14.174
REMARK  9 active torsions:
REMARK  status: ('A' for Active; 'I' for Inactive)
REMARK    1  A    between atoms: C_6  and  N_7 
REMARK       I    between atoms: N_7  and  C_8 
REMARK    2  A    between atoms: C_8  and  C_10 
REMARK    3  A    between atoms: C_10  and  C_11 
REMARK    4  A    between atoms: C_11  and  C_12 
REMARK    5  A    between atoms: C_12  and  C_13 
REMARK    6  A    between atoms: C_13  and  C_14 
REMARK    7  A    between atoms: C_14  and  C_15 
REMARK    8  A    between atoms: C_15  and  C_16 
REMARK    9  A    between atoms: C_16  and  C_18 
ROOT
HETATM    1  C   UNK N   1      28.563  18.314   7.521  0.00  0.00     0.103 C 
ENDROOT
BRANCH   1   2
HETATM    2  C   UNK N   1      29.849  18.115   8.247  0.00  0.00     0.222 C 
HETATM    3  N   UNK N   1      30.861  17.458   7.623  0.00  0.00    -0.327 N 
HETATM    4  H   UNK N   1      30.675  17.099   6.726  0.00  0.00     0.169 HD
HETATM    5  O   UNK N   1      29.997  18.599   9.362  0.00  0.00    -0.273 OA
BRANCH   3   6
HETATM    6  C   UNK N   1      32.168  17.241   8.146  0.00  0.00     0.034 A 
HETATM    7  C   UNK N   1      32.426  16.053   8.837  0.00  0.00     0.029 A 
HETATM    8  C   UNK N   1      33.703  15.791   9.343  0.00  0.00     0.002 A 
HETATM    9  C   UNK N   1      34.731  16.719   9.162  0.00  0.00     0.000 A 
HETATM   10  C   UNK N   1      34.483  17.911   8.478  0.00  0.00     0.002 A 
HETATM   11  C   UNK N   1      33.208  18.171   7.970  0.00  0.00     0.029 A 
ENDBRANCH   3   6
ENDBRANCH   1   2
BRANCH   1  12
HETATM   12  C   UNK N   1      28.659  17.842   6.086  0.00  0.00     0.009 C 
BRANCH  12  13
HETATM   13  C   UNK N   1      27.441  18.350   5.338  0.00  0.00     0.000 C 
BRANCH  13  14
HETATM   14  C   UNK N   1      27.779  19.502   4.394  0.00  0.00     0.000 C 
BRANCH  14  15
HETATM   15  C   UNK N   1      26.674  20.563   4.289  0.00  0.00     0.008 C 
BRANCH  15  16
HETATM   16  C   UNK N   1      25.820  20.476   3.019  0.00  0.00     0.088 C 
BRANCH  16  17
HETATM   17  C   UNK N   1      24.366  20.216   3.291  0.00  0.00     0.232 C 
HETATM   18  O   UNK N   1      23.549  21.079   3.011  0.00  0.00    -0.288 OA
BRANCH  17  19
HETATM   19  C   UNK N   1      23.905  18.909   3.871  0.00  0.00     0.451 C 
HETATM   20  F   UNK N   1      22.597  18.678   3.492  0.00  0.00    -0.163 F 
HETATM   21  F   UNK N   1      23.973  18.947   5.253  0.00  0.00    -0.163 F 
HETATM   22  F   UNK N   1      24.702  17.877   3.414  0.00  0.00    -0.163 F 
ENDBRANCH  17  19
ENDBRANCH  16  17
ENDBRANCH  15  16
ENDBRANCH  14  15
ENDBRANCH  13  14
ENDBRANCH  12  13
ENDBRANCH   1  12
TORSDOF 9
ENDMDL
