MODEL 1
REMARK VINA RESULT:      -6.7      0.000      0.000
REMARK  9 active torsions:
REMARK  status: ('A' for Active; 'I' for Inactive)
REMARK    1  A    between atoms: N_1  and  C_2 
REMARK    2  A    between atoms: C_3  and  N_1 
REMARK    3  A    between atoms: N_1  and  S_4 
REMARK    4  A    between atoms: C_2  and  C_5 
REMARK    5  A    between atoms: C_3  and  C_22 
REMARK    6  A    between atoms: C_3  and  C_24 
REMARK    7  A    between atoms: S_4  and  C_12 
REMARK    8  A    between atoms: C_15  and  O_18 
REMARK       I    between atoms: C_22  and  N_23 
REMARK    9  A    between atoms: N_23  and  O_28 
ROOT
HETATM    1  N   UNK N   1      20.622  17.673   2.928  0.00  0.00    -0.288 N 
ENDROOT
BRANCH   1   2
HETATM    2  C   UNK N   1      19.599  17.219   3.889  0.00  0.00     0.176 C 
BRANCH   2   3
HETATM    3  C   UNK N   1      20.161  16.478   5.069  0.00  0.00    -0.024 A 
HETATM    4  C   UNK N   1      21.182  17.031   5.850  0.00  0.00     0.011 A 
HETATM    5  C   UNK N   1      21.705  16.304   6.923  0.00  0.00     0.018 A 
HETATM    6  C   UNK N   1      21.203  15.030   7.197  0.00  0.00     0.087 A 
HETATM    7  N   UNK N   1      20.220  14.502   6.418  0.00  0.00    -0.375 N 
HETATM    8  C   UNK N   1      19.701  15.193   5.367  0.00  0.00     0.096 A 
ATOM      9  HN  UNK N   1      19.864  13.570   6.627  1.00  0.00     0.164 HD
ENDBRANCH   2   3
ENDBRANCH   1   2
BRANCH   1  10
HETATM   10  C   UNK N   1      21.101  16.786   1.840  0.00  0.00     0.193 C 
BRANCH  10  11
HETATM   11  C   UNK N   1      20.114  16.795   0.684  0.00  0.00     0.265 C 
HETATM   12  N   UNK N   1      18.983  16.055   0.754  0.00  0.00    -0.236 N 
HETATM   13  H   UNK N   1      18.793  15.540   1.571  0.00  0.00     0.197 HD
HETATM   14  O   UNK N   1      20.358  17.436  -0.332  0.00  0.00    -0.269 OA
BRANCH  12  15
HETATM   15  O   UNK N   1      18.118  16.012  -0.267  0.00  0.00    -0.287 OA
HETATM   16  H   UNK N   1      17.292  15.503  -0.239  0.00  0.00     0.244 HD
ENDBRANCH  12  15
ENDBRANCH  10  11
BRANCH  10  17
HETATM   17  C   UNK N   1      21.417  15.345   2.327  0.00  0.00     0.010 C 
HETATM   18  C   UNK N   1      21.475  14.336   1.189  0.00  0.00     0.012 C 
HETATM   19  C   UNK N   1      22.763  15.291   3.033  0.00  0.00     0.012 C 
ENDBRANCH  10  17
ENDBRANCH   1  10
BRANCH   1  20
HETATM   20  S   UNK N   1      21.453  19.248   3.127  0.00  0.00     0.261 S 
HETATM   21  O   UNK N   1      20.681  19.954   4.253  0.00  0.00    -0.200 OA
HETATM   22  O   UNK N   1      20.993  20.108   1.941  0.00  0.00    -0.200 OA
BRANCH  20  23
HETATM   23  C   UNK N   1      23.203  19.460   3.474  0.00  0.00     0.079 A 
HETATM   24  C   UNK N   1      23.913  20.503   2.868  0.00  0.00     0.028 A 
HETATM   25  C   UNK N   1      25.303  20.578   3.003  0.00  0.00     0.038 A 
HETATM   26  C   UNK N   1      25.998  19.602   3.739  0.00  0.00     0.068 A 
HETATM   27  C   UNK N   1      25.281  18.571   4.356  0.00  0.00     0.038 A 
HETATM   28  C   UNK N   1      23.892  18.494   4.215  0.00  0.00     0.028 A 
BRANCH  26  29
HETATM   29  O   UNK N   1      27.348  19.621   3.849  0.00  0.00    -0.356 OA
HETATM   30  C   UNK N   1      28.061  18.680   4.557  0.00  0.00     0.210 C 
ENDBRANCH  26  29
ENDBRANCH  20  23
ENDBRANCH   1  20
TORSDOF 9
ENDMDL
MODEL 2
REMARK VINA RESULT:      -6.5      9.034     12.145
REMARK  9 active torsions:
REMARK  status: ('A' for Active; 'I' for Inactive)
REMARK    1  A    between atoms: N_1  and  C_2 
REMARK    2  A    between atoms: C_3  and  N_1 
REMARK    3  A    between atoms: N_1  and  S_4 
REMARK    4  A    between atoms: C_2  and  C_5 
REMARK    5  A    between atoms: C_3  and  C_22 
REMARK    6  A    between atoms: C_3  and  C_24 
REMARK    7  A    between atoms: S_4  and  C_12 
REMARK    8  A    between atoms: C_15  and  O_18 
REMARK       I    between atoms: C_22  and  N_23 
REMARK    9  A    between atoms: N_23  and  O_28 
ROOT
HETATM    1  N   UNK N   1      32.762  15.804   6.057  0.00  0.00    -0.288 N 
ENDROOT
BRANCH   1   2
HETATM    2  C   UNK N   1      31.554  15.409   6.805  0.00  0.00     0.176 C 
BRANCH   2   3
HETATM    3  C   UNK N   1      30.771  16.568   7.351  0.00  0.00    -0.024 A 
HETATM    4  C   UNK N   1      31.206  17.262   8.486  0.00  0.00     0.011 A 
HETATM    5  C   UNK N   1      30.439  18.318   8.989  0.00  0.00     0.018 A 
HETATM    6  C   UNK N   1      29.244  18.660   8.352  0.00  0.00     0.087 A 
HETATM    7  N   UNK N   1      28.830  17.964   7.258  0.00  0.00    -0.375 N 
HETATM    8  C   UNK N   1      29.561  16.932   6.757  0.00  0.00     0.096 A 
ATOM      9  HN  UNK N   1      27.954  18.222   6.805  1.00  0.00     0.164 HD
ENDBRANCH   2   3
ENDBRANCH   1   2
BRANCH   1  10
HETATM   10  C   UNK N   1      32.818  15.701   4.578  0.00  0.00     0.193 C 
BRANCH  10  11
HETATM   11  C   UNK N   1      31.845  16.684   3.948  0.00  0.00     0.265 C 
HETATM   12  N   UNK N   1      30.724  16.232   3.340  0.00  0.00    -0.236 N 
HETATM   13  H   UNK N   1      30.531  15.267   3.340  0.00  0.00     0.197 HD
HETATM   14  O   UNK N   1      32.093  17.885   3.947  0.00  0.00    -0.269 OA
BRANCH  12  15
HETATM   15  O   UNK N   1      29.872  17.073   2.740  0.00  0.00    -0.287 OA
HETATM   16  H   UNK N   1      28.926  16.883   2.637  0.00  0.00     0.244 HD
ENDBRANCH  12  15
ENDBRANCH  10  11
BRANCH  10  17
HETATM   17  C   UNK N   1      32.600  14.253   4.062  0.00  0.00     0.010 C 
HETATM   18  C   UNK N   1      33.145  14.037   2.658  0.00  0.00     0.012 C 
HETATM   19  C   UNK N   1      33.294  13.243   4.964  0.00  0.00     0.012 C 
ENDBRANCH  10  17
ENDBRANCH   1  10
BRANCH   1  20
HETATM   20  S   UNK N   1      34.273  16.267   6.904  0.00  0.00     0.261 S 
HETATM   21  O   UNK N   1      34.379  17.787   6.704  0.00  0.00    -0.200 OA
HETATM   22  O   UNK N   1      35.414  15.820   5.979  0.00  0.00    -0.200 OA
BRANCH  20  23
HETATM   23  C   UNK N   1      34.636  15.934   8.632  0.00  0.00     0.079 A 
HETATM   24  C   UNK N   1      34.895  16.995   9.506  0.00  0.00     0.028 A 
HETATM   25  C   UNK N   1      35.336  16.740  10.809  0.00  0.00     0.038 A 
HETATM   26  C   UNK N   1      35.532  15.417  11.245  0.00  0.00     0.068 A 
HETATM   27  C   UNK N   1      35.256  14.360  10.371  0.00  0.00     0.038 A 
HETATM   28  C   UNK N   1      34.821  14.617   9.066  0.00  0.00     0.028 A 
BRANCH  26  29
HETATM   29  O   UNK N   1      36.002  15.139  12.485  0.00  0.00    -0.356 OA
HETATM   30  C   UNK N   1      36.386  13.878  12.881  0.00  0.00     0.210 C 
ENDBRANCH  26  29
ENDBRANCH  20  23
ENDBRANCH   1  20
TORSDOF 9
ENDMDL
MODEL 3
REMARK VINA RESULT:      -6.5      2.849      5.787
REMARK  9 active torsions:
REMARK  status: ('A' for Active; 'I' for Inactive)
REMARK    1  A    between atoms: N_1  and  C_2 
REMARK    2  A    between atoms: C_3  and  N_1 
REMARK    3  A    between atoms: N_1  and  S_4 
REMARK    4  A    between atoms: C_2  and  C_5 
REMARK    5  A    between atoms: C_3  and  C_22 
REMARK    6  A    between atoms: C_3  and  C_24 
REMARK    7  A    between atoms: S_4  and  C_12 
REMARK    8  A    between atoms: C_15  and  O_18 
REMARK       I    between atoms: C_22  and  N_23 
REMARK    9  A    between atoms: N_23  and  O_28 
ROOT
HETATM    1  N   UNK N   1      21.986  17.399   4.747  0.00  0.00    -0.288 N 
ENDROOT
BRANCH   1   2
HETATM    2  C   UNK N   1      22.419  16.289   3.877  0.00  0.00     0.176 C 
BRANCH   2   3
HETATM    3  C   UNK N   1      21.317  15.337   3.513  0.00  0.00    -0.024 A 
HETATM    4  C   UNK N   1      21.348  14.002   3.933  0.00  0.00     0.011 A 
HETATM    5  C   UNK N   1      20.322  13.132   3.553  0.00  0.00     0.018 A 
HETATM    6  C   UNK N   1      19.283  13.608   2.750  0.00  0.00     0.087 A 
HETATM    7  N   UNK N   1      19.277  14.905   2.339  0.00  0.00    -0.375 N 
HETATM    8  C   UNK N   1      20.268  15.766   2.697  0.00  0.00     0.096 A 
ATOM      9  HN  UNK N   1      18.513  15.239   1.751  1.00  0.00     0.164 HD
ENDBRANCH   2   3
ENDBRANCH   1   2
BRANCH   1  10
HETATM   10  C   UNK N   1      22.322  18.807   4.421  0.00  0.00     0.193 C 
BRANCH  10  11
HETATM   11  C   UNK N   1      21.204  19.436   3.606  0.00  0.00     0.265 C 
HETATM   12  N   UNK N   1      20.994  19.041   2.329  0.00  0.00    -0.236 N 
HETATM   13  H   UNK N   1      21.549  18.323   1.948  0.00  0.00     0.197 HD
HETATM   14  O   UNK N   1      20.519  20.332   4.085  0.00  0.00    -0.269 OA
BRANCH  12  15
HETATM   15  O   UNK N   1      20.044  19.609   1.576  0.00  0.00    -0.287 OA
HETATM   16  H   UNK N   1      19.279  19.120   1.232  0.00  0.00     0.244 HD
ENDBRANCH  12  15
ENDBRANCH  10  11
BRANCH  10  17
HETATM   17  C   UNK N   1      23.705  18.956   3.731  0.00  0.00     0.010 C 
HETATM   18  C   UNK N   1      23.936  20.351   3.167  0.00  0.00     0.012 C 
HETATM   19  C   UNK N   1      24.836  18.683   4.710  0.00  0.00     0.012 C 
ENDBRANCH  10  17
ENDBRANCH   1  10
BRANCH   1  20
HETATM   20  S   UNK N   1      21.184  17.090   6.320  0.00  0.00     0.261 S 
HETATM   21  O   UNK N   1      19.694  16.939   5.972  0.00  0.00    -0.200 OA
HETATM   22  O   UNK N   1      21.131  18.452   7.027  0.00  0.00    -0.200 OA
BRANCH  20  23
HETATM   23  C   UNK N   1      21.600  15.758   7.452  0.00  0.00     0.079 A 
HETATM   24  C   UNK N   1      22.627  14.865   7.130  0.00  0.00     0.028 A 
HETATM   25  C   UNK N   1      22.850  13.734   7.923  0.00  0.00     0.038 A 
HETATM   26  C   UNK N   1      22.036  13.482   9.042  0.00  0.00     0.068 A 
HETATM   27  C   UNK N   1      21.021  14.388   9.369  0.00  0.00     0.038 A 
HETATM   28  C   UNK N   1      20.797  15.515   8.571  0.00  0.00     0.028 A 
BRANCH  26  29
HETATM   29  O   UNK N   1      22.196  12.372   9.803  0.00  0.00    -0.356 OA
HETATM   30  C   UNK N   1      22.799  12.386  11.040  0.00  0.00     0.210 C 
ENDBRANCH  26  29
ENDBRANCH  20  23
ENDBRANCH   1  20
TORSDOF 9
ENDMDL
MODEL 4
REMARK VINA RESULT:      -6.5      8.757     13.325
REMARK  9 active torsions:
REMARK  status: ('A' for Active; 'I' for Inactive)
REMARK    1  A    between atoms: N_1  and  C_2 
REMARK    2  A    between atoms: C_3  and  N_1 
REMARK    3  A    between atoms: N_1  and  S_4 
REMARK    4  A    between atoms: C_2  and  C_5 
REMARK    5  A    between atoms: C_3  and  C_22 
REMARK    6  A    between atoms: C_3  and  C_24 
REMARK    7  A    between atoms: S_4  and  C_12 
REMARK    8  A    between atoms: C_15  and  O_18 
REMARK       I    between atoms: C_22  and  N_23 
REMARK    9  A    between atoms: N_23  and  O_28 
ROOT
HETATM    1  N   UNK N   1      34.006  15.356   7.996  0.00  0.00    -0.288 N 
ENDROOT
BRANCH   1   2
HETATM    2  C   UNK N   1      34.598  16.419   7.161  0.00  0.00     0.176 C 
BRANCH   2   3
HETATM    3  C   UNK N   1      34.050  16.469   5.763  0.00  0.00    -0.024 A 
HETATM    4  C   UNK N   1      33.343  17.587   5.305  0.00  0.00     0.011 A 
HETATM    5  C   UNK N   1      32.820  17.592   4.008  0.00  0.00     0.018 A 
HETATM    6  C   UNK N   1      33.006  16.475   3.190  0.00  0.00     0.087 A 
HETATM    7  N   UNK N   1      33.685  15.392   3.659  0.00  0.00    -0.375 N 
HETATM    8  C   UNK N   1      34.198  15.367   4.918  0.00  0.00     0.096 A 
ATOM      9  HN  UNK N   1      33.811  14.582   3.052  1.00  0.00     0.164 HD
ENDBRANCH   2   3
ENDBRANCH   1   2
BRANCH   1  10
HETATM   10  C   UNK N   1      34.859  14.357   8.685  0.00  0.00     0.193 C 
BRANCH  10  11
HETATM   11  C   UNK N   1      34.863  14.617  10.183  0.00  0.00     0.265 C 
HETATM   12  N   UNK N   1      34.444  13.655  11.037  0.00  0.00    -0.236 N 
HETATM   13  H   UNK N   1      34.170  12.779  10.682  0.00  0.00     0.197 HD
HETATM   14  O   UNK N   1      35.201  15.711  10.619  0.00  0.00    -0.269 OA
BRANCH  12  15
HETATM   15  O   UNK N   1      34.398  13.873  12.357  0.00  0.00    -0.287 OA
HETATM   16  H   UNK N   1      34.459  14.759  12.749  0.00  0.00     0.244 HD
ENDBRANCH  12  15
ENDBRANCH  10  11
BRANCH  10  17
HETATM   17  C   UNK N   1      36.296  14.280   8.101  0.00  0.00     0.010 C 
HETATM   18  C   UNK N   1      37.340  13.915   9.147  0.00  0.00     0.012 C 
HETATM   19  C   UNK N   1      36.383  13.228   7.006  0.00  0.00     0.012 C 
ENDBRANCH  10  17
ENDBRANCH   1  10
BRANCH   1  20
HETATM   20  S   UNK N   1      32.231  15.118   8.081  0.00  0.00     0.261 S 
HETATM   21  O   UNK N   1      31.948  14.846   9.568  0.00  0.00    -0.200 OA
HETATM   22  O   UNK N   1      31.980  13.709   7.525  0.00  0.00    -0.200 OA
BRANCH  20  23
HETATM   23  C   UNK N   1      30.999  16.297   7.516  0.00  0.00     0.079 A 
HETATM   24  C   UNK N   1      30.649  17.382   8.327  0.00  0.00     0.028 A 
HETATM   25  C   UNK N   1      29.580  18.211   7.970  0.00  0.00     0.038 A 
HETATM   26  C   UNK N   1      28.843  17.952   6.799  0.00  0.00     0.068 A 
HETATM   27  C   UNK N   1      29.209  16.875   5.984  0.00  0.00     0.038 A 
HETATM   28  C   UNK N   1      30.274  16.045   6.347  0.00  0.00     0.028 A 
BRANCH  26  29
HETATM   29  O   UNK N   1      27.774  18.707   6.450  0.00  0.00    -0.356 OA
HETATM   30  C   UNK N   1      27.571  19.987   6.914  0.00  0.00     0.210 C 
ENDBRANCH  26  29
ENDBRANCH  20  23
ENDBRANCH   1  20
TORSDOF 9
ENDMDL
MODEL 5
REMARK VINA RESULT:      -6.4     11.865     14.083
REMARK  9 active torsions:
REMARK  status: ('A' for Active; 'I' for Inactive)
REMARK    1  A    between atoms: N_1  and  C_2 
REMARK    2  A    between atoms: C_3  and  N_1 
REMARK    3  A    between atoms: N_1  and  S_4 
REMARK    4  A    between atoms: C_2  and  C_5 
REMARK    5  A    between atoms: C_3  and  C_22 
REMARK    6  A    between atoms: C_3  and  C_24 
REMARK    7  A    between atoms: S_4  and  C_12 
REMARK    8  A    between atoms: C_15  and  O_18 
REMARK       I    between atoms: C_22  and  N_23 
REMARK    9  A    between atoms: N_23  and  O_28 
ROOT
HETATM    1  N   UNK N   1      26.882  23.671  -8.426  0.00  0.00    -0.288 N 
ENDROOT
BRANCH   1   2
HETATM    2  C   UNK N   1      27.988  23.217  -7.562  0.00  0.00     0.176 C 
BRANCH   2   3
HETATM    3  C   UNK N   1      27.955  23.799  -6.177  0.00  0.00    -0.024 A 
HETATM    4  C   UNK N   1      26.855  23.601  -5.336  0.00  0.00     0.011 A 
HETATM    5  C   UNK N   1      26.841  24.180  -4.064  0.00  0.00     0.018 A 
HETATM    6  C   UNK N   1      27.927  24.956  -3.654  0.00  0.00     0.087 A 
HETATM    7  N   UNK N   1      28.983  25.150  -4.491  0.00  0.00    -0.375 N 
HETATM    8  C   UNK N   1      29.012  24.597  -5.733  0.00  0.00     0.096 A 
ATOM      9  HN  UNK N   1      29.768  25.721  -4.179  1.00  0.00     0.164 HD
ENDBRANCH   2   3
ENDBRANCH   1   2
BRANCH   1  10
HETATM   10  C   UNK N   1      26.107  22.711  -9.249  0.00  0.00     0.193 C 
BRANCH  10  11
HETATM   11  C   UNK N   1      25.342  21.751  -8.353  0.00  0.00     0.265 C 
HETATM   12  N   UNK N   1      24.309  22.203  -7.604  0.00  0.00    -0.236 N 
HETATM   13  H   UNK N   1      24.041  23.148  -7.671  0.00  0.00     0.197 HD
HETATM   14  O   UNK N   1      25.683  20.577  -8.271  0.00  0.00    -0.269 OA
BRANCH  12  15
HETATM   15  O   UNK N   1      23.646  21.388  -6.774  0.00  0.00    -0.287 OA
HETATM   16  H   UNK N   1      23.691  21.468  -5.808  0.00  0.00     0.244 HD
ENDBRANCH  12  15
ENDBRANCH  10  11
BRANCH  10  17
HETATM   17  C   UNK N   1      26.981  21.964 -10.294  0.00  0.00     0.010 C 
HETATM   18  C   UNK N   1      26.154  21.230 -11.340  0.00  0.00     0.012 C 
HETATM   19  C   UNK N   1      27.882  22.933 -11.044  0.00  0.00     0.012 C 
ENDBRANCH  10  17
ENDBRANCH   1  10
BRANCH   1  20
HETATM   20  S   UNK N   1      26.531  25.414  -8.652  0.00  0.00     0.261 S 
HETATM   21  O   UNK N   1      25.259  25.445  -9.513  0.00  0.00    -0.200 OA
HETATM   22  O   UNK N   1      27.544  25.904  -9.697  0.00  0.00    -0.200 OA
BRANCH  20  23
HETATM   23  C   UNK N   1      26.300  26.605  -7.326  0.00  0.00     0.079 A 
HETATM   24  C   UNK N   1      27.312  27.527  -7.034  0.00  0.00     0.028 A 
HETATM   25  C   UNK N   1      27.210  28.347  -5.905  0.00  0.00     0.038 A 
HETATM   26  C   UNK N   1      26.097  28.243  -5.051  0.00  0.00     0.068 A 
HETATM   27  C   UNK N   1      25.081  27.332  -5.358  0.00  0.00     0.038 A 
HETATM   28  C   UNK N   1      25.188  26.508  -6.484  0.00  0.00     0.028 A 
BRANCH  26  29
HETATM   29  O   UNK N   1      25.992  28.990  -3.926  0.00  0.00    -0.356 OA
HETATM   30  C   UNK N   1      26.485  30.271  -3.821  0.00  0.00     0.210 C 
ENDBRANCH  26  29
ENDBRANCH  20  23
ENDBRANCH   1  20
TORSDOF 9
ENDMDL
MODEL 6
REMARK VINA RESULT:      -6.4      8.649     12.935
REMARK  9 active torsions:
REMARK  status: ('A' for Active; 'I' for Inactive)
REMARK    1  A    between atoms: N_1  and  C_2 
REMARK    2  A    between atoms: C_3  and  N_1 
REMARK    3  A    between atoms: N_1  and  S_4 
REMARK    4  A    between atoms: C_2  and  C_5 
REMARK    5  A    between atoms: C_3  and  C_22 
REMARK    6  A    between atoms: C_3  and  C_24 
REMARK    7  A    between atoms: S_4  and  C_12 
REMARK    8  A    between atoms: C_15  and  O_18 
REMARK       I    between atoms: C_22  and  N_23 
REMARK    9  A    between atoms: N_23  and  O_28 
ROOT
HETATM    1  N   UNK N   1      33.376  16.425   8.145  0.00  0.00    -0.288 N 
ENDROOT
BRANCH   1   2
HETATM    2  C   UNK N   1      34.280  16.989   7.125  0.00  0.00     0.176 C 
BRANCH   2   3
HETATM    3  C   UNK N   1      33.866  16.688   5.713  0.00  0.00    -0.024 A 
HETATM    4  C   UNK N   1      33.177  17.634   4.945  0.00  0.00     0.011 A 
HETATM    5  C   UNK N   1      32.779  17.314   3.644  0.00  0.00     0.018 A 
HETATM    6  C   UNK N   1      33.070  16.048   3.131  0.00  0.00     0.087 A 
HETATM    7  N   UNK N   1      33.728  15.136   3.898  0.00  0.00    -0.375 N 
HETATM    8  C   UNK N   1      34.120  15.428   5.167  0.00  0.00     0.096 A 
ATOM      9  HN  UNK N   1      33.931  14.214   3.512  1.00  0.00     0.164 HD
ENDBRANCH   2   3
ENDBRANCH   1   2
BRANCH   1  10
HETATM   10  C   UNK N   1      33.873  15.474   9.170  0.00  0.00     0.193 C 
BRANCH  10  11
HETATM   11  C   UNK N   1      35.029  16.090   9.939  0.00  0.00     0.265 C 
HETATM   12  N   UNK N   1      36.200  15.421  10.051  0.00  0.00    -0.236 N 
HETATM   13  H   UNK N   1      36.304  14.551   9.604  0.00  0.00     0.197 HD
HETATM   14  O   UNK N   1      34.893  17.173  10.498  0.00  0.00    -0.269 OA
BRANCH  12  15
HETATM   15  O   UNK N   1      37.220  15.923  10.759  0.00  0.00    -0.287 OA
HETATM   16  H   UNK N   1      37.145  16.162  11.697  0.00  0.00     0.244 HD
ENDBRANCH  12  15
ENDBRANCH  10  11
BRANCH  10  17
HETATM   17  C   UNK N   1      34.237  14.084   8.581  0.00  0.00     0.010 C 
HETATM   18  C   UNK N   1      34.558  13.053   9.654  0.00  0.00     0.012 C 
HETATM   19  C   UNK N   1      33.088  13.521   7.758  0.00  0.00     0.012 C 
ENDBRANCH  10  17
ENDBRANCH   1  10
BRANCH   1  20
HETATM   20  S   UNK N   1      31.610  16.726   8.095  0.00  0.00     0.261 S 
HETATM   21  O   UNK N   1      31.459  18.208   8.477  0.00  0.00    -0.200 OA
HETATM   22  O   UNK N   1      31.048  16.087   9.373  0.00  0.00    -0.200 OA
BRANCH  20  23
HETATM   23  C   UNK N   1      30.549  16.437   6.673  0.00  0.00     0.079 A 
HETATM   24  C   UNK N   1      30.569  15.194   6.031  0.00  0.00     0.028 A 
HETATM   25  C   UNK N   1      29.872  15.012   4.831  0.00  0.00     0.038 A 
HETATM   26  C   UNK N   1      29.156  16.078   4.259  0.00  0.00     0.068 A 
HETATM   27  C   UNK N   1      29.126  17.314   4.915  0.00  0.00     0.038 A 
HETATM   28  C   UNK N   1      29.829  17.495   6.111  0.00  0.00     0.028 A 
BRANCH  26  29
HETATM   29  O   UNK N   1      28.509  15.947   3.076  0.00  0.00    -0.356 OA
HETATM   30  C   UNK N   1      28.797  14.957   2.164  0.00  0.00     0.210 C 
ENDBRANCH  26  29
ENDBRANCH  20  23
ENDBRANCH   1  20
TORSDOF 9
ENDMDL
MODEL 7
REMARK VINA RESULT:      -6.4     12.398     13.265
REMARK  9 active torsions:
REMARK  status: ('A' for Active; 'I' for Inactive)
REMARK    1  A    between atoms: N_1  and  C_2 
REMARK    2  A    between atoms: C_3  and  N_1 
REMARK    3  A    between atoms: N_1  and  S_4 
REMARK    4  A    between atoms: C_2  and  C_5 
REMARK    5  A    between atoms: C_3  and  C_22 
REMARK    6  A    between atoms: C_3  and  C_24 
REMARK    7  A    between atoms: S_4  and  C_12 
REMARK    8  A    between atoms: C_15  and  O_18 
REMARK       I    between atoms: C_22  and  N_23 
REMARK    9  A    between atoms: N_23  and  O_28 
ROOT
HETATM    1  N   UNK N   1      27.067  23.552  -7.010  0.00  0.00    -0.288 N 
ENDROOT
BRANCH   1   2
HETATM    2  C   UNK N   1      26.048  23.604  -5.944  0.00  0.00     0.176 C 
BRANCH   2   3
HETATM    3  C   UNK N   1      25.967  24.931  -5.245  0.00  0.00    -0.024 A 
HETATM    4  C   UNK N   1      26.519  25.111  -3.972  0.00  0.00     0.011 A 
HETATM    5  C   UNK N   1      26.401  26.350  -3.334  0.00  0.00     0.018 A 
HETATM    6  C   UNK N   1      25.725  27.389  -3.978  0.00  0.00     0.087 A 
HETATM    7  N   UNK N   1      25.182  27.191  -5.210  0.00  0.00    -0.375 N 
HETATM    8  C   UNK N   1      25.284  25.992  -5.844  0.00  0.00     0.096 A 
ATOM      9  HN  UNK N   1      24.689  27.958  -5.667  1.00  0.00     0.164 HD
ENDBRANCH   2   3
ENDBRANCH   1   2
BRANCH   1  10
HETATM   10  C   UNK N   1      26.711  23.151  -8.393  0.00  0.00     0.193 C 
BRANCH  10  11
HETATM   11  C   UNK N   1      25.659  24.091  -8.957  0.00  0.00     0.265 C 
HETATM   12  N   UNK N   1      26.032  25.260  -9.528  0.00  0.00    -0.236 N 
HETATM   13  H   UNK N   1      26.990  25.476  -9.604  0.00  0.00     0.197 HD
HETATM   14  O   UNK N   1      24.468  23.818  -8.856  0.00  0.00    -0.269 OA
BRANCH  12  15
HETATM   15  O   UNK N   1      25.123  26.126  -9.994  0.00  0.00    -0.287 OA
HETATM   16  H   UNK N   1      24.452  26.541  -9.429  0.00  0.00     0.244 HD
ENDBRANCH  12  15
ENDBRANCH  10  11
BRANCH  10  17
HETATM   17  C   UNK N   1      26.283  21.662  -8.502  0.00  0.00     0.010 C 
HETATM   18  C   UNK N   1      25.962  21.242  -9.929  0.00  0.00     0.012 C 
HETATM   19  C   UNK N   1      27.387  20.739  -8.008  0.00  0.00     0.012 C 
ENDBRANCH  10  17
ENDBRANCH   1  10
BRANCH   1  20
HETATM   20  S   UNK N   1      28.805  23.806  -6.651  0.00  0.00     0.261 S 
HETATM   21  O   UNK N   1      28.971  25.333  -6.604  0.00  0.00    -0.200 OA
HETATM   22  O   UNK N   1      29.541  23.521  -7.968  0.00  0.00    -0.200 OA
BRANCH  20  23
HETATM   23  C   UNK N   1      29.678  23.135  -5.231  0.00  0.00     0.079 A 
HETATM   24  C   UNK N   1      30.119  23.991  -4.217  0.00  0.00     0.028 A 
HETATM   25  C   UNK N   1      30.938  23.504  -3.192  0.00  0.00     0.038 A 
HETATM   26  C   UNK N   1      31.332  22.153  -3.182  0.00  0.00     0.068 A 
HETATM   27  C   UNK N   1      30.874  21.299  -4.190  0.00  0.00     0.038 A 
HETATM   28  C   UNK N   1      30.061  21.790  -5.217  0.00  0.00     0.028 A 
BRANCH  26  29
HETATM   29  O   UNK N   1      32.161  21.661  -2.230  0.00  0.00    -0.356 OA
HETATM   30  C   UNK N   1      33.337  21.007  -2.518  0.00  0.00     0.210 C 
ENDBRANCH  26  29
ENDBRANCH  20  23
ENDBRANCH   1  20
TORSDOF 9
ENDMDL
MODEL 8
REMARK VINA RESULT:      -6.4     12.164     13.721
REMARK  9 active torsions:
REMARK  status: ('A' for Active; 'I' for Inactive)
REMARK    1  A    between atoms: N_1  and  C_2 
REMARK    2  A    between atoms: C_3  and  N_1 
REMARK    3  A    between atoms: N_1  and  S_4 
REMARK    4  A    between atoms: C_2  and  C_5 
REMARK    5  A    between atoms: C_3  and  C_22 
REMARK    6  A    between atoms: C_3  and  C_24 
REMARK    7  A    between atoms: S_4  and  C_12 
REMARK    8  A    between atoms: C_15  and  O_18 
REMARK       I    between atoms: C_22  and  N_23 
REMARK    9  A    between atoms: N_23  and  O_28 
ROOT
HETATM    1  N   UNK N   1      26.769  24.298  -6.617  0.00  0.00    -0.288 N 
ENDROOT
BRANCH   1   2
HETATM    2  C   UNK N   1      26.965  23.919  -5.205  0.00  0.00     0.176 C 
BRANCH   2   3
HETATM    3  C   UNK N   1      28.349  24.192  -4.690  0.00  0.00    -0.024 A 
HETATM    4  C   UNK N   1      28.716  25.468  -4.248  0.00  0.00     0.011 A 
HETATM    5  C   UNK N   1      30.021  25.698  -3.801  0.00  0.00     0.018 A 
HETATM    6  C   UNK N   1      30.943  24.649  -3.810  0.00  0.00     0.087 A 
HETATM    7  N   UNK N   1      30.571  23.418  -4.257  0.00  0.00    -0.375 N 
HETATM    8  C   UNK N   1      29.308  23.176  -4.698  0.00  0.00     0.096 A 
ATOM      9  HN  UNK N   1      31.255  22.662  -4.261  1.00  0.00     0.164 HD
ENDBRANCH   2   3
ENDBRANCH   1   2
BRANCH   1  10
HETATM   10  C   UNK N   1      26.612  23.268  -7.674  0.00  0.00     0.193 C 
BRANCH  10  11
HETATM   11  C   UNK N   1      25.187  22.739  -7.682  0.00  0.00     0.265 C 
HETATM   12  N   UNK N   1      24.767  21.914  -6.696  0.00  0.00    -0.236 N 
HETATM   13  H   UNK N   1      25.381  21.688  -5.960  0.00  0.00     0.197 HD
HETATM   14  O   UNK N   1      24.429  23.020  -8.603  0.00  0.00    -0.269 OA
BRANCH  12  15
HETATM   15  O   UNK N   1      23.530  21.400  -6.702  0.00  0.00    -0.287 OA
HETATM   16  H   UNK N   1      23.066  21.152  -7.517  0.00  0.00     0.244 HD
ENDBRANCH  12  15
ENDBRANCH  10  11
BRANCH  10  17
HETATM   17  C   UNK N   1      27.659  22.126  -7.568  0.00  0.00     0.010 C 
HETATM   18  C   UNK N   1      27.283  20.902  -8.390  0.00  0.00     0.012 C 
HETATM   19  C   UNK N   1      29.021  22.588  -8.062  0.00  0.00     0.012 C 
ENDBRANCH  10  17
ENDBRANCH   1  10
BRANCH   1  20
HETATM   20  S   UNK N   1      26.878  26.007  -7.147  0.00  0.00     0.261 S 
HETATM   21  O   UNK N   1      25.856  26.124  -8.290  0.00  0.00    -0.200 OA
HETATM   22  O   UNK N   1      28.172  26.099  -7.968  0.00  0.00    -0.200 OA
BRANCH  20  23
HETATM   23  C   UNK N   1      26.649  27.438  -6.086  0.00  0.00     0.079 A 
HETATM   24  C   UNK N   1      27.516  28.531  -6.193  0.00  0.00     0.028 A 
HETATM   25  C   UNK N   1      27.447  29.576  -5.265  0.00  0.00     0.038 A 
HETATM   26  C   UNK N   1      26.514  29.530  -4.213  0.00  0.00     0.068 A 
HETATM   27  C   UNK N   1      25.639  28.442  -4.122  0.00  0.00     0.038 A 
HETATM   28  C   UNK N   1      25.714  27.395  -5.047  0.00  0.00     0.028 A 
BRANCH  26  29
HETATM   29  O   UNK N   1      26.453  30.503  -3.273  0.00  0.00    -0.356 OA
HETATM   30  C   UNK N   1      27.537  30.892  -2.518  0.00  0.00     0.210 C 
ENDBRANCH  26  29
ENDBRANCH  20  23
ENDBRANCH   1  20
TORSDOF 9
ENDMDL
MODEL 9
REMARK VINA RESULT:      -6.3      8.921     12.966
REMARK  9 active torsions:
REMARK  status: ('A' for Active; 'I' for Inactive)
REMARK    1  A    between atoms: N_1  and  C_2 
REMARK    2  A    between atoms: C_3  and  N_1 
REMARK    3  A    between atoms: N_1  and  S_4 
REMARK    4  A    between atoms: C_2  and  C_5 
REMARK    5  A    between atoms: C_3  and  C_22 
REMARK    6  A    between atoms: C_3  and  C_24 
REMARK    7  A    between atoms: S_4  and  C_12 
REMARK    8  A    between atoms: C_15  and  O_18 
REMARK       I    between atoms: C_22  and  N_23 
REMARK    9  A    between atoms: N_23  and  O_28 
ROOT
HETATM    1  N   UNK N   1      34.540  15.178   7.207  0.00  0.00    -0.288 N 
ENDROOT
BRANCH   1   2
HETATM    2  C   UNK N   1      35.009  14.775   5.868  0.00  0.00     0.176 C 
BRANCH   2   3
HETATM    3  C   UNK N   1      33.904  14.578   4.870  0.00  0.00    -0.024 A 
HETATM    4  C   UNK N   1      32.888  13.642   5.095  0.00  0.00     0.011 A 
HETATM    5  C   UNK N   1      31.889  13.460   4.134  0.00  0.00     0.018 A 
HETATM    6  C   UNK N   1      31.925  14.212   2.957  0.00  0.00     0.087 A 
HETATM    7  N   UNK N   1      32.929  15.107   2.751  0.00  0.00    -0.375 N 
HETATM    8  C   UNK N   1      33.911  15.296   3.673  0.00  0.00     0.096 A 
ATOM      9  HN  UNK N   1      32.944  15.648   1.886  1.00  0.00     0.164 HD
ENDBRANCH   2   3
ENDBRANCH   1   2
BRANCH   1  10
HETATM   10  C   UNK N   1      34.520  14.216   8.336  0.00  0.00     0.193 C 
BRANCH  10  11
HETATM   11  C   UNK N   1      33.177  14.269   9.045  0.00  0.00     0.265 C 
HETATM   12  N   UNK N   1      33.016  15.060  10.131  0.00  0.00    -0.236 N 
HETATM   13  H   UNK N   1      33.765  15.623  10.434  0.00  0.00     0.197 HD
HETATM   14  O   UNK N   1      32.249  13.564   8.666  0.00  0.00    -0.269 OA
BRANCH  12  15
HETATM   15  O   UNK N   1      31.857  15.093  10.799  0.00  0.00    -0.287 OA
HETATM   16  H   UNK N   1      31.294  14.311  10.919  0.00  0.00     0.244 HD
ENDBRANCH  12  15
ENDBRANCH  10  11
BRANCH  10  17
HETATM   17  C   UNK N   1      35.708  14.408   9.318  0.00  0.00     0.010 C 
HETATM   18  C   UNK N   1      35.660  13.449  10.498  0.00  0.00     0.012 C 
HETATM   19  C   UNK N   1      37.038  14.178   8.617  0.00  0.00     0.012 C 
ENDBRANCH  10  17
ENDBRANCH   1  10
BRANCH   1  20
HETATM   20  S   UNK N   1      33.816  16.793   7.493  0.00  0.00     0.261 S 
HETATM   21  O   UNK N   1      34.418  17.687   6.397  0.00  0.00    -0.200 OA
HETATM   22  O   UNK N   1      34.560  17.366   8.708  0.00  0.00    -0.200 OA
BRANCH  20  23
HETATM   23  C   UNK N   1      32.055  17.144   7.553  0.00  0.00     0.079 A 
HETATM   24  C   UNK N   1      31.233  16.767   6.486  0.00  0.00     0.028 A 
HETATM   25  C   UNK N   1      29.896  17.177   6.450  0.00  0.00     0.038 A 
HETATM   26  C   UNK N   1      29.373  17.980   7.479  0.00  0.00     0.068 A 
HETATM   27  C   UNK N   1      30.196  18.340   8.552  0.00  0.00     0.038 A 
HETATM   28  C   UNK N   1      31.534  17.934   8.583  0.00  0.00     0.028 A 
BRANCH  26  29
HETATM   29  O   UNK N   1      28.096  18.432   7.450  0.00  0.00    -0.356 OA
HETATM   30  C   UNK N   1      27.752  19.695   7.026  0.00  0.00     0.210 C 
ENDBRANCH  26  29
ENDBRANCH  20  23
ENDBRANCH   1  20
TORSDOF 9
ENDMDL
