REMARK  9 active torsions:
REMARK  status: ('A' for Active; 'I' for Inactive)
REMARK    1  A    between atoms: N_1  and  C_2 
REMARK    2  A    between atoms: C_3  and  N_1 
REMARK    3  A    between atoms: N_1  and  S_4 
REMARK    4  A    between atoms: C_2  and  C_5 
REMARK    5  A    between atoms: C_3  and  C_22 
REMARK    6  A    between atoms: C_3  and  C_24 
REMARK    7  A    between atoms: S_4  and  C_12 
REMARK    8  A    between atoms: C_15  and  O_18 
REMARK       I    between atoms: C_22  and  N_23 
REMARK    9  A    between atoms: N_23  and  O_28 
ROOT
HETATM    1  N   UNK N   1      -0.882  -0.988   0.138  0.00  0.00    -0.288 N 
ENDROOT
BRANCH   1   2
HETATM    2  C   UNK N   1      -0.118  -1.760   1.136  0.00  0.00     0.176 C 
BRANCH   2   3
HETATM    3  C   UNK N   1       1.268  -2.128   0.689  0.00  0.00    -0.024 A 
HETATM    4  C   UNK N   1       1.546  -3.398   0.171  0.00  0.00     0.011 A 
HETATM    5  C   UNK N   1       2.852  -3.721  -0.209  0.00  0.00     0.018 A 
HETATM    6  C   UNK N   1       3.864  -2.770  -0.058  0.00  0.00     0.087 A 
HETATM    7  N   UNK N   1       3.577  -1.545   0.461  0.00  0.00    -0.375 N 
HETATM    8  C   UNK N   1       2.313  -1.214   0.839  0.00  0.00     0.096 A 
ATOM      9  HN  UNK N   1       4.326  -0.861   0.568  1.00  0.00     0.164 HD
ENDBRANCH   2   3
ENDBRANCH   1   2
BRANCH   1  10
HETATM   10  C   UNK N   1      -2.326  -1.242  -0.088  0.00  0.00     0.193 C 
BRANCH  10  11
HETATM   11  C   UNK N   1      -3.149  -0.069   0.418  0.00  0.00     0.265 C 
HETATM   12  N   UNK N   1      -4.466   0.013   0.118  0.00  0.00    -0.236 N 
HETATM   13  H   UNK N   1      -4.889  -0.709  -0.401  0.00  0.00     0.197 HD
HETATM   14  O   UNK N   1      -2.616   0.829   1.060  0.00  0.00    -0.269 OA
BRANCH  12  15
HETATM   15  O   UNK N   1      -5.204   1.057   0.515  0.00  0.00    -0.287 OA
HETATM   16  H   UNK N   1      -4.816   1.899   0.803  0.00  0.00     0.244 HD
ENDBRANCH  12  15
ENDBRANCH  10  11
BRANCH  10  17
HETATM   17  C   UNK N   1      -2.805  -2.593   0.509  0.00  0.00     0.010 C 
HETATM   18  C   UNK N   1      -4.285  -2.854   0.268  0.00  0.00     0.012 C 
HETATM   19  C   UNK N   1      -2.046  -3.760  -0.104  0.00  0.00     0.012 C 
ENDBRANCH  10  17
ENDBRANCH   1  10
BRANCH   1  20
HETATM   20  S   UNK N   1      -0.071   0.171  -0.963  0.00  0.00     0.261 S 
HETATM   21  O   UNK N   1      -1.170   0.605  -1.946  0.00  0.00    -0.200 OA
HETATM   22  O   UNK N   1       0.777  -0.689  -1.911  0.00  0.00    -0.200 OA
BRANCH  20  23
HETATM   23  C   UNK N   1       0.794   1.659  -0.447  0.00  0.00     0.079 A 
HETATM   24  C   UNK N   1       0.074   2.833  -0.200  0.00  0.00     0.028 A 
HETATM   25  C   UNK N   1       0.750   4.034   0.043  0.00  0.00     0.038 A 
HETATM   26  C   UNK N   1       2.156   4.071   0.030  0.00  0.00     0.068 A 
HETATM   27  C   UNK N   1       2.870   2.890  -0.201  0.00  0.00     0.038 A 
HETATM   28  C   UNK N   1       2.192   1.692  -0.450  0.00  0.00     0.028 A 
BRANCH  26  29
HETATM   29  O   UNK N   1       2.839   5.226   0.216  0.00  0.00    -0.356 OA
HETATM   30  C   UNK N   1       2.227   6.451   0.353  0.00  0.00     0.210 C 
ENDBRANCH  26  29
ENDBRANCH  20  23
ENDBRANCH   1  20
TORSDOF 9
