MODEL 1
REMARK VINA RESULT:      -5.2      0.000      0.000
REMARK  8 active torsions:
REMARK  status: ('A' for Active; 'I' for Inactive)
REMARK    1  A    between atoms: N_2  and  C_9 
REMARK    2  A    between atoms: N_2  and  C_11 
REMARK    3  A    between atoms: N_2  and  C_12 
REMARK    4  A    between atoms: N_3  and  C_8 
REMARK    5  A    between atoms: N_3  and  C_13 
REMARK    6  A    between atoms: C_6  and  C_7 
REMARK    7  A    between atoms: C_6  and  C_8 
REMARK    8  A    between atoms: C_7  and  C_9 
ROOT
HETATM    1 Cl   UNK N   1      26.623  30.278  -3.244  0.00  0.00    -0.084 Cl
HETATM    2  N   UNK N   1      28.119  28.152  -7.648  0.00  0.00    -0.365 N 
ATOM      3  HN  UNK N   1      28.802  28.906  -7.717  1.00  0.00     0.165 HD
HETATM    4  C   UNK N   1      26.263  26.104  -7.467  0.00  0.00     0.042 A 
HETATM    5  C   UNK N   1      26.319  27.084  -6.467  0.00  0.00     0.017 A 
HETATM    6  C   UNK N   1      27.149  26.162  -8.544  0.00  0.00     0.047 A 
HETATM    7  C   UNK N   1      27.277  28.116  -6.581  0.00  0.00     0.046 A 
HETATM    8  C   UNK N   1      25.473  27.041  -5.352  0.00  0.00     0.018 A 
HETATM    9  C   UNK N   1      28.070  27.206  -8.625  0.00  0.00     0.090 A 
HETATM   10  C   UNK N   1      27.368  29.091  -5.585  0.00  0.00     0.054 A 
HETATM   11  C   UNK N   1      25.570  28.022  -4.362  0.00  0.00     0.025 A 
HETATM   12  C   UNK N   1      26.515  29.045  -4.479  0.00  0.00     0.036 A 
ENDROOT
BRANCH   4  13
HETATM   13  N   UNK N   1      25.394  25.003  -7.340  0.00  0.00    -0.385 N 
HETATM   14  H   UNK N   1      24.419  25.124  -7.267  0.00  0.00     0.160 HD
BRANCH  13  15
HETATM   15  C   UNK N   1      25.990  23.700  -7.321  0.00  0.00     0.077 C 
HETATM   16  C   UNK N   1      25.237  22.659  -8.133  0.00  0.00     0.032 C 
BRANCH  15  17
HETATM   17  C   UNK N   1      26.608  23.343  -5.972  0.00  0.00     0.026 C 
BRANCH  17  18
HETATM   18  C   UNK N   1      28.124  23.299  -5.957  0.00  0.00     0.032 C 
BRANCH  18  19
HETATM   19  C   UNK N   1      28.761  24.488  -5.227  0.00  0.00     0.272 C 
BRANCH  19  20
HETATM   20  N   UNK N   1      30.018  24.116  -4.564  0.00  0.00     0.087 N 
BRANCH  20  21
HETATM   21  C   UNK N   1      29.831  22.855  -3.835  0.00  0.00     0.268 C 
HETATM   22  C   UNK N   1      29.341  23.117  -2.424  0.00  0.00     0.037 C 
ENDBRANCH  20  21
BRANCH  20  23
HETATM   23  C   UNK N   1      30.397  25.251  -3.707  0.00  0.00     0.268 C 
HETATM   24  C   UNK N   1      29.625  26.544  -3.947  0.00  0.00     0.037 C 
ENDBRANCH  20  23
ENDBRANCH  19  20
ENDBRANCH  18  19
ENDBRANCH  17  18
ENDBRANCH  15  17
ENDBRANCH  13  15
ENDBRANCH   4  13
TORSDOF 8
ENDMDL
MODEL 2
REMARK VINA RESULT:      -5.1     11.256     13.945
REMARK  8 active torsions:
REMARK  status: ('A' for Active; 'I' for Inactive)
REMARK    1  A    between atoms: N_2  and  C_9 
REMARK    2  A    between atoms: N_2  and  C_11 
REMARK    3  A    between atoms: N_2  and  C_12 
REMARK    4  A    between atoms: N_3  and  C_8 
REMARK    5  A    between atoms: N_3  and  C_13 
REMARK    6  A    between atoms: C_6  and  C_7 
REMARK    7  A    between atoms: C_6  and  C_8 
REMARK    8  A    between atoms: C_7  and  C_9 
ROOT
HETATM    1 Cl   UNK N   1      20.543  21.133   0.944  0.00  0.00    -0.084 Cl
HETATM    2  N   UNK N   1      19.328  17.016   3.723  0.00  0.00    -0.365 N 
ATOM      3  HN  UNK N   1      18.458  16.980   3.191  1.00  0.00     0.165 HD
HETATM    4  C   UNK N   1      21.686  17.110   5.173  0.00  0.00     0.042 A 
HETATM    5  C   UNK N   1      21.432  18.076   4.192  0.00  0.00     0.017 A 
HETATM    6  C   UNK N   1      20.751  16.099   5.408  0.00  0.00     0.047 A 
HETATM    7  C   UNK N   1      20.224  18.005   3.464  0.00  0.00     0.046 A 
HETATM    8  C   UNK N   1      22.361  19.084   3.901  0.00  0.00     0.018 A 
HETATM    9  C   UNK N   1      19.564  16.073   4.676  0.00  0.00     0.090 A 
HETATM   10  C   UNK N   1      19.959  18.944   2.464  0.00  0.00     0.054 A 
HETATM   11  C   UNK N   1      22.086  20.021   2.901  0.00  0.00     0.025 A 
HETATM   12  C   UNK N   1      20.887  19.951   2.186  0.00  0.00     0.036 A 
ENDROOT
BRANCH   4  13
HETATM   13  N   UNK N   1      22.921  17.084   5.849  0.00  0.00    -0.385 N 
HETATM   14  H   UNK N   1      23.139  17.746   6.545  0.00  0.00     0.160 HD
BRANCH  13  15
HETATM   15  C   UNK N   1      23.846  16.053   5.480  0.00  0.00     0.077 C 
HETATM   16  C   UNK N   1      24.166  15.074   6.596  0.00  0.00     0.032 C 
BRANCH  15  17
HETATM   17  C   UNK N   1      24.938  16.541   4.530  0.00  0.00     0.026 C 
BRANCH  17  18
HETATM   18  C   UNK N   1      25.931  17.508   5.144  0.00  0.00     0.032 C 
BRANCH  18  19
HETATM   19  C   UNK N   1      26.887  18.132   4.120  0.00  0.00     0.272 C 
BRANCH  19  20
HETATM   20  N   UNK N   1      27.144  19.551   4.402  0.00  0.00     0.087 N 
BRANCH  20  21
HETATM   21  C   UNK N   1      27.612  19.697   5.787  0.00  0.00     0.268 C 
HETATM   22  C   UNK N   1      27.552  21.147   6.226  0.00  0.00     0.037 C 
ENDBRANCH  20  21
BRANCH  20  23
HETATM   23  C   UNK N   1      25.895  20.273   4.115  0.00  0.00     0.268 C 
HETATM   24  C   UNK N   1      25.649  20.606   2.647  0.00  0.00     0.037 C 
ENDBRANCH  20  23
ENDBRANCH  19  20
ENDBRANCH  18  19
ENDBRANCH  17  18
ENDBRANCH  15  17
ENDBRANCH  13  15
ENDBRANCH   4  13
TORSDOF 8
ENDMDL
MODEL 3
REMARK VINA RESULT:      -5.0     11.547     14.919
REMARK  8 active torsions:
REMARK  status: ('A' for Active; 'I' for Inactive)
REMARK    1  A    between atoms: N_2  and  C_9 
REMARK    2  A    between atoms: N_2  and  C_11 
REMARK    3  A    between atoms: N_2  and  C_12 
REMARK    4  A    between atoms: N_3  and  C_8 
REMARK    5  A    between atoms: N_3  and  C_13 
REMARK    6  A    between atoms: C_6  and  C_7 
REMARK    7  A    between atoms: C_6  and  C_8 
REMARK    8  A    between atoms: C_7  and  C_9 
ROOT
HETATM    1 Cl   UNK N   1      34.676  18.482   8.276  0.00  0.00    -0.084 Cl
HETATM    2  N   UNK N   1      32.549  17.139   3.823  0.00  0.00    -0.365 N 
ATOM      3  HN  UNK N   1      33.404  17.471   3.377  1.00  0.00     0.165 HD
HETATM    4  C   UNK N   1      30.224  16.240   5.030  0.00  0.00     0.042 A 
HETATM    5  C   UNK N   1      31.253  16.777   5.814  0.00  0.00     0.017 A 
HETATM    6  C   UNK N   1      30.381  16.153   3.645  0.00  0.00     0.047 A 
HETATM    7  C   UNK N   1      32.430  17.225   5.175  0.00  0.00     0.046 A 
HETATM    8  C   UNK N   1      31.149  16.847   7.209  0.00  0.00     0.018 A 
HETATM    9  C   UNK N   1      31.554  16.620   3.053  0.00  0.00     0.090 A 
HETATM   10  C   UNK N   1      33.480  17.744   5.938  0.00  0.00     0.054 A 
HETATM   11  C   UNK N   1      32.203  17.369   7.963  0.00  0.00     0.025 A 
HETATM   12  C   UNK N   1      33.365  17.817   7.328  0.00  0.00     0.036 A 
ENDROOT
BRANCH   4  13
HETATM   13  N   UNK N   1      29.078  15.688   5.635  0.00  0.00    -0.385 N 
HETATM   14  H   UNK N   1      29.059  14.753   5.942  0.00  0.00     0.160 HD
BRANCH  13  15
HETATM   15  C   UNK N   1      27.941  16.548   5.785  0.00  0.00     0.077 C 
HETATM   16  C   UNK N   1      27.580  16.858   7.229  0.00  0.00     0.032 C 
BRANCH  15  17
HETATM   17  C   UNK N   1      26.853  16.290   4.745  0.00  0.00     0.026 C 
BRANCH  17  18
HETATM   18  C   UNK N   1      26.826  17.277   3.595  0.00  0.00     0.032 C 
BRANCH  18  19
HETATM   19  C   UNK N   1      27.079  18.727   4.029  0.00  0.00     0.272 C 
BRANCH  19  20
HETATM   20  N   UNK N   1      25.908  19.313   4.696  0.00  0.00     0.087 N 
BRANCH  20  21
HETATM   21  C   UNK N   1      24.807  19.436   3.730  0.00  0.00     0.268 C 
HETATM   22  C   UNK N   1      25.136  20.468   2.669  0.00  0.00     0.037 C 
ENDBRANCH  20  21
BRANCH  20  23
HETATM   23  C   UNK N   1      26.346  20.595   5.270  0.00  0.00     0.268 C 
HETATM   24  C   UNK N   1      27.533  20.519   6.222  0.00  0.00     0.037 C 
ENDBRANCH  20  23
ENDBRANCH  19  20
ENDBRANCH  18  19
ENDBRANCH  17  18
ENDBRANCH  15  17
ENDBRANCH  13  15
ENDBRANCH   4  13
TORSDOF 8
ENDMDL
MODEL 4
REMARK VINA RESULT:      -4.9     13.973     17.858
REMARK  8 active torsions:
REMARK  status: ('A' for Active; 'I' for Inactive)
REMARK    1  A    between atoms: N_2  and  C_9 
REMARK    2  A    between atoms: N_2  and  C_11 
REMARK    3  A    between atoms: N_2  and  C_12 
REMARK    4  A    between atoms: N_3  and  C_8 
REMARK    5  A    between atoms: N_3  and  C_13 
REMARK    6  A    between atoms: C_6  and  C_7 
REMARK    7  A    between atoms: C_6  and  C_8 
REMARK    8  A    between atoms: C_7  and  C_9 
ROOT
HETATM    1 Cl   UNK N   1      26.903  19.299   3.676  0.00  0.00    -0.084 Cl
HETATM    2  N   UNK N   1      27.886  18.588   8.644  0.00  0.00    -0.365 N 
ATOM      3  HN  UNK N   1      27.021  19.096   8.832  1.00  0.00     0.165 HD
HETATM    4  C   UNK N   1      30.235  17.210   8.138  0.00  0.00     0.042 A 
HETATM    5  C   UNK N   1      29.474  17.705   7.072  0.00  0.00     0.017 A 
HETATM    6  C   UNK N   1      29.799  17.407   9.450  0.00  0.00     0.047 A 
HETATM    7  C   UNK N   1      28.278  18.401   7.356  0.00  0.00     0.046 A 
HETATM    8  C   UNK N   1      29.858  17.496   5.741  0.00  0.00     0.018 A 
HETATM    9  C   UNK N   1      28.619  18.112   9.687  0.00  0.00     0.090 A 
HETATM   10  C   UNK N   1      27.491  18.884   6.307  0.00  0.00     0.054 A 
HETATM   11  C   UNK N   1      29.065  17.985   4.699  0.00  0.00     0.025 A 
HETATM   12  C   UNK N   1      27.885  18.679   4.983  0.00  0.00     0.036 A 
ENDROOT
BRANCH   4  13
HETATM   13  N   UNK N   1      31.378  16.423   7.897  0.00  0.00    -0.385 N 
HETATM   14  H   UNK N   1      31.340  15.625   7.321  0.00  0.00     0.160 HD
BRANCH  13  15
HETATM   15  C   UNK N   1      32.599  16.835   8.525  0.00  0.00     0.077 C 
HETATM   16  C   UNK N   1      33.337  17.939   7.788  0.00  0.00     0.032 C 
BRANCH  15  17
HETATM   17  C   UNK N   1      33.360  15.679   9.170  0.00  0.00     0.026 C 
BRANCH  17  18
HETATM   18  C   UNK N   1      34.870  15.782   9.078  0.00  0.00     0.032 C 
BRANCH  18  19
HETATM   19  C   UNK N   1      35.553  15.958  10.440  0.00  0.00     0.272 C 
BRANCH  19  20
HETATM   20  N   UNK N   1      36.626  14.976  10.648  0.00  0.00     0.087 N 
BRANCH  20  21
HETATM   21  C   UNK N   1      36.942  14.321   9.371  0.00  0.00     0.268 C 
HETATM   22  C   UNK N   1      38.398  13.900   9.329  0.00  0.00     0.037 C 
ENDBRANCH  20  21
BRANCH  20  23
HETATM   23  C   UNK N   1      36.160  14.053  11.694  0.00  0.00     0.268 C 
HETATM   24  C   UNK N   1      36.102  14.630  13.104  0.00  0.00     0.037 C 
ENDBRANCH  20  23
ENDBRANCH  19  20
ENDBRANCH  18  19
ENDBRANCH  17  18
ENDBRANCH  15  17
ENDBRANCH  13  15
ENDBRANCH   4  13
TORSDOF 8
ENDMDL
MODEL 5
REMARK VINA RESULT:      -4.7     13.639     16.455
REMARK  8 active torsions:
REMARK  status: ('A' for Active; 'I' for Inactive)
REMARK    1  A    between atoms: N_2  and  C_9 
REMARK    2  A    between atoms: N_2  and  C_11 
REMARK    3  A    between atoms: N_2  and  C_12 
REMARK    4  A    between atoms: N_3  and  C_8 
REMARK    5  A    between atoms: N_3  and  C_13 
REMARK    6  A    between atoms: C_6  and  C_7 
REMARK    7  A    between atoms: C_6  and  C_8 
REMARK    8  A    between atoms: C_7  and  C_9 
ROOT
HETATM    1 Cl   UNK N   1      26.854  19.729   3.700  0.00  0.00    -0.084 Cl
HETATM    2  N   UNK N   1      27.834  18.625   8.596  0.00  0.00    -0.365 N 
ATOM      3  HN  UNK N   1      26.987  19.146   8.827  1.00  0.00     0.165 HD
HETATM    4  C   UNK N   1      30.135  17.213   7.977  0.00  0.00     0.042 A 
HETATM    5  C   UNK N   1      29.386  17.809   6.954  0.00  0.00     0.017 A 
HETATM    6  C   UNK N   1      29.711  17.328   9.302  0.00  0.00     0.047 A 
HETATM    7  C   UNK N   1      28.215  18.521   7.296  0.00  0.00     0.046 A 
HETATM    8  C   UNK N   1      29.757  17.686   5.609  0.00  0.00     0.018 A 
HETATM    9  C   UNK N   1      28.556  18.051   9.598  0.00  0.00     0.090 A 
HETATM   10  C   UNK N   1      27.439  19.104   6.291  0.00  0.00     0.054 A 
HETATM   11  C   UNK N   1      28.976  18.274   4.611  0.00  0.00     0.025 A 
HETATM   12  C   UNK N   1      27.821  18.983   4.952  0.00  0.00     0.036 A 
ENDROOT
BRANCH   4  13
HETATM   13  N   UNK N   1      31.250  16.410   7.671  0.00  0.00    -0.385 N 
HETATM   14  H   UNK N   1      31.201  15.699   6.991  0.00  0.00     0.160 HD
BRANCH  13  15
HETATM   15  C   UNK N   1      32.461  16.672   8.393  0.00  0.00     0.077 C 
HETATM   16  C   UNK N   1      33.088  18.022   8.088  0.00  0.00     0.032 C 
BRANCH  15  17
HETATM   17  C   UNK N   1      33.329  15.429   8.578  0.00  0.00     0.026 C 
BRANCH  17  18
HETATM   18  C   UNK N   1      34.739  15.551   8.034  0.00  0.00     0.032 C 
BRANCH  18  19
HETATM   19  C   UNK N   1      34.805  15.535   6.502  0.00  0.00     0.272 C 
BRANCH  19  20
HETATM   20  N   UNK N   1      34.074  14.394   5.932  0.00  0.00     0.087 N 
BRANCH  20  21
HETATM   21  C   UNK N   1      35.027  13.342   5.555  0.00  0.00     0.268 C 
HETATM   22  C   UNK N   1      36.323  13.946   5.052  0.00  0.00     0.037 C 
ENDBRANCH  20  21
BRANCH  20  23
HETATM   23  C   UNK N   1      33.285  14.917   4.806  0.00  0.00     0.268 C 
HETATM   24  C   UNK N   1      33.309  16.431   4.631  0.00  0.00     0.037 C 
ENDBRANCH  20  23
ENDBRANCH  19  20
ENDBRANCH  18  19
ENDBRANCH  17  18
ENDBRANCH  15  17
ENDBRANCH  13  15
ENDBRANCH   4  13
TORSDOF 8
ENDMDL
MODEL 6
REMARK VINA RESULT:      -4.7      2.654      5.178
REMARK  8 active torsions:
REMARK  status: ('A' for Active; 'I' for Inactive)
REMARK    1  A    between atoms: N_2  and  C_9 
REMARK    2  A    between atoms: N_2  and  C_11 
REMARK    3  A    between atoms: N_2  and  C_12 
REMARK    4  A    between atoms: N_3  and  C_8 
REMARK    5  A    between atoms: N_3  and  C_13 
REMARK    6  A    between atoms: C_6  and  C_7 
REMARK    7  A    between atoms: C_6  and  C_8 
REMARK    8  A    between atoms: C_7  and  C_9 
ROOT
HETATM    1 Cl   UNK N   1      24.291  27.285  -5.654  0.00  0.00    -0.084 Cl
HETATM    2  N   UNK N   1      27.338  29.299  -2.075  0.00  0.00    -0.365 N 
ATOM      3  HN  UNK N   1      26.513  29.346  -1.476  1.00  0.00     0.165 HD
HETATM    4  C   UNK N   1      29.580  29.175  -3.696  0.00  0.00     0.042 A 
HETATM    5  C   UNK N   1      28.342  28.737  -4.184  0.00  0.00     0.017 A 
HETATM    6  C   UNK N   1      29.677  29.663  -2.391  0.00  0.00     0.047 A 
HETATM    7  C   UNK N   1      27.215  28.808  -3.336  0.00  0.00     0.046 A 
HETATM    8  C   UNK N   1      28.211  28.207  -5.474  0.00  0.00     0.018 A 
HETATM    9  C   UNK N   1      28.537  29.728  -1.592  0.00  0.00     0.090 A 
HETATM   10  C   UNK N   1      25.974  28.355  -3.793  0.00  0.00     0.054 A 
HETATM   11  C   UNK N   1      26.966  27.759  -5.922  0.00  0.00     0.025 A 
HETATM   12  C   UNK N   1      25.850  27.835  -5.083  0.00  0.00     0.036 A 
ENDROOT
BRANCH   4  13
HETATM   13  N   UNK N   1      30.747  29.027  -4.471  0.00  0.00    -0.385 N 
HETATM   14  H   UNK N   1      30.806  29.389  -5.385  0.00  0.00     0.160 HD
BRANCH  13  15
HETATM   15  C   UNK N   1      31.844  28.325  -3.872  0.00  0.00     0.077 C 
HETATM   16  C   UNK N   1      33.079  29.181  -3.642  0.00  0.00     0.032 C 
BRANCH  15  17
HETATM   17  C   UNK N   1      31.970  26.883  -4.356  0.00  0.00     0.026 C 
BRANCH  17  18
HETATM   18  C   UNK N   1      30.888  25.947  -3.857  0.00  0.00     0.032 C 
BRANCH  18  19
HETATM   19  C   UNK N   1      30.214  25.142  -4.976  0.00  0.00     0.272 C 
BRANCH  19  20
HETATM   20  N   UNK N   1      29.480  23.981  -4.453  0.00  0.00     0.087 N 
BRANCH  20  21
HETATM   21  C   UNK N   1      28.050  24.132  -4.756  0.00  0.00     0.268 C 
HETATM   22  C   UNK N   1      27.308  24.715  -3.569  0.00  0.00     0.037 C 
ENDBRANCH  20  21
BRANCH  20  23
HETATM   23  C   UNK N   1      29.781  23.903  -3.015  0.00  0.00     0.268 C 
HETATM   24  C   UNK N   1      30.421  22.601  -2.546  0.00  0.00     0.037 C 
ENDBRANCH  20  23
ENDBRANCH  19  20
ENDBRANCH  18  19
ENDBRANCH  17  18
ENDBRANCH  15  17
ENDBRANCH  13  15
ENDBRANCH   4  13
TORSDOF 8
ENDMDL
MODEL 7
REMARK VINA RESULT:      -4.7     15.234     18.580
REMARK  8 active torsions:
REMARK  status: ('A' for Active; 'I' for Inactive)
REMARK    1  A    between atoms: N_2  and  C_9 
REMARK    2  A    between atoms: N_2  and  C_11 
REMARK    3  A    between atoms: N_2  and  C_12 
REMARK    4  A    between atoms: N_3  and  C_8 
REMARK    5  A    between atoms: N_3  and  C_13 
REMARK    6  A    between atoms: C_6  and  C_7 
REMARK    7  A    between atoms: C_6  and  C_8 
REMARK    8  A    between atoms: C_7  and  C_9 
ROOT
HETATM    1 Cl   UNK N   1      23.091  11.788  13.083  0.00  0.00    -0.084 Cl
HETATM    2  N   UNK N   1      21.035  13.274   8.643  0.00  0.00    -0.365 N 
ATOM      3  HN  UNK N   1      20.140  13.308   9.131  1.00  0.00     0.165 HD
HETATM    4  C   UNK N   1      23.462  13.179   7.311  0.00  0.00     0.042 A 
HETATM    5  C   UNK N   1      23.397  12.833   8.667  0.00  0.00     0.017 A 
HETATM    6  C   UNK N   1      22.303  13.578   6.642  0.00  0.00     0.047 A 
HETATM    7  C   UNK N   1      22.147  12.893   9.324  0.00  0.00     0.046 A 
HETATM    8  C   UNK N   1      24.542  12.464   9.383  0.00  0.00     0.018 A 
HETATM    9  C   UNK N   1      21.088  13.610   7.325  0.00  0.00     0.090 A 
HETATM   10  C   UNK N   1      22.062  12.575  10.682  0.00  0.00     0.054 A 
HETATM   11  C   UNK N   1      24.446  12.146  10.741  0.00  0.00     0.025 A 
HETATM   12  C   UNK N   1      23.208  12.200  11.387  0.00  0.00     0.036 A 
ENDROOT
BRANCH   4  13
HETATM   13  N   UNK N   1      24.702  13.232   6.646  0.00  0.00    -0.385 N 
HETATM   14  H   UNK N   1      25.341  12.485   6.691  0.00  0.00     0.160 HD
BRANCH  13  15
HETATM   15  C   UNK N   1      24.993  14.422   5.901  0.00  0.00     0.077 C 
HETATM   16  C   UNK N   1      25.173  14.194   4.409  0.00  0.00     0.032 C 
BRANCH  15  17
HETATM   17  C   UNK N   1      25.889  15.399   6.657  0.00  0.00     0.026 C 
BRANCH  17  18
HETATM   18  C   UNK N   1      26.459  16.523   5.815  0.00  0.00     0.032 C 
BRANCH  18  19
HETATM   19  C   UNK N   1      27.991  16.508   5.735  0.00  0.00     0.272 C 
BRANCH  19  20
HETATM   20  N   UNK N   1      28.586  17.699   6.359  0.00  0.00     0.087 N 
BRANCH  20  21
HETATM   21  C   UNK N   1      28.846  17.427   7.779  0.00  0.00     0.268 C 
HETATM   22  C   UNK N   1      28.252  18.516   8.652  0.00  0.00     0.037 C 
ENDBRANCH  20  21
BRANCH  20  23
HETATM   23  C   UNK N   1      27.651  18.811   6.124  0.00  0.00     0.268 C 
HETATM   24  C   UNK N   1      28.022  19.754   4.986  0.00  0.00     0.037 C 
ENDBRANCH  20  23
ENDBRANCH  19  20
ENDBRANCH  18  19
ENDBRANCH  17  18
ENDBRANCH  15  17
ENDBRANCH  13  15
ENDBRANCH   4  13
TORSDOF 8
ENDMDL
MODEL 8
REMARK VINA RESULT:      -4.7      2.238      3.626
REMARK  8 active torsions:
REMARK  status: ('A' for Active; 'I' for Inactive)
REMARK    1  A    between atoms: N_2  and  C_9 
REMARK    2  A    between atoms: N_2  and  C_11 
REMARK    3  A    between atoms: N_2  and  C_12 
REMARK    4  A    between atoms: N_3  and  C_8 
REMARK    5  A    between atoms: N_3  and  C_13 
REMARK    6  A    between atoms: C_6  and  C_7 
REMARK    7  A    between atoms: C_6  and  C_8 
REMARK    8  A    between atoms: C_7  and  C_9 
ROOT
HETATM    1 Cl   UNK N   1      29.992  29.853  -8.691  0.00  0.00    -0.084 Cl
HETATM    2  N   UNK N   1      27.105  29.627  -4.476  0.00  0.00    -0.365 N 
ATOM      3  HN  UNK N   1      27.543  30.504  -4.194  1.00  0.00     0.165 HD
HETATM    4  C   UNK N   1      25.914  27.244  -5.235  0.00  0.00     0.042 A 
HETATM    5  C   UNK N   1      26.882  27.833  -6.058  0.00  0.00     0.017 A 
HETATM    6  C   UNK N   1      25.549  27.869  -4.040  0.00  0.00     0.047 A 
HETATM    7  C   UNK N   1      27.472  29.050  -5.650  0.00  0.00     0.046 A 
HETATM    8  C   UNK N   1      27.248  27.257  -7.282  0.00  0.00     0.018 A 
HETATM    9  C   UNK N   1      26.166  29.062  -3.668  0.00  0.00     0.090 A 
HETATM   10  C   UNK N   1      28.423  29.667  -6.466  0.00  0.00     0.054 A 
HETATM   11  C   UNK N   1      28.202  27.881  -8.090  0.00  0.00     0.025 A 
HETATM   12  C   UNK N   1      28.789  29.083  -7.682  0.00  0.00     0.036 A 
ENDROOT
BRANCH   4  13
HETATM   13  N   UNK N   1      25.228  26.087  -5.652  0.00  0.00    -0.385 N 
HETATM   14  H   UNK N   1      24.435  26.142  -6.233  0.00  0.00     0.160 HD
BRANCH  13  15
HETATM   15  C   UNK N   1      25.736  24.827  -5.194  0.00  0.00     0.077 C 
HETATM   16  C   UNK N   1      26.502  24.903  -3.884  0.00  0.00     0.032 C 
BRANCH  15  17
HETATM   17  C   UNK N   1      26.214  23.926  -6.330  0.00  0.00     0.026 C 
BRANCH  17  18
HETATM   18  C   UNK N   1      27.717  23.890  -6.523  0.00  0.00     0.032 C 
BRANCH  18  19
HETATM   19  C   UNK N   1      28.289  22.468  -6.597  0.00  0.00     0.272 C 
BRANCH  19  20
HETATM   20  N   UNK N   1      29.266  22.213  -5.529  0.00  0.00     0.087 N 
BRANCH  20  21
HETATM   21  C   UNK N   1      29.877  23.483  -5.113  0.00  0.00     0.268 C 
HETATM   22  C   UNK N   1      30.051  23.528  -3.607  0.00  0.00     0.037 C 
ENDBRANCH  20  21
BRANCH  20  23
HETATM   23  C   UNK N   1      30.227  21.233  -6.060  0.00  0.00     0.268 C 
HETATM   24  C   UNK N   1      29.665  20.241  -7.071  0.00  0.00     0.037 C 
ENDBRANCH  20  23
ENDBRANCH  19  20
ENDBRANCH  18  19
ENDBRANCH  17  18
ENDBRANCH  15  17
ENDBRANCH  13  15
ENDBRANCH   4  13
TORSDOF 8
ENDMDL
MODEL 9
REMARK VINA RESULT:      -4.6     14.214     17.264
REMARK  8 active torsions:
REMARK  status: ('A' for Active; 'I' for Inactive)
REMARK    1  A    between atoms: N_2  and  C_9 
REMARK    2  A    between atoms: N_2  and  C_11 
REMARK    3  A    between atoms: N_2  and  C_12 
REMARK    4  A    between atoms: N_3  and  C_8 
REMARK    5  A    between atoms: N_3  and  C_13 
REMARK    6  A    between atoms: C_6  and  C_7 
REMARK    7  A    between atoms: C_6  and  C_8 
REMARK    8  A    between atoms: C_7  and  C_9 
ROOT
HETATM    1 Cl   UNK N   1      21.466  11.980  11.281  0.00  0.00    -0.084 Cl
HETATM    2  N   UNK N   1      20.149  16.142   8.618  0.00  0.00    -0.365 N 
ATOM      3  HN  UNK N   1      19.398  16.272   9.295  1.00  0.00     0.165 HD
HETATM    4  C   UNK N   1      22.187  15.794   6.774  0.00  0.00     0.042 A 
HETATM    5  C   UNK N   1      22.028  14.875   7.819  0.00  0.00     0.017 A 
HETATM    6  C   UNK N   1      21.321  16.886   6.674  0.00  0.00     0.047 A 
HETATM    7  C   UNK N   1      20.983  15.077   8.748  0.00  0.00     0.046 A 
HETATM    8  C   UNK N   1      22.898  13.788   7.975  0.00  0.00     0.018 A 
HETATM    9  C   UNK N   1      20.295  17.040   7.605  0.00  0.00     0.090 A 
HETATM   10  C   UNK N   1      20.820  14.186   9.812  0.00  0.00     0.054 A 
HETATM   11  C   UNK N   1      22.725  12.901   9.041  0.00  0.00     0.025 A 
HETATM   12  C   UNK N   1      21.687  13.100   9.956  0.00  0.00     0.036 A 
ENDROOT
BRANCH   4  13
HETATM   13  N   UNK N   1      23.276  15.687   5.887  0.00  0.00    -0.385 N 
HETATM   14  H   UNK N   1      23.969  14.998   6.006  0.00  0.00     0.160 HD
BRANCH  13  15
HETATM   15  C   UNK N   1      23.330  16.625   4.805  0.00  0.00     0.077 C 
HETATM   16  C   UNK N   1      22.963  16.038   3.452  0.00  0.00     0.032 C 
BRANCH  15  17
HETATM   17  C   UNK N   1      24.474  17.628   4.938  0.00  0.00     0.026 C 
BRANCH  17  18
HETATM   18  C   UNK N   1      25.840  17.010   5.164  0.00  0.00     0.032 C 
BRANCH  18  19
HETATM   19  C   UNK N   1      27.000  17.963   4.851  0.00  0.00     0.272 C 
BRANCH  19  20
HETATM   20  N   UNK N   1      27.246  18.908   5.950  0.00  0.00     0.087 N 
BRANCH  20  21
HETATM   21  C   UNK N   1      27.585  20.225   5.394  0.00  0.00     0.268 C 
HETATM   22  C   UNK N   1      26.767  21.316   6.057  0.00  0.00     0.037 C 
ENDBRANCH  20  21
BRANCH  20  23
HETATM   23  C   UNK N   1      28.305  18.321   6.785  0.00  0.00     0.268 C 
HETATM   24  C   UNK N   1      28.191  18.591   8.281  0.00  0.00     0.037 C 
ENDBRANCH  20  23
ENDBRANCH  19  20
ENDBRANCH  18  19
ENDBRANCH  17  18
ENDBRANCH  15  17
ENDBRANCH  13  15
ENDBRANCH   4  13
TORSDOF 8
ENDMDL
