REMARK  1 active torsions:
REMARK  status: ('A' for Active; 'I' for Inactive)
REMARK    1  A    between atoms: C_4  and  C_2 
ROOT
HETATM    1  C   UNK N   1      -2.890  -0.237  -0.101  0.00  0.00     0.063 C 
HETATM    2  C   UNK N   1      -3.362   1.107   0.463  0.00  0.00     0.013 C 
HETATM    3  C   UNK N   1      -2.099   1.850   0.926  0.00  0.00     0.006 C 
HETATM    4  C   UNK N   1      -0.925   0.891   0.707  0.00  0.00    -0.001 C 
HETATM    5  C   UNK N   1      -0.194   1.229  -0.623  0.00  0.00    -0.005 C 
HETATM    6  C   UNK N   1       0.519   2.611  -0.620  0.00  0.00     0.006 C 
HETATM    7  C   UNK N   1       2.059   2.563  -0.439  0.00  0.00     0.006 C 
HETATM    8  C   UNK N   1       2.419   1.451   0.536  0.00  0.00     0.001 C 
HETATM    9  C   UNK N   1       3.844   1.563   1.093  0.00  0.00     0.083 C 
HETATM   10  C   UNK N   1       4.832   0.962   0.157  0.00  0.00     0.127 C 
HETATM   11  O   UNK N   1       5.792   1.603  -0.236  0.00  0.00    -0.298 OA
HETATM   12  C   UNK N   1       4.601  -0.433  -0.308  0.00  0.00     0.079 C 
HETATM   13  C   UNK N   1       3.226  -0.489  -0.967  0.00  0.00     0.017 C 
HETATM   14  C   UNK N   1       2.081   0.040  -0.068  0.00  0.00    -0.036 C 
HETATM   15  C   UNK N   1       1.930  -0.921   1.113  0.00  0.00     0.016 C 
HETATM   16  C   UNK N   1       0.802   0.117  -0.998  0.00  0.00    -0.002 C 
HETATM   17  C   UNK N   1       0.043  -1.207  -1.183  0.00  0.00     0.006 C 
HETATM   18  C   UNK N   1      -0.703  -1.611   0.094  0.00  0.00     0.011 C 
HETATM   19  C   UNK N   1      -1.595  -0.499   0.680  0.00  0.00    -0.030 C 
HETATM   20  C   UNK N   1      -1.927  -0.911   2.121  0.00  0.00     0.016 C 
ENDROOT
BRANCH   1  21
HETATM   21  C   UNK N   1      -3.907  -1.356   0.006  0.00  0.00     0.128 C 
HETATM   22  C   UNK N   1      -5.238  -1.140   0.652  0.00  0.00     0.091 C 
HETATM   23  O   UNK N   1      -3.636  -2.461  -0.434  0.00  0.00    -0.298 OA
ENDBRANCH   1  21
TORSDOF 1
