MODEL 1
REMARK VINA RESULT:      -7.4      0.000      0.000
REMARK  1 active torsions:
REMARK  status: ('A' for Active; 'I' for Inactive)
REMARK    1  A    between atoms: C_4  and  C_2 
ROOT
HETATM    1  C   UNK N   1      26.885  27.847  -4.868  0.00  0.00     0.063 C 
HETATM    2  C   UNK N   1      27.462  28.817  -5.904  0.00  0.00     0.013 C 
HETATM    3  C   UNK N   1      27.734  27.989  -7.169  0.00  0.00     0.006 C 
HETATM    4  C   UNK N   1      27.396  26.536  -6.820  0.00  0.00    -0.001 C 
HETATM    5  C   UNK N   1      25.973  26.176  -7.331  0.00  0.00    -0.005 C 
HETATM    6  C   UNK N   1      25.840  26.171  -8.881  0.00  0.00     0.006 C 
HETATM    7  C   UNK N   1      25.822  24.767  -9.541  0.00  0.00     0.006 C 
HETATM    8  C   UNK N   1      26.777  23.846  -8.795  0.00  0.00     0.001 C 
HETATM    9  C   UNK N   1      27.142  22.579  -9.579  0.00  0.00     0.083 C 
HETATM   10  C   UNK N   1      26.105  21.526  -9.403  0.00  0.00     0.127 C 
HETATM   11  O   UNK N   1      25.572  21.006 -10.369  0.00  0.00    -0.298 OA
HETATM   12  C   UNK N   1      25.719  21.145  -8.017  0.00  0.00     0.079 C 
HETATM   13  C   UNK N   1      25.245  22.403  -7.297  0.00  0.00     0.017 C 
HETATM   14  C   UNK N   1      26.267  23.567  -7.335  0.00  0.00    -0.036 C 
HETATM   15  C   UNK N   1      27.488  23.146  -6.514  0.00  0.00     0.016 C 
HETATM   16  C   UNK N   1      25.508  24.828  -6.753  0.00  0.00    -0.002 C 
HETATM   17  C   UNK N   1      25.465  24.918  -5.219  0.00  0.00     0.006 C 
HETATM   18  C   UNK N   1      26.840  25.267  -4.637  0.00  0.00     0.011 C 
HETATM   19  C   UNK N   1      27.500  26.502  -5.280  0.00  0.00    -0.030 C 
HETATM   20  C   UNK N   1      28.985  26.464  -4.890  0.00  0.00     0.016 C 
ENDROOT
BRANCH   1  21
HETATM   21  C   UNK N   1      27.158  28.229  -3.427  0.00  0.00     0.128 C 
HETATM   22  C   UNK N   1      28.272  29.159  -3.065  0.00  0.00     0.091 C 
HETATM   23  O   UNK N   1      26.464  27.765  -2.538  0.00  0.00    -0.298 OA
ENDBRANCH   1  21
TORSDOF 1
ENDMDL
MODEL 2
REMARK VINA RESULT:      -7.3      1.918      2.890
REMARK  1 active torsions:
REMARK  status: ('A' for Active; 'I' for Inactive)
REMARK    1  A    between atoms: C_4  and  C_2 
ROOT
HETATM    1  C   UNK N   1      26.215  27.455  -4.192  0.00  0.00     0.063 C 
HETATM    2  C   UNK N   1      25.037  27.656  -5.150  0.00  0.00     0.013 C 
HETATM    3  C   UNK N   1      25.235  26.651  -6.296  0.00  0.00     0.006 C 
HETATM    4  C   UNK N   1      26.569  25.947  -6.032  0.00  0.00    -0.001 C 
HETATM    5  C   UNK N   1      26.325  24.569  -5.353  0.00  0.00    -0.005 C 
HETATM    6  C   UNK N   1      25.593  23.538  -6.258  0.00  0.00     0.006 C 
HETATM    7  C   UNK N   1      26.497  22.441  -6.880  0.00  0.00     0.006 C 
HETATM    8  C   UNK N   1      27.845  23.045  -7.247  0.00  0.00     0.001 C 
HETATM    9  C   UNK N   1      28.661  22.179  -8.214  0.00  0.00     0.083 C 
HETATM   10  C   UNK N   1      29.415  21.126  -7.482  0.00  0.00     0.127 C 
HETATM   11  O   UNK N   1      29.303  19.950  -7.785  0.00  0.00    -0.298 OA
HETATM   12  C   UNK N   1      30.288  21.544  -6.351  0.00  0.00     0.079 C 
HETATM   13  C   UNK N   1      29.426  22.300  -5.344  0.00  0.00     0.017 C 
HETATM   14  C   UNK N   1      28.637  23.481  -5.961  0.00  0.00    -0.036 C 
HETATM   15  C   UNK N   1      29.648  24.541  -6.403  0.00  0.00     0.016 C 
HETATM   16  C   UNK N   1      27.645  23.976  -4.830  0.00  0.00    -0.002 C 
HETATM   17  C   UNK N   1      28.257  24.929  -3.790  0.00  0.00     0.006 C 
HETATM   18  C   UNK N   1      28.531  26.313  -4.389  0.00  0.00     0.011 C 
HETATM   19  C   UNK N   1      27.323  26.935  -5.117  0.00  0.00    -0.030 C 
HETATM   20  C   UNK N   1      27.868  28.082  -5.979  0.00  0.00     0.016 C 
ENDROOT
BRANCH   1  21
HETATM   21  C   UNK N   1      26.604  28.691  -3.405  0.00  0.00     0.128 C 
HETATM   22  C   UNK N   1      26.355  30.065  -3.940  0.00  0.00     0.091 C 
HETATM   23  O   UNK N   1      27.140  28.569  -2.316  0.00  0.00    -0.298 OA
ENDBRANCH   1  21
TORSDOF 1
ENDMDL
MODEL 3
REMARK VINA RESULT:      -7.2      3.839      5.583
REMARK  1 active torsions:
REMARK  status: ('A' for Active; 'I' for Inactive)
REMARK    1  A    between atoms: C_4  and  C_2 
ROOT
HETATM    1  C   UNK N   1      27.070  25.961  -5.081  0.00  0.00     0.063 C 
HETATM    2  C   UNK N   1      26.493  25.790  -3.672  0.00  0.00     0.013 C 
HETATM    3  C   UNK N   1      27.101  24.495  -3.110  0.00  0.00     0.006 C 
HETATM    4  C   UNK N   1      27.949  23.889  -4.232  0.00  0.00    -0.001 C 
HETATM    5  C   UNK N   1      29.448  24.249  -4.029  0.00  0.00    -0.005 C 
HETATM    6  C   UNK N   1      30.087  23.609  -2.765  0.00  0.00     0.006 C 
HETATM    7  C   UNK N   1      30.998  22.381  -3.030  0.00  0.00     0.006 C 
HETATM    8  C   UNK N   1      30.410  21.551  -4.163  0.00  0.00     0.001 C 
HETATM    9  C   UNK N   1      30.988  20.133  -4.246  0.00  0.00     0.083 C 
HETATM   10  C   UNK N   1      32.269  20.121  -5.001  0.00  0.00     0.127 C 
HETATM   11  O   UNK N   1      33.280  19.644  -4.513  0.00  0.00    -0.298 OA
HETATM   12  C   UNK N   1      32.291  20.734  -6.358  0.00  0.00     0.079 C 
HETATM   13  C   UNK N   1      31.827  22.182  -6.228  0.00  0.00     0.017 C 
HETATM   14  C   UNK N   1      30.457  22.338  -5.522  0.00  0.00    -0.036 C 
HETATM   15  C   UNK N   1      29.390  21.720  -6.427  0.00  0.00     0.016 C 
HETATM   16  C   UNK N   1      30.270  23.892  -5.280  0.00  0.00    -0.002 C 
HETATM   17  C   UNK N   1      29.738  24.685  -6.485  0.00  0.00     0.006 C 
HETATM   18  C   UNK N   1      28.260  24.378  -6.751  0.00  0.00     0.011 C 
HETATM   19  C   UNK N   1      27.355  24.515  -5.511  0.00  0.00    -0.030 C 
HETATM   20  C   UNK N   1      26.039  23.798  -5.842  0.00  0.00     0.016 C 
ENDROOT
BRANCH   1  21
HETATM   21  C   UNK N   1      26.174  26.720  -6.040  0.00  0.00     0.128 C 
HETATM   22  C   UNK N   1      24.770  27.079  -5.674  0.00  0.00     0.091 C 
HETATM   23  O   UNK N   1      26.599  27.038  -7.138  0.00  0.00    -0.298 OA
ENDBRANCH   1  21
TORSDOF 1
ENDMDL
MODEL 4
REMARK VINA RESULT:      -7.1     27.211     29.073
REMARK  1 active torsions:
REMARK  status: ('A' for Active; 'I' for Inactive)
REMARK    1  A    between atoms: C_4  and  C_2 
ROOT
HETATM    1  C   UNK N   1      36.211  12.002  13.301  0.00  0.00     0.063 C 
HETATM    2  C   UNK N   1      37.683  11.683  13.020  0.00  0.00     0.013 C 
HETATM    3  C   UNK N   1      38.241  11.051  14.304  0.00  0.00     0.006 C 
HETATM    4  C   UNK N   1      37.112  11.095  15.338  0.00  0.00    -0.001 C 
HETATM    5  C   UNK N   1      36.392   9.719  15.408  0.00  0.00    -0.005 C 
HETATM    6  C   UNK N   1      37.281   8.567  15.956  0.00  0.00     0.006 C 
HETATM    7  C   UNK N   1      37.004   8.156  17.426  0.00  0.00     0.006 C 
HETATM    8  C   UNK N   1      36.672   9.396  18.244  0.00  0.00     0.001 C 
HETATM    9  C   UNK N   1      36.772   9.175  19.758  0.00  0.00     0.083 C 
HETATM   10  C   UNK N   1      35.520   8.576  20.294  0.00  0.00     0.127 C 
HETATM   11  O   UNK N   1      35.549   7.547  20.949  0.00  0.00    -0.298 OA
HETATM   12  C   UNK N   1      34.230   9.251  19.987  0.00  0.00     0.079 C 
HETATM   13  C   UNK N   1      34.099   9.349  18.470  0.00  0.00     0.017 C 
HETATM   14  C   UNK N   1      35.309  10.027  17.781  0.00  0.00    -0.036 C 
HETATM   15  C   UNK N   1      35.333  11.495  18.214  0.00  0.00     0.016 C 
HETATM   16  C   UNK N   1      35.092   9.823  16.226  0.00  0.00    -0.002 C 
HETATM   17  C   UNK N   1      34.147  10.833  15.556  0.00  0.00     0.006 C 
HETATM   18  C   UNK N   1      34.788  12.222  15.454  0.00  0.00     0.011 C 
HETATM   19  C   UNK N   1      36.193  12.221  14.820  0.00  0.00    -0.030 C 
HETATM   20  C   UNK N   1      36.833  13.573  15.162  0.00  0.00     0.016 C 
ENDROOT
BRANCH   1  21
HETATM   21  C   UNK N   1      35.658  13.170  12.507  0.00  0.00     0.128 C 
HETATM   22  C   UNK N   1      36.518  13.947  11.563  0.00  0.00     0.091 C 
HETATM   23  O   UNK N   1      34.489  13.492  12.644  0.00  0.00    -0.298 OA
ENDBRANCH   1  21
TORSDOF 1
ENDMDL
MODEL 5
REMARK VINA RESULT:      -7.0      1.814      6.534
REMARK  1 active torsions:
REMARK  status: ('A' for Active; 'I' for Inactive)
REMARK    1  A    between atoms: C_4  and  C_2 
ROOT
HETATM    1  C   UNK N   1      27.388  23.283  -7.779  0.00  0.00     0.063 C 
HETATM    2  C   UNK N   1      26.276  22.518  -7.054  0.00  0.00     0.013 C 
HETATM    3  C   UNK N   1      25.824  23.412  -5.888  0.00  0.00     0.006 C 
HETATM    4  C   UNK N   1      26.740  24.640  -5.901  0.00  0.00    -0.001 C 
HETATM    5  C   UNK N   1      26.034  25.831  -6.610  0.00  0.00    -0.005 C 
HETATM    6  C   UNK N   1      24.788  26.370  -5.851  0.00  0.00     0.006 C 
HETATM    7  C   UNK N   1      25.006  27.693  -5.071  0.00  0.00     0.006 C 
HETATM    8  C   UNK N   1      26.402  27.697  -4.464  0.00  0.00     0.001 C 
HETATM    9  C   UNK N   1      26.586  28.747  -3.361  0.00  0.00     0.083 C 
HETATM   10  C   UNK N   1      26.914  30.078  -3.940  0.00  0.00     0.127 C 
HETATM   11  O   UNK N   1      26.251  31.062  -3.659  0.00  0.00    -0.298 OA
HETATM   12  C   UNK N   1      28.054  30.169  -4.892  0.00  0.00     0.079 C 
HETATM   13  C   UNK N   1      27.787  29.203  -6.042  0.00  0.00     0.017 C 
HETATM   14  C   UNK N   1      27.504  27.751  -5.584  0.00  0.00    -0.036 C 
HETATM   15  C   UNK N   1      28.788  27.195  -4.966  0.00  0.00     0.016 C 
HETATM   16  C   UNK N   1      27.028  26.974  -6.879  0.00  0.00    -0.002 C 
HETATM   17  C   UNK N   1      28.156  26.465  -7.792  0.00  0.00     0.006 C 
HETATM   18  C   UNK N   1      28.905  25.288  -7.156  0.00  0.00     0.011 C 
HETATM   19  C   UNK N   1      27.989  24.151  -6.665  0.00  0.00    -0.030 C 
HETATM   20  C   UNK N   1      28.830  23.281  -5.720  0.00  0.00     0.016 C 
ENDROOT
BRANCH   1  21
HETATM   21  C   UNK N   1      28.401  22.403  -8.484  0.00  0.00     0.128 C 
HETATM   22  C   UNK N   1      28.455  20.929  -8.241  0.00  0.00     0.091 C 
HETATM   23  O   UNK N   1      29.198  22.904  -9.260  0.00  0.00    -0.298 OA
ENDBRANCH   1  21
TORSDOF 1
ENDMDL
MODEL 6
REMARK VINA RESULT:      -6.9     14.295     16.294
REMARK  1 active torsions:
REMARK  status: ('A' for Active; 'I' for Inactive)
REMARK    1  A    between atoms: C_4  and  C_2 
ROOT
HETATM    1  C   UNK N   1      31.866  15.450   7.737  0.00  0.00     0.063 C 
HETATM    2  C   UNK N   1      32.478  16.508   8.661  0.00  0.00     0.013 C 
HETATM    3  C   UNK N   1      31.804  17.841   8.298  0.00  0.00     0.006 C 
HETATM    4  C   UNK N   1      30.880  17.553   7.111  0.00  0.00    -0.001 C 
HETATM    5  C   UNK N   1      29.417  17.365   7.601  0.00  0.00    -0.005 C 
HETATM    6  C   UNK N   1      28.779  18.652   8.197  0.00  0.00     0.006 C 
HETATM    7  C   UNK N   1      27.780  19.390   7.267  0.00  0.00     0.006 C 
HETATM    8  C   UNK N   1      28.272  19.307   5.829  0.00  0.00     0.001 C 
HETATM    9  C   UNK N   1      27.598  20.318   4.892  0.00  0.00     0.083 C 
HETATM   10  C   UNK N   1      26.294  19.801   4.398  0.00  0.00     0.127 C 
HETATM   11  O   UNK N   1      25.271  20.451   4.532  0.00  0.00    -0.298 OA
HETATM   12  C   UNK N   1      26.268  18.456   3.760  0.00  0.00     0.079 C 
HETATM   13  C   UNK N   1      26.831  17.449   4.759  0.00  0.00     0.017 C 
HETATM   14  C   UNK N   1      28.231  17.827   5.303  0.00  0.00    -0.036 C 
HETATM   15  C   UNK N   1      29.224  17.744   4.141  0.00  0.00     0.016 C 
HETATM   16  C   UNK N   1      28.530  16.805   6.474  0.00  0.00    -0.002 C 
HETATM   17  C   UNK N   1      29.073  15.437   6.030  0.00  0.00     0.006 C 
HETATM   18  C   UNK N   1      30.518  15.541   5.527  0.00  0.00     0.011 C 
HETATM   19  C   UNK N   1      31.471  16.265   6.498  0.00  0.00    -0.030 C 
HETATM   20  C   UNK N   1      32.725  16.636   5.694  0.00  0.00     0.016 C 
ENDROOT
BRANCH   1  21
HETATM   21  C   UNK N   1      32.778  14.278   7.433  0.00  0.00     0.128 C 
HETATM   22  C   UNK N   1      34.223  14.294   7.818  0.00  0.00     0.091 C 
HETATM   23  O   UNK N   1      32.332  13.301   6.854  0.00  0.00    -0.298 OA
ENDBRANCH   1  21
TORSDOF 1
ENDMDL
MODEL 7
REMARK VINA RESULT:      -6.7     29.210     30.998
REMARK  1 active torsions:
REMARK  status: ('A' for Active; 'I' for Inactive)
REMARK    1  A    between atoms: C_4  and  C_2 
ROOT
HETATM    1  C   UNK N   1      36.140   8.495  21.110  0.00  0.00     0.063 C 
HETATM    2  C   UNK N   1      36.852   9.590  21.911  0.00  0.00     0.013 C 
HETATM    3  C   UNK N   1      37.137  10.733  20.924  0.00  0.00     0.006 C 
HETATM    4  C   UNK N   1      36.667  10.248  19.549  0.00  0.00    -0.001 C 
HETATM    5  C   UNK N   1      35.254  10.814  19.232  0.00  0.00    -0.005 C 
HETATM    6  C   UNK N   1      35.216  12.359  19.056  0.00  0.00     0.006 C 
HETATM    7  C   UNK N   1      35.131  12.858  17.589  0.00  0.00     0.006 C 
HETATM    8  C   UNK N   1      35.965  11.950  16.697  0.00  0.00     0.001 C 
HETATM    9  C   UNK N   1      36.278  12.561  15.325  0.00  0.00     0.083 C 
HETATM   10  C   UNK N   1      35.155  12.341  14.374  0.00  0.00     0.127 C 
HETATM   11  O   UNK N   1      34.643  13.277  13.784  0.00  0.00    -0.298 OA
HETATM   12  C   UNK N   1      34.656  10.952  14.184  0.00  0.00     0.079 C 
HETATM   13  C   UNK N   1      34.237  10.411  15.548  0.00  0.00     0.017 C 
HETATM   14  C   UNK N   1      35.346  10.507  16.625  0.00  0.00    -0.036 C 
HETATM   15  C   UNK N   1      36.479   9.562  16.219  0.00  0.00     0.016 C 
HETATM   16  C   UNK N   1      34.653  10.123  17.995  0.00  0.00    -0.002 C 
HETATM   17  C   UNK N   1      34.523   8.615  18.266  0.00  0.00     0.006 C 
HETATM   18  C   UNK N   1      35.882   7.982  18.584  0.00  0.00     0.011 C 
HETATM   19  C   UNK N   1      36.674   8.711  19.687  0.00  0.00    -0.030 C 
HETATM   20  C   UNK N   1      38.124   8.217  19.591  0.00  0.00     0.016 C 
ENDROOT
BRANCH   1  21
HETATM   21  C   UNK N   1      36.353   7.090  21.637  0.00  0.00     0.128 C 
HETATM   22  C   UNK N   1      37.376   6.799  22.688  0.00  0.00     0.091 C 
HETATM   23  O   UNK N   1      35.685   6.171  21.192  0.00  0.00    -0.298 OA
ENDBRANCH   1  21
TORSDOF 1
ENDMDL
MODEL 8
REMARK VINA RESULT:      -6.7     24.082     26.077
REMARK  1 active torsions:
REMARK  status: ('A' for Active; 'I' for Inactive)
REMARK    1  A    between atoms: C_4  and  C_2 
ROOT
HETATM    1  C   UNK N   1      35.977  12.594   9.965  0.00  0.00     0.063 C 
HETATM    2  C   UNK N   1      36.219  11.156   9.496  0.00  0.00     0.013 C 
HETATM    3  C   UNK N   1      36.405  10.312  10.766  0.00  0.00     0.006 C 
HETATM    4  C   UNK N   1      36.359  11.286  11.947  0.00  0.00    -0.001 C 
HETATM    5  C   UNK N   1      34.944  11.284  12.593  0.00  0.00    -0.005 C 
HETATM    6  C   UNK N   1      34.562   9.939  13.273  0.00  0.00     0.006 C 
HETATM    7  C   UNK N   1      34.655   9.929  14.822  0.00  0.00     0.006 C 
HETATM    8  C   UNK N   1      35.850  10.761  15.262  0.00  0.00     0.001 C 
HETATM    9  C   UNK N   1      36.274  10.504  16.714  0.00  0.00     0.083 C 
HETATM   10  C   UNK N   1      35.457  11.311  17.660  0.00  0.00     0.127 C 
HETATM   11  O   UNK N   1      34.860  10.781  18.581  0.00  0.00    -0.298 OA
HETATM   12  C   UNK N   1      35.366  12.780  17.434  0.00  0.00     0.079 C 
HETATM   13  C   UNK N   1      34.827  13.008  16.025  0.00  0.00     0.017 C 
HETATM   14  C   UNK N   1      35.636  12.281  14.922  0.00  0.00    -0.036 C 
HETATM   15  C   UNK N   1      37.025  12.920  14.860  0.00  0.00     0.016 C 
HETATM   16  C   UNK N   1      34.796  12.446  13.590  0.00  0.00    -0.002 C 
HETATM   17  C   UNK N   1      34.991  13.780  12.852  0.00  0.00     0.006 C 
HETATM   18  C   UNK N   1      36.371  13.860  12.189  0.00  0.00     0.011 C 
HETATM   19  C   UNK N   1      36.718  12.644  11.308  0.00  0.00    -0.030 C 
HETATM   20  C   UNK N   1      38.233  12.688  11.069  0.00  0.00     0.016 C 
ENDROOT
BRANCH   1  21
HETATM   21  C   UNK N   1      36.419  13.659   8.981  0.00  0.00     0.128 C 
HETATM   22  C   UNK N   1      37.281  13.325   7.806  0.00  0.00     0.091 C 
HETATM   23  O   UNK N   1      36.076  14.817   9.151  0.00  0.00    -0.298 OA
ENDBRANCH   1  21
TORSDOF 1
ENDMDL
MODEL 9
REMARK VINA RESULT:      -6.7      3.669      6.239
REMARK  1 active torsions:
REMARK  status: ('A' for Active; 'I' for Inactive)
REMARK    1  A    between atoms: C_4  and  C_2 
ROOT
HETATM    1  C   UNK N   1      31.184  21.725  -4.393  0.00  0.00     0.063 C 
HETATM    2  C   UNK N   1      31.463  22.088  -2.932  0.00  0.00     0.013 C 
HETATM    3  C   UNK N   1      30.645  23.355  -2.636  0.00  0.00     0.006 C 
HETATM    4  C   UNK N   1      29.976  23.758  -3.953  0.00  0.00    -0.001 C 
HETATM    5  C   UNK N   1      28.504  23.256  -3.986  0.00  0.00    -0.005 C 
HETATM    6  C   UNK N   1      27.580  23.937  -2.937  0.00  0.00     0.006 C 
HETATM    7  C   UNK N   1      26.630  25.028  -3.498  0.00  0.00     0.006 C 
HETATM    8  C   UNK N   1      27.346  25.808  -4.591  0.00  0.00     0.001 C 
HETATM    9  C   UNK N   1      26.669  27.141  -4.935  0.00  0.00     0.083 C 
HETATM   10  C   UNK N   1      25.560  26.942  -5.906  0.00  0.00     0.127 C 
HETATM   11  O   UNK N   1      24.436  27.350  -5.665  0.00  0.00    -0.298 OA
HETATM   12  C   UNK N   1      25.853  26.207  -7.167  0.00  0.00     0.079 C 
HETATM   13  C   UNK N   1      26.412  24.837  -6.795  0.00  0.00     0.017 C 
HETATM   14  C   UNK N   1      27.630  24.898  -5.840  0.00  0.00    -0.036 C 
HETATM   15  C   UNK N   1      28.791  25.542  -6.601  0.00  0.00     0.016 C 
HETATM   16  C   UNK N   1      27.907  23.404  -5.397  0.00  0.00    -0.002 C 
HETATM   17  C   UNK N   1      28.729  22.565  -6.389  0.00  0.00     0.006 C 
HETATM   18  C   UNK N   1      30.197  23.005  -6.417  0.00  0.00     0.011 C 
HETATM   19  C   UNK N   1      30.857  23.084  -5.026  0.00  0.00    -0.030 C 
HETATM   20  C   UNK N   1      32.142  23.907  -5.192  0.00  0.00     0.016 C 
ENDROOT
BRANCH   1  21
HETATM   21  C   UNK N   1      32.311  20.983  -5.084  0.00  0.00     0.128 C 
HETATM   22  C   UNK N   1      32.073  20.186  -6.326  0.00  0.00     0.091 C 
HETATM   23  O   UNK N   1      33.436  21.025  -4.615  0.00  0.00    -0.298 OA
ENDBRANCH   1  21
TORSDOF 1
ENDMDL
