MODEL 1
REMARK VINA RESULT:      -6.1      0.000      0.000
REMARK  13 active torsions:
REMARK  status: ('A' for Active; 'I' for Inactive)
REMARK    1  A    between atoms: C_2  and  N_1 
REMARK       I    between atoms: N_1  and  C_9 
REMARK    2  A    between atoms: C_2  and  C_3 
REMARK    3  A    between atoms: C_2  and  C_5 
REMARK       I    between atoms: C_3  and  N_12 
REMARK    4  A    between atoms: C_5  and  C_6 
REMARK    5  A    between atoms: C_13  and  N_12 
REMARK    6  A    between atoms: C_13  and  C_14 
REMARK    7  A    between atoms: C_13  and  C_16 
REMARK       I    between atoms: C_14  and  N_20 
REMARK    8  A    between atoms: C_16  and  C_17 
REMARK    9  A    between atoms: C_21  and  N_20 
REMARK   10  A    between atoms: C_21  and  C_22 
REMARK   11  A    between atoms: C_21  and  C_24 
REMARK   12  A    between atoms: C_24  and  C_25 
REMARK   13  A    between atoms: C_25  and  C_27 
ROOT
HETATM    1  C   UNK N   1      26.928  25.090  -4.363  0.00  0.00     0.177 C 
ENDROOT
BRANCH   1   2
HETATM    2  N   UNK N   1      26.169  26.112  -3.660  0.00  0.00    -0.346 N 
HETATM    3  C   UNK N   1      26.326  27.473  -3.602  0.00  0.00     0.241 C 
HETATM    4  O   UNK N   1      25.471  28.107  -3.005  0.00  0.00    -0.271 OA
HETATM    5  H   UNK N   1      25.411  25.767  -3.135  0.00  0.00     0.163 HD
BRANCH   3   6
HETATM    6  C   UNK N   1      27.478  28.278  -4.212  0.00  0.00     0.177 C 
BRANCH   6   7
HETATM    7  N   UNK N   1      28.786  27.705  -3.992  0.00  0.00    -0.348 N 
HETATM    8  C   UNK N   1      29.701  28.245  -3.142  0.00  0.00     0.214 C 
HETATM    9  C   UNK N   1      29.394  29.470  -2.332  0.00  0.00     0.117 C 
HETATM   10  O   UNK N   1      30.785  27.707  -3.007  0.00  0.00    -0.274 OA
HETATM   11  H   UNK N   1      29.026  26.884  -4.480  0.00  0.00     0.163 HD
ENDBRANCH   6   7
BRANCH   6  12
HETATM   12  C   UNK N   1      27.269  28.465  -5.722  0.00  0.00     0.038 C 
BRANCH  12  13
HETATM   13  C   UNK N   1      28.559  28.766  -6.473  0.00  0.00    -0.020 C 
HETATM   14  C   UNK N   1      28.816  30.257  -6.461  0.00  0.00     0.009 C 
HETATM   15  C   UNK N   1      28.429  28.297  -7.910  0.00  0.00     0.009 C 
ENDBRANCH  12  13
ENDBRANCH   6  12
ENDBRANCH   3   6
ENDBRANCH   1   2
BRANCH   1  16
HETATM   16  C   UNK N   1      27.692  24.141  -3.479  0.00  0.00     0.241 C 
HETATM   17  O   UNK N   1      27.229  23.754  -2.414  0.00  0.00    -0.271 OA
HETATM   18  N   UNK N   1      28.860  23.640  -3.962  0.00  0.00    -0.349 N 
HETATM   19  H   UNK N   1      29.257  24.097  -4.738  0.00  0.00     0.163 HD
BRANCH  18  20
HETATM   20  C   UNK N   1      29.567  22.498  -3.438  0.00  0.00     0.146 C 
BRANCH  20  21
HETATM   21  C   UNK N   1      30.682  22.951  -2.549  0.00  0.00     0.256 C 
HETATM   22  O   UNK N   1      30.528  23.014  -1.341  0.00  0.00    -0.305 OA
ENDBRANCH  20  21
BRANCH  20  23
HETATM   23  C   UNK N   1      30.140  21.770  -4.648  0.00  0.00     0.032 C 
BRANCH  23  24
HETATM   24  C   UNK N   1      29.677  22.344  -5.975  0.00  0.00     0.002 C 
BRANCH  24  25
HETATM   25  C   UNK N   1      29.282  21.213  -6.905  0.00  0.00    -0.004 C 
HETATM   26  C   UNK N   1      30.294  20.086  -6.807  0.00  0.00     0.005 C 
ENDBRANCH  24  25
ENDBRANCH  23  24
ENDBRANCH  20  23
ENDBRANCH  18  20
ENDBRANCH   1  16
BRANCH   1  27
HETATM   27  C   UNK N   1      25.956  24.135  -5.075  0.00  0.00     0.038 C 
BRANCH  27  28
HETATM   28  C   UNK N   1      25.885  24.170  -6.586  0.00  0.00    -0.020 C 
HETATM   29  C   UNK N   1      27.141  24.867  -7.073  0.00  0.00     0.009 C 
HETATM   30  C   UNK N   1      25.897  22.755  -7.129  0.00  0.00     0.009 C 
ENDBRANCH  27  28
ENDBRANCH   1  27
TORSDOF 13
ENDMDL
MODEL 2
REMARK VINA RESULT:      -5.9      2.367      5.011
REMARK  13 active torsions:
REMARK  status: ('A' for Active; 'I' for Inactive)
REMARK    1  A    between atoms: C_2  and  N_1 
REMARK       I    between atoms: N_1  and  C_9 
REMARK    2  A    between atoms: C_2  and  C_3 
REMARK    3  A    between atoms: C_2  and  C_5 
REMARK       I    between atoms: C_3  and  N_12 
REMARK    4  A    between atoms: C_5  and  C_6 
REMARK    5  A    between atoms: C_13  and  N_12 
REMARK    6  A    between atoms: C_13  and  C_14 
REMARK    7  A    between atoms: C_13  and  C_16 
REMARK       I    between atoms: C_14  and  N_20 
REMARK    8  A    between atoms: C_16  and  C_17 
REMARK    9  A    between atoms: C_21  and  N_20 
REMARK   10  A    between atoms: C_21  and  C_22 
REMARK   11  A    between atoms: C_21  and  C_24 
REMARK   12  A    between atoms: C_24  and  C_25 
REMARK   13  A    between atoms: C_25  and  C_27 
ROOT
HETATM    1  C   UNK N   1      26.309  25.361  -5.400  0.00  0.00     0.177 C 
ENDROOT
BRANCH   1   2
HETATM    2  N   UNK N   1      26.325  24.638  -4.139  0.00  0.00    -0.346 N 
HETATM    3  C   UNK N   1      27.366  24.143  -3.395  0.00  0.00     0.241 C 
HETATM    4  O   UNK N   1      27.092  23.656  -2.310  0.00  0.00    -0.271 OA
HETATM    5  H   UNK N   1      25.434  24.476  -3.752  0.00  0.00     0.163 HD
BRANCH   3   6
HETATM    6  C   UNK N   1      28.844  24.135  -3.798  0.00  0.00     0.177 C 
BRANCH   6   7
HETATM    7  N   UNK N   1      29.442  25.447  -3.887  0.00  0.00    -0.348 N 
HETATM    8  C   UNK N   1      29.934  25.962  -5.046  0.00  0.00     0.214 C 
HETATM    9  C   UNK N   1      29.851  25.208  -6.340  0.00  0.00     0.117 C 
HETATM   10  O   UNK N   1      30.426  27.077  -5.046  0.00  0.00    -0.274 OA
HETATM   11  H   UNK N   1      29.496  25.994  -3.070  0.00  0.00     0.163 HD
ENDBRANCH   6   7
BRANCH   6  12
HETATM   12  C   UNK N   1      29.667  23.282  -2.821  0.00  0.00     0.038 C 
BRANCH  12  13
HETATM   13  C   UNK N   1      30.557  22.262  -3.520  0.00  0.00    -0.020 C 
HETATM   14  C   UNK N   1      31.910  22.879  -3.800  0.00  0.00     0.009 C 
HETATM   15  C   UNK N   1      29.918  21.850  -4.833  0.00  0.00     0.009 C 
ENDBRANCH  12  13
ENDBRANCH   6  12
ENDBRANCH   3   6
ENDBRANCH   1   2
BRANCH   1  16
HETATM   16  C   UNK N   1      25.909  24.544  -6.600  0.00  0.00     0.241 C 
HETATM   17  O   UNK N   1      25.366  25.061  -7.567  0.00  0.00    -0.271 OA
HETATM   18  N   UNK N   1      26.281  23.237  -6.618  0.00  0.00    -0.349 N 
HETATM   19  H   UNK N   1      26.571  22.840  -5.764  0.00  0.00     0.163 HD
BRANCH  18  20
HETATM   20  C   UNK N   1      26.290  22.379  -7.778  0.00  0.00     0.146 C 
BRANCH  20  21
HETATM   21  C   UNK N   1      25.023  21.585  -7.835  0.00  0.00     0.256 C 
HETATM   22  O   UNK N   1      23.959  22.128  -8.081  0.00  0.00    -0.305 OA
ENDBRANCH  20  21
BRANCH  20  23
HETATM   23  C   UNK N   1      27.476  21.439  -7.594  0.00  0.00     0.032 C 
BRANCH  23  24
HETATM   24  C   UNK N   1      28.693  21.834  -8.412  0.00  0.00     0.002 C 
BRANCH  24  25
HETATM   25  C   UNK N   1      29.633  20.649  -8.523  0.00  0.00    -0.004 C 
HETATM   26  C   UNK N   1      29.052  19.457  -7.787  0.00  0.00     0.005 C 
ENDBRANCH  24  25
ENDBRANCH  23  24
ENDBRANCH  20  23
ENDBRANCH  18  20
ENDBRANCH   1  16
BRANCH   1  27
HETATM   27  C   UNK N   1      25.197  26.422  -5.364  0.00  0.00     0.038 C 
BRANCH  27  28
HETATM   28  C   UNK N   1      25.588  27.873  -5.180  0.00  0.00    -0.020 C 
HETATM   29  C   UNK N   1      25.738  28.106  -3.690  0.00  0.00     0.009 C 
HETATM   30  C   UNK N   1      26.935  28.121  -5.829  0.00  0.00     0.009 C 
ENDBRANCH  27  28
ENDBRANCH   1  27
TORSDOF 13
ENDMDL
MODEL 3
REMARK VINA RESULT:      -5.6     16.989     21.148
REMARK  13 active torsions:
REMARK  status: ('A' for Active; 'I' for Inactive)
REMARK    1  A    between atoms: C_2  and  N_1 
REMARK       I    between atoms: N_1  and  C_9 
REMARK    2  A    between atoms: C_2  and  C_3 
REMARK    3  A    between atoms: C_2  and  C_5 
REMARK       I    between atoms: C_3  and  N_12 
REMARK    4  A    between atoms: C_5  and  C_6 
REMARK    5  A    between atoms: C_13  and  N_12 
REMARK    6  A    between atoms: C_13  and  C_14 
REMARK    7  A    between atoms: C_13  and  C_16 
REMARK       I    between atoms: C_14  and  N_20 
REMARK    8  A    between atoms: C_16  and  C_17 
REMARK    9  A    between atoms: C_21  and  N_20 
REMARK   10  A    between atoms: C_21  and  C_22 
REMARK   11  A    between atoms: C_21  and  C_24 
REMARK   12  A    between atoms: C_24  and  C_25 
REMARK   13  A    between atoms: C_25  and  C_27 
ROOT
HETATM    1  C   UNK N   1      35.714  15.123  10.957  0.00  0.00     0.177 C 
ENDROOT
BRANCH   1   2
HETATM    2  N   UNK N   1      36.154  15.310  12.331  0.00  0.00    -0.346 N 
HETATM    3  C   UNK N   1      36.152  14.457  13.403  0.00  0.00     0.241 C 
HETATM    4  O   UNK N   1      36.679  14.852  14.430  0.00  0.00    -0.271 OA
HETATM    5  H   UNK N   1      36.516  16.205  12.523  0.00  0.00     0.163 HD
BRANCH   3   6
HETATM    6  C   UNK N   1      35.543  13.051  13.441  0.00  0.00     0.177 C 
BRANCH   6   7
HETATM    7  N   UNK N   1      36.400  12.018  12.907  0.00  0.00    -0.348 N 
HETATM    8  C   UNK N   1      36.062  11.251  11.835  0.00  0.00     0.214 C 
HETATM    9  C   UNK N   1      34.772  11.457  11.098  0.00  0.00     0.117 C 
HETATM   10  O   UNK N   1      36.835  10.397  11.441  0.00  0.00    -0.274 OA
HETATM   11  H   UNK N   1      37.271  11.862  13.339  0.00  0.00     0.163 HD
ENDBRANCH   6   7
BRANCH   6  12
HETATM   12  C   UNK N   1      35.146  12.671  14.875  0.00  0.00     0.038 C 
BRANCH  12  13
HETATM   13  C   UNK N   1      34.954  11.172  15.066  0.00  0.00    -0.020 C 
HETATM   14  C   UNK N   1      33.562  10.780  14.623  0.00  0.00     0.009 C 
HETATM   15  C   UNK N   1      35.125  10.824  16.533  0.00  0.00     0.009 C 
ENDBRANCH  12  13
ENDBRANCH   6  12
ENDBRANCH   3   6
ENDBRANCH   1   2
BRANCH   1  16
HETATM   16  C   UNK N   1      35.109  16.340  10.309  0.00  0.00     0.241 C 
HETATM   17  O   UNK N   1      35.685  17.419  10.325  0.00  0.00    -0.271 OA
HETATM   18  N   UNK N   1      33.961  16.166   9.604  0.00  0.00    -0.349 N 
HETATM   19  H   UNK N   1      33.465  15.327   9.752  0.00  0.00     0.163 HD
BRANCH  18  20
HETATM   20  C   UNK N   1      33.403  17.101   8.658  0.00  0.00     0.146 C 
BRANCH  20  21
HETATM   21  C   UNK N   1      31.925  16.894   8.546  0.00  0.00     0.256 C 
HETATM   22  O   UNK N   1      31.154  17.828   8.688  0.00  0.00    -0.305 OA
ENDBRANCH  20  21
BRANCH  20  23
HETATM   23  C   UNK N   1      34.067  16.789   7.321  0.00  0.00     0.032 C 
BRANCH  23  24
HETATM   24  C   UNK N   1      33.527  17.618   6.170  0.00  0.00     0.002 C 
BRANCH  24  25
HETATM   25  C   UNK N   1      33.125  16.701   5.030  0.00  0.00    -0.004 C 
HETATM   26  C   UNK N   1      32.593  17.522   3.870  0.00  0.00     0.005 C 
ENDBRANCH  24  25
ENDBRANCH  23  24
ENDBRANCH  20  23
ENDBRANCH  18  20
ENDBRANCH   1  16
BRANCH   1  27
HETATM   27  C   UNK N   1      36.939  14.871  10.061  0.00  0.00     0.038 C 
BRANCH  27  28
HETATM   28  C   UNK N   1      36.992  13.593   9.253  0.00  0.00    -0.020 C 
HETATM   29  C   UNK N   1      36.340  13.887   7.915  0.00  0.00     0.009 C 
HETATM   30  C   UNK N   1      38.437  13.215   8.994  0.00  0.00     0.009 C 
ENDBRANCH  27  28
ENDBRANCH   1  27
TORSDOF 13
ENDMDL
MODEL 4
REMARK VINA RESULT:      -5.6     13.542     17.594
REMARK  13 active torsions:
REMARK  status: ('A' for Active; 'I' for Inactive)
REMARK    1  A    between atoms: C_2  and  N_1 
REMARK       I    between atoms: N_1  and  C_9 
REMARK    2  A    between atoms: C_2  and  C_3 
REMARK    3  A    between atoms: C_2  and  C_5 
REMARK       I    between atoms: C_3  and  N_12 
REMARK    4  A    between atoms: C_5  and  C_6 
REMARK    5  A    between atoms: C_13  and  N_12 
REMARK    6  A    between atoms: C_13  and  C_14 
REMARK    7  A    between atoms: C_13  and  C_16 
REMARK       I    between atoms: C_14  and  N_20 
REMARK    8  A    between atoms: C_16  and  C_17 
REMARK    9  A    between atoms: C_21  and  N_20 
REMARK   10  A    between atoms: C_21  and  C_22 
REMARK   11  A    between atoms: C_21  and  C_24 
REMARK   12  A    between atoms: C_24  and  C_25 
REMARK   13  A    between atoms: C_25  and  C_27 
ROOT
HETATM    1  C   UNK N   1      32.596  17.047   8.093  0.00  0.00     0.177 C 
ENDROOT
BRANCH   1   2
HETATM    2  N   UNK N   1      33.646  17.468   9.007  0.00  0.00    -0.346 N 
HETATM    3  C   UNK N   1      34.586  16.745   9.695  0.00  0.00     0.241 C 
HETATM    4  O   UNK N   1      35.420  17.375  10.325  0.00  0.00    -0.271 OA
HETATM    5  H   UNK N   1      33.689  18.440   9.157  0.00  0.00     0.163 HD
BRANCH   3   6
HETATM    6  C   UNK N   1      34.687  15.217   9.757  0.00  0.00     0.177 C 
BRANCH   6   7
HETATM    7  N   UNK N   1      35.931  14.684   9.250  0.00  0.00    -0.348 N 
HETATM    8  C   UNK N   1      35.990  13.714   8.298  0.00  0.00     0.214 C 
HETATM    9  C   UNK N   1      34.749  13.152   7.670  0.00  0.00     0.117 C 
HETATM   10  O   UNK N   1      37.075  13.310   7.919  0.00  0.00    -0.274 OA
HETATM   11  H   UNK N   1      36.775  15.040   9.611  0.00  0.00     0.163 HD
ENDBRANCH   6   7
BRANCH   6  12
HETATM   12  C   UNK N   1      34.486  14.719  11.196  0.00  0.00     0.038 C 
BRANCH  12  13
HETATM   13  C   UNK N   1      35.698  13.981  11.749  0.00  0.00    -0.020 C 
HETATM   14  C   UNK N   1      35.338  12.533  11.999  0.00  0.00     0.009 C 
HETATM   15  C   UNK N   1      36.124  14.619  13.058  0.00  0.00     0.009 C 
ENDBRANCH  12  13
ENDBRANCH   6  12
ENDBRANCH   3   6
ENDBRANCH   1   2
BRANCH   1  16
HETATM   16  C   UNK N   1      31.249  17.676   8.335  0.00  0.00     0.241 C 
HETATM   17  O   UNK N   1      31.131  18.673   9.034  0.00  0.00    -0.271 OA
HETATM   18  N   UNK N   1      30.190  17.166   7.654  0.00  0.00    -0.349 N 
HETATM   19  H   UNK N   1      30.309  16.282   7.235  0.00  0.00     0.163 HD
BRANCH  18  20
HETATM   20  C   UNK N   1      28.908  17.805   7.488  0.00  0.00     0.146 C 
BRANCH  20  21
HETATM   21  C   UNK N   1      27.898  17.165   8.389  0.00  0.00     0.256 C 
HETATM   22  O   UNK N   1      27.727  17.579   9.523  0.00  0.00    -0.305 OA
ENDBRANCH  20  21
BRANCH  20  23
HETATM   23  C   UNK N   1      28.513  17.578   6.033  0.00  0.00     0.032 C 
BRANCH  23  24
HETATM   24  C   UNK N   1      28.454  18.857   5.216  0.00  0.00     0.002 C 
BRANCH  24  25
HETATM   25  C   UNK N   1      27.221  19.650   5.606  0.00  0.00    -0.004 C 
HETATM   26  C   UNK N   1      27.627  21.027   6.098  0.00  0.00     0.005 C 
ENDBRANCH  24  25
ENDBRANCH  23  24
ENDBRANCH  20  23
ENDBRANCH  18  20
ENDBRANCH   1  16
BRANCH   1  27
HETATM   27  C   UNK N   1      32.922  17.550   6.677  0.00  0.00     0.038 C 
BRANCH  27  28
HETATM   28  C   UNK N   1      32.980  16.544   5.548  0.00  0.00    -0.020 C 
HETATM   29  C   UNK N   1      32.758  17.311   4.259  0.00  0.00     0.009 C 
HETATM   30  C   UNK N   1      34.363  15.925   5.490  0.00  0.00     0.009 C 
ENDBRANCH  27  28
ENDBRANCH   1  27
TORSDOF 13
ENDMDL
MODEL 5
REMARK VINA RESULT:      -5.5     17.945     21.493
REMARK  13 active torsions:
REMARK  status: ('A' for Active; 'I' for Inactive)
REMARK    1  A    between atoms: C_2  and  N_1 
REMARK       I    between atoms: N_1  and  C_9 
REMARK    2  A    between atoms: C_2  and  C_3 
REMARK    3  A    between atoms: C_2  and  C_5 
REMARK       I    between atoms: C_3  and  N_12 
REMARK    4  A    between atoms: C_5  and  C_6 
REMARK    5  A    between atoms: C_13  and  N_12 
REMARK    6  A    between atoms: C_13  and  C_14 
REMARK    7  A    between atoms: C_13  and  C_16 
REMARK       I    between atoms: C_14  and  N_20 
REMARK    8  A    between atoms: C_16  and  C_17 
REMARK    9  A    between atoms: C_21  and  N_20 
REMARK   10  A    between atoms: C_21  and  C_22 
REMARK   11  A    between atoms: C_21  and  C_24 
REMARK   12  A    between atoms: C_24  and  C_25 
REMARK   13  A    between atoms: C_25  and  C_27 
ROOT
HETATM    1  C   UNK N   1      35.234  12.640  10.981  0.00  0.00     0.177 C 
ENDROOT
BRANCH   1   2
HETATM    2  N   UNK N   1      34.022  12.716  10.182  0.00  0.00    -0.346 N 
HETATM    3  C   UNK N   1      33.716  13.466   9.076  0.00  0.00     0.241 C 
HETATM    4  O   UNK N   1      32.640  13.254   8.540  0.00  0.00    -0.271 OA
HETATM    5  H   UNK N   1      33.296  12.126  10.488  0.00  0.00     0.163 HD
BRANCH   3   6
HETATM    6  C   UNK N   1      34.594  14.554   8.448  0.00  0.00     0.177 C 
BRANCH   6   7
HETATM    7  N   UNK N   1      35.237  15.424   9.405  0.00  0.00    -0.348 N 
HETATM    8  C   UNK N   1      34.901  16.733   9.563  0.00  0.00     0.214 C 
HETATM    9  C   UNK N   1      33.793  17.361   8.769  0.00  0.00     0.117 C 
HETATM   10  O   UNK N   1      35.488  17.408  10.390  0.00  0.00    -0.274 OA
HETATM   11  H   UNK N   1      35.953  15.052   9.971  0.00  0.00     0.163 HD
ENDBRANCH   6   7
BRANCH   6  12
HETATM   12  C   UNK N   1      35.670  13.929   7.548  0.00  0.00     0.038 C 
BRANCH  12  13
HETATM   13  C   UNK N   1      35.947  14.743   6.291  0.00  0.00    -0.020 C 
HETATM   14  C   UNK N   1      34.659  15.368   5.800  0.00  0.00     0.009 C 
HETATM   15  C   UNK N   1      36.500  13.833   5.210  0.00  0.00     0.009 C 
ENDBRANCH  12  13
ENDBRANCH   6  12
ENDBRANCH   3   6
ENDBRANCH   1   2
BRANCH   1  16
HETATM   16  C   UNK N   1      35.249  13.518  12.204  0.00  0.00     0.241 C 
HETATM   17  O   UNK N   1      34.490  14.473  12.308  0.00  0.00    -0.271 OA
HETATM   18  N   UNK N   1      36.050  13.141  13.235  0.00  0.00    -0.349 N 
HETATM   19  H   UNK N   1      36.744  12.469  13.041  0.00  0.00     0.163 HD
BRANCH  18  20
HETATM   20  C   UNK N   1      35.975  13.638  14.586  0.00  0.00     0.146 C 
BRANCH  20  21
HETATM   21  C   UNK N   1      36.894  14.807  14.753  0.00  0.00     0.256 C 
HETATM   22  O   UNK N   1      37.516  14.966  15.790  0.00  0.00    -0.305 OA
ENDBRANCH  20  21
BRANCH  20  23
HETATM   23  C   UNK N   1      36.436  12.493  15.480  0.00  0.00     0.032 C 
BRANCH  23  24
HETATM   24  C   UNK N   1      37.326  11.491  14.767  0.00  0.00     0.002 C 
BRANCH  24  25
HETATM   25  C   UNK N   1      37.144  10.119  15.390  0.00  0.00    -0.004 C 
HETATM   26  C   UNK N   1      37.838   9.070  14.540  0.00  0.00     0.005 C 
ENDBRANCH  24  25
ENDBRANCH  23  24
ENDBRANCH  20  23
ENDBRANCH  18  20
ENDBRANCH   1  16
BRANCH   1  27
HETATM   27  C   UNK N   1      35.344  11.239  11.605  0.00  0.00     0.038 C 
BRANCH  27  28
HETATM   28  C   UNK N   1      34.070  10.493  11.937  0.00  0.00    -0.020 C 
HETATM   29  C   UNK N   1      34.248   9.070  11.442  0.00  0.00     0.009 C 
HETATM   30  C   UNK N   1      33.887  10.443  13.441  0.00  0.00     0.009 C 
ENDBRANCH  27  28
ENDBRANCH   1  27
TORSDOF 13
ENDMDL
MODEL 6
REMARK VINA RESULT:      -5.5     13.384     17.307
REMARK  13 active torsions:
REMARK  status: ('A' for Active; 'I' for Inactive)
REMARK    1  A    between atoms: C_2  and  N_1 
REMARK       I    between atoms: N_1  and  C_9 
REMARK    2  A    between atoms: C_2  and  C_3 
REMARK    3  A    between atoms: C_2  and  C_5 
REMARK       I    between atoms: C_3  and  N_12 
REMARK    4  A    between atoms: C_5  and  C_6 
REMARK    5  A    between atoms: C_13  and  N_12 
REMARK    6  A    between atoms: C_13  and  C_14 
REMARK    7  A    between atoms: C_13  and  C_16 
REMARK       I    between atoms: C_14  and  N_20 
REMARK    8  A    between atoms: C_16  and  C_17 
REMARK    9  A    between atoms: C_21  and  N_20 
REMARK   10  A    between atoms: C_21  and  C_22 
REMARK   11  A    between atoms: C_21  and  C_24 
REMARK   12  A    between atoms: C_24  and  C_25 
REMARK   13  A    between atoms: C_25  and  C_27 
ROOT
HETATM    1  C   UNK N   1      32.539  17.017   8.063  0.00  0.00     0.177 C 
ENDROOT
BRANCH   1   2
HETATM    2  N   UNK N   1      33.608  17.393   8.974  0.00  0.00    -0.346 N 
HETATM    3  C   UNK N   1      34.481  16.629   9.704  0.00  0.00     0.241 C 
HETATM    4  O   UNK N   1      35.354  17.219  10.320  0.00  0.00    -0.271 OA
HETATM    5  H   UNK N   1      33.723  18.364   9.086  0.00  0.00     0.163 HD
BRANCH   3   6
HETATM    6  C   UNK N   1      34.465  15.102   9.827  0.00  0.00     0.177 C 
BRANCH   6   7
HETATM    7  N   UNK N   1      34.133  14.616  11.146  0.00  0.00    -0.348 N 
HETATM    8  C   UNK N   1      35.039  14.021  11.969  0.00  0.00     0.214 C 
HETATM    9  C   UNK N   1      36.477  13.864  11.572  0.00  0.00     0.117 C 
HETATM   10  O   UNK N   1      34.687  13.634  13.069  0.00  0.00    -0.274 OA
HETATM   11  H   UNK N   1      33.207  14.720  11.465  0.00  0.00     0.163 HD
ENDBRANCH   6   7
BRANCH   6  12
HETATM   12  C   UNK N   1      33.488  14.487   8.813  0.00  0.00     0.038 C 
BRANCH  12  13
HETATM   13  C   UNK N   1      34.164  13.543   7.828  0.00  0.00    -0.020 C 
HETATM   14  C   UNK N   1      33.149  13.058   6.815  0.00  0.00     0.009 C 
HETATM   15  C   UNK N   1      34.726  12.349   8.576  0.00  0.00     0.009 C 
ENDBRANCH  12  13
ENDBRANCH   6  12
ENDBRANCH   3   6
ENDBRANCH   1   2
BRANCH   1  16
HETATM   16  C   UNK N   1      31.204  17.655   8.345  0.00  0.00     0.241 C 
HETATM   17  O   UNK N   1      31.120  18.682   9.006  0.00  0.00    -0.271 OA
HETATM   18  N   UNK N   1      30.114  17.116   7.740  0.00  0.00    -0.349 N 
HETATM   19  H   UNK N   1      30.213  16.215   7.354  0.00  0.00     0.163 HD
BRANCH  18  20
HETATM   20  C   UNK N   1      28.823  17.748   7.611  0.00  0.00     0.146 C 
BRANCH  20  21
HETATM   21  C   UNK N   1      27.866  17.159   8.600  0.00  0.00     0.256 C 
HETATM   22  O   UNK N   1      28.088  17.229   9.797  0.00  0.00    -0.305 OA
ENDBRANCH  20  21
BRANCH  20  23
HETATM   23  C   UNK N   1      28.348  17.444   6.195  0.00  0.00     0.032 C 
BRANCH  23  24
HETATM   24  C   UNK N   1      28.957  18.356   5.145  0.00  0.00     0.002 C 
BRANCH  24  25
HETATM   25  C   UNK N   1      27.873  19.233   4.547  0.00  0.00    -0.004 C 
HETATM   26  C   UNK N   1      27.631  20.435   5.440  0.00  0.00     0.005 C 
ENDBRANCH  24  25
ENDBRANCH  23  24
ENDBRANCH  20  23
ENDBRANCH  18  20
ENDBRANCH   1  16
BRANCH   1  27
HETATM   27  C   UNK N   1      32.852  17.562   6.659  0.00  0.00     0.038 C 
BRANCH  27  28
HETATM   28  C   UNK N   1      32.836  16.600   5.491  0.00  0.00    -0.020 C 
HETATM   29  C   UNK N   1      32.403  17.392   4.272  0.00  0.00     0.009 C 
HETATM   30  C   UNK N   1      34.238  16.084   5.238  0.00  0.00     0.009 C 
ENDBRANCH  27  28
ENDBRANCH   1  27
TORSDOF 13
ENDMDL
MODEL 7
REMARK VINA RESULT:      -5.4     11.762     14.886
REMARK  13 active torsions:
REMARK  status: ('A' for Active; 'I' for Inactive)
REMARK    1  A    between atoms: C_2  and  N_1 
REMARK       I    between atoms: N_1  and  C_9 
REMARK    2  A    between atoms: C_2  and  C_3 
REMARK    3  A    between atoms: C_2  and  C_5 
REMARK       I    between atoms: C_3  and  N_12 
REMARK    4  A    between atoms: C_5  and  C_6 
REMARK    5  A    between atoms: C_13  and  N_12 
REMARK    6  A    between atoms: C_13  and  C_14 
REMARK    7  A    between atoms: C_13  and  C_16 
REMARK       I    between atoms: C_14  and  N_20 
REMARK    8  A    between atoms: C_16  and  C_17 
REMARK    9  A    between atoms: C_21  and  N_20 
REMARK   10  A    between atoms: C_21  and  C_22 
REMARK   11  A    between atoms: C_21  and  C_24 
REMARK   12  A    between atoms: C_24  and  C_25 
REMARK   13  A    between atoms: C_25  and  C_27 
ROOT
HETATM    1  C   UNK N   1      29.832  16.675   5.886  0.00  0.00     0.177 C 
ENDROOT
BRANCH   1   2
HETATM    2  N   UNK N   1      30.401  15.492   6.512  0.00  0.00    -0.346 N 
HETATM    3  C   UNK N   1      31.698  15.162   6.805  0.00  0.00     0.241 C 
HETATM    4  O   UNK N   1      31.882  14.130   7.431  0.00  0.00    -0.271 OA
HETATM    5  H   UNK N   1      29.738  14.810   6.769  0.00  0.00     0.163 HD
BRANCH   3   6
HETATM    6  C   UNK N   1      32.946  15.962   6.418  0.00  0.00     0.177 C 
BRANCH   6   7
HETATM    7  N   UNK N   1      33.982  15.970   7.425  0.00  0.00    -0.348 N 
HETATM    8  C   UNK N   1      34.308  17.076   8.147  0.00  0.00     0.214 C 
HETATM    9  C   UNK N   1      33.575  18.373   7.973  0.00  0.00     0.117 C 
HETATM   10  O   UNK N   1      35.195  17.009   8.979  0.00  0.00    -0.274 OA
HETATM   11  H   UNK N   1      34.476  15.135   7.597  0.00  0.00     0.163 HD
ENDBRANCH   6   7
BRANCH   6  12
HETATM   12  C   UNK N   1      33.540  15.436   5.102  0.00  0.00     0.038 C 
BRANCH  12  13
HETATM   13  C   UNK N   1      33.270  16.352   3.916  0.00  0.00    -0.020 C 
HETATM   14  C   UNK N   1      32.885  17.728   4.416  0.00  0.00     0.009 C 
HETATM   15  C   UNK N   1      32.129  15.787   3.090  0.00  0.00     0.009 C 
ENDBRANCH  12  13
ENDBRANCH   6  12
ENDBRANCH   3   6
ENDBRANCH   1   2
BRANCH   1  16
HETATM   16  C   UNK N   1      28.383  16.557   5.495  0.00  0.00     0.241 C 
HETATM   17  O   UNK N   1      27.731  15.559   5.771  0.00  0.00    -0.271 OA
HETATM   18  N   UNK N   1      27.797  17.646   4.932  0.00  0.00    -0.349 N 
HETATM   19  H   UNK N   1      28.395  18.353   4.593  0.00  0.00     0.163 HD
BRANCH  18  20
HETATM   20  C   UNK N   1      26.378  17.859   4.786  0.00  0.00     0.146 C 
BRANCH  20  21
HETATM   21  C   UNK N   1      25.968  17.614   3.368  0.00  0.00     0.256 C 
HETATM   22  O   UNK N   1      26.104  16.512   2.863  0.00  0.00    -0.305 OA
ENDBRANCH  20  21
BRANCH  20  23
HETATM   23  C   UNK N   1      26.136  19.321   5.143  0.00  0.00     0.032 C 
BRANCH  23  24
HETATM   24  C   UNK N   1      27.343  20.210   4.906  0.00  0.00     0.002 C 
BRANCH  24  25
HETATM   25  C   UNK N   1      27.693  20.941   6.189  0.00  0.00    -0.004 C 
HETATM   26  C   UNK N   1      26.432  21.481   6.836  0.00  0.00     0.005 C 
ENDBRANCH  24  25
ENDBRANCH  23  24
ENDBRANCH  20  23
ENDBRANCH  18  20
ENDBRANCH   1  16
BRANCH   1  27
HETATM   27  C   UNK N   1      29.784  17.819   6.912  0.00  0.00     0.038 C 
BRANCH  27  28
HETATM   28  C   UNK N   1      29.368  17.500   8.332  0.00  0.00    -0.020 C 
HETATM   29  C   UNK N   1      30.359  18.189   9.250  0.00  0.00     0.009 C 
HETATM   30  C   UNK N   1      27.997  18.086   8.604  0.00  0.00     0.009 C 
ENDBRANCH  27  28
ENDBRANCH   1  27
TORSDOF 13
ENDMDL
MODEL 8
REMARK VINA RESULT:      -5.4     12.214     14.391
REMARK  13 active torsions:
REMARK  status: ('A' for Active; 'I' for Inactive)
REMARK    1  A    between atoms: C_2  and  N_1 
REMARK       I    between atoms: N_1  and  C_9 
REMARK    2  A    between atoms: C_2  and  C_3 
REMARK    3  A    between atoms: C_2  and  C_5 
REMARK       I    between atoms: C_3  and  N_12 
REMARK    4  A    between atoms: C_5  and  C_6 
REMARK    5  A    between atoms: C_13  and  N_12 
REMARK    6  A    between atoms: C_13  and  C_14 
REMARK    7  A    between atoms: C_13  and  C_16 
REMARK       I    between atoms: C_14  and  N_20 
REMARK    8  A    between atoms: C_16  and  C_17 
REMARK    9  A    between atoms: C_21  and  N_20 
REMARK   10  A    between atoms: C_21  and  C_22 
REMARK   11  A    between atoms: C_21  and  C_24 
REMARK   12  A    between atoms: C_24  and  C_25 
REMARK   13  A    between atoms: C_25  and  C_27 
ROOT
HETATM    1  C   UNK N   1      22.396  17.776   4.204  0.00  0.00     0.177 C 
ENDROOT
BRANCH   1   2
HETATM    2  N   UNK N   1      22.652  19.135   3.753  0.00  0.00    -0.346 N 
HETATM    3  C   UNK N   1      23.827  19.810   3.544  0.00  0.00     0.241 C 
HETATM    4  O   UNK N   1      23.747  20.928   3.062  0.00  0.00    -0.271 OA
HETATM    5  H   UNK N   1      21.841  19.660   3.564  0.00  0.00     0.163 HD
BRANCH   3   6
HETATM    6  C   UNK N   1      25.235  19.298   3.865  0.00  0.00     0.177 C 
BRANCH   6   7
HETATM    7  N   UNK N   1      25.632  18.135   3.105  0.00  0.00    -0.348 N 
HETATM    8  C   UNK N   1      25.904  16.931   3.677  0.00  0.00     0.214 C 
HETATM    9  C   UNK N   1      25.769  16.715   5.155  0.00  0.00     0.117 C 
HETATM   10  O   UNK N   1      26.235  15.994   2.973  0.00  0.00    -0.274 OA
HETATM   11  H   UNK N   1      25.709  18.218   2.127  0.00  0.00     0.163 HD
ENDBRANCH   6   7
BRANCH   6  12
HETATM   12  C   UNK N   1      26.276  20.407   3.650  0.00  0.00     0.038 C 
BRANCH  12  13
HETATM   13  C   UNK N   1      27.183  20.619   4.856  0.00  0.00    -0.020 C 
HETATM   14  C   UNK N   1      28.172  19.478   4.951  0.00  0.00     0.009 C 
HETATM   15  C   UNK N   1      26.344  20.655   6.119  0.00  0.00     0.009 C 
ENDBRANCH  12  13
ENDBRANCH   6  12
ENDBRANCH   3   6
ENDBRANCH   1   2
BRANCH   1  16
HETATM   16  C   UNK N   1      22.128  17.633   5.679  0.00  0.00     0.241 C 
HETATM   17  O   UNK N   1      22.099  18.609   6.416  0.00  0.00    -0.271 OA
HETATM   18  N   UNK N   1      21.804  16.395   6.138  0.00  0.00    -0.349 N 
HETATM   19  H   UNK N   1      21.994  15.632   5.544  0.00  0.00     0.163 HD
BRANCH  18  20
HETATM   20  C   UNK N   1      21.206  16.101   7.417  0.00  0.00     0.146 C 
BRANCH  20  21
HETATM   21  C   UNK N   1      21.171  14.621   7.636  0.00  0.00     0.256 C 
HETATM   22  O   UNK N   1      20.221  13.958   7.254  0.00  0.00    -0.305 OA
ENDBRANCH  20  21
BRANCH  20  23
HETATM   23  C   UNK N   1      19.783  16.642   7.347  0.00  0.00     0.032 C 
BRANCH  23  24
HETATM   24  C   UNK N   1      19.363  17.402   8.593  0.00  0.00     0.002 C 
BRANCH  24  25
HETATM   25  C   UNK N   1      18.287  16.621   9.323  0.00  0.00    -0.004 C 
HETATM   26  C   UNK N   1      16.938  17.286   9.119  0.00  0.00     0.005 C 
ENDBRANCH  24  25
ENDBRANCH  23  24
ENDBRANCH  20  23
ENDBRANCH  18  20
ENDBRANCH   1  16
BRANCH   1  27
HETATM   27  C   UNK N   1      21.072  17.281   3.600  0.00  0.00     0.038 C 
BRANCH  27  28
HETATM   28  C   UNK N   1      20.519  17.995   2.386  0.00  0.00    -0.020 C 
HETATM   29  C   UNK N   1      20.159  16.929   1.369  0.00  0.00     0.009 C 
HETATM   30  C   UNK N   1      19.246  18.727   2.763  0.00  0.00     0.009 C 
ENDBRANCH  27  28
ENDBRANCH   1  27
TORSDOF 13
ENDMDL
MODEL 9
REMARK VINA RESULT:      -5.4     12.101     14.726
REMARK  13 active torsions:
REMARK  status: ('A' for Active; 'I' for Inactive)
REMARK    1  A    between atoms: C_2  and  N_1 
REMARK       I    between atoms: N_1  and  C_9 
REMARK    2  A    between atoms: C_2  and  C_3 
REMARK    3  A    between atoms: C_2  and  C_5 
REMARK       I    between atoms: C_3  and  N_12 
REMARK    4  A    between atoms: C_5  and  C_6 
REMARK    5  A    between atoms: C_13  and  N_12 
REMARK    6  A    between atoms: C_13  and  C_14 
REMARK    7  A    between atoms: C_13  and  C_16 
REMARK       I    between atoms: C_14  and  N_20 
REMARK    8  A    between atoms: C_16  and  C_17 
REMARK    9  A    between atoms: C_21  and  N_20 
REMARK   10  A    between atoms: C_21  and  C_22 
REMARK   11  A    between atoms: C_21  and  C_24 
REMARK   12  A    between atoms: C_24  and  C_25 
REMARK   13  A    between atoms: C_25  and  C_27 
ROOT
HETATM    1  C   UNK N   1      25.607  17.705   4.973  0.00  0.00     0.177 C 
ENDROOT
BRANCH   1   2
HETATM    2  N   UNK N   1      26.193  19.000   5.281  0.00  0.00    -0.346 N 
HETATM    3  C   UNK N   1      27.344  19.333   5.946  0.00  0.00     0.241 C 
HETATM    4  O   UNK N   1      27.648  20.515   5.974  0.00  0.00    -0.271 OA
HETATM    5  H   UNK N   1      25.673  19.769   4.954  0.00  0.00     0.163 HD
BRANCH   3   6
HETATM    6  C   UNK N   1      28.288  18.364   6.666  0.00  0.00     0.177 C 
BRANCH   6   7
HETATM    7  N   UNK N   1      27.660  17.591   7.712  0.00  0.00    -0.348 N 
HETATM    8  C   UNK N   1      28.139  17.534   8.984  0.00  0.00     0.214 C 
HETATM    9  C   UNK N   1      29.349  18.315   9.404  0.00  0.00     0.117 C 
HETATM   10  O   UNK N   1      27.557  16.859   9.815  0.00  0.00    -0.274 OA
HETATM   11  H   UNK N   1      26.846  17.081   7.494  0.00  0.00     0.163 HD
ENDBRANCH   6   7
BRANCH   6  12
HETATM   12  C   UNK N   1      28.942  17.401   5.664  0.00  0.00     0.038 C 
BRANCH  12  13
HETATM   13  C   UNK N   1      30.461  17.362   5.776  0.00  0.00    -0.020 C 
HETATM   14  C   UNK N   1      31.066  17.242   4.394  0.00  0.00     0.009 C 
HETATM   15  C   UNK N   1      30.877  16.162   6.605  0.00  0.00     0.009 C 
ENDBRANCH  12  13
ENDBRANCH   6  12
ENDBRANCH   3   6
ENDBRANCH   1   2
BRANCH   1  16
HETATM   16  C   UNK N   1      24.105  17.694   4.865  0.00  0.00     0.241 C 
HETATM   17  O   UNK N   1      23.534  18.183   3.900  0.00  0.00    -0.271 OA
HETATM   18  N   UNK N   1      23.415  17.016   5.820  0.00  0.00    -0.349 N 
HETATM   19  H   UNK N   1      23.902  16.780   6.644  0.00  0.00     0.163 HD
BRANCH  18  20
HETATM   20  C   UNK N   1      22.034  16.610   5.734  0.00  0.00     0.146 C 
BRANCH  20  21
HETATM   21  C   UNK N   1      21.215  17.370   6.729  0.00  0.00     0.256 C 
HETATM   22  O   UNK N   1      21.289  18.586   6.797  0.00  0.00    -0.305 OA
ENDBRANCH  20  21
BRANCH  20  23
HETATM   23  C   UNK N   1      22.012  15.126   6.079  0.00  0.00     0.032 C 
BRANCH  23  24
HETATM   24  C   UNK N   1      22.122  14.849   7.568  0.00  0.00     0.002 C 
BRANCH  24  25
HETATM   25  C   UNK N   1      21.117  13.783   7.960  0.00  0.00    -0.004 C 
HETATM   26  C   UNK N   1      20.946  13.763   9.467  0.00  0.00     0.005 C 
ENDBRANCH  24  25
ENDBRANCH  23  24
ENDBRANCH  20  23
ENDBRANCH  18  20
ENDBRANCH   1  16
BRANCH   1  27
HETATM   27  C   UNK N   1      26.022  17.284   3.553  0.00  0.00     0.038 C 
BRANCH  27  28
HETATM   28  C   UNK N   1      26.361  15.830   3.301  0.00  0.00    -0.020 C 
HETATM   29  C   UNK N   1      25.386  15.323   2.256  0.00  0.00     0.009 C 
HETATM   30  C   UNK N   1      27.758  15.728   2.723  0.00  0.00     0.009 C 
ENDBRANCH  27  28
ENDBRANCH   1  27
TORSDOF 13
ENDMDL
