REMARK  13 active torsions:
REMARK  status: ('A' for Active; 'I' for Inactive)
REMARK    1  A    between atoms: C_2  and  N_1 
REMARK       I    between atoms: N_1  and  C_9 
REMARK    2  A    between atoms: C_2  and  C_3 
REMARK    3  A    between atoms: C_2  and  C_5 
REMARK       I    between atoms: C_3  and  N_12 
REMARK    4  A    between atoms: C_5  and  C_6 
REMARK    5  A    between atoms: C_13  and  N_12 
REMARK    6  A    between atoms: C_13  and  C_14 
REMARK    7  A    between atoms: C_13  and  C_16 
REMARK       I    between atoms: C_14  and  N_20 
REMARK    8  A    between atoms: C_16  and  C_17 
REMARK    9  A    between atoms: C_21  and  N_20 
REMARK   10  A    between atoms: C_21  and  C_22 
REMARK   11  A    between atoms: C_21  and  C_24 
REMARK   12  A    between atoms: C_24  and  C_25 
REMARK   13  A    between atoms: C_25  and  C_27 
ROOT
HETATM    1  C   UNK N   1       0.038   1.406  -0.235  0.00  0.00     0.177 C 
ENDROOT
BRANCH   1   2
HETATM    2  N   UNK N   1       1.234   1.735   0.524  0.00  0.00    -0.346 N 
HETATM    3  C   UNK N   1       2.405   1.046   0.706  0.00  0.00     0.241 C 
HETATM    4  O   UNK N   1       3.293   1.612   1.323  0.00  0.00    -0.271 OA
HETATM    5  H   UNK N   1       1.195   2.603   0.987  0.00  0.00     0.163 HD
BRANCH   3   6
HETATM    6  C   UNK N   1       2.707  -0.373   0.214  0.00  0.00     0.177 C 
BRANCH   6   7
HETATM    7  N   UNK N   1       1.577  -1.049  -0.380  0.00  0.00    -0.348 N 
HETATM    8  C   UNK N   1       1.538  -2.394  -0.582  0.00  0.00     0.214 C 
HETATM    9  C   UNK N   1       2.667  -3.286  -0.158  0.00  0.00     0.117 C 
HETATM   10  O   UNK N   1       0.551  -2.896  -1.090  0.00  0.00    -0.274 OA
HETATM   11  H   UNK N   1       0.798  -0.511  -0.651  0.00  0.00     0.163 HD
ENDBRANCH   6   7
BRANCH   6  12
HETATM   12  C   UNK N   1       3.863  -0.361  -0.798  0.00  0.00     0.038 C 
BRANCH  12  13
HETATM   13  C   UNK N   1       5.222  -0.125  -0.152  0.00  0.00    -0.020 C 
HETATM   14  C   UNK N   1       6.077   0.723  -1.068  0.00  0.00     0.009 C 
HETATM   15  C   UNK N   1       5.911  -1.457   0.077  0.00  0.00     0.009 C 
ENDBRANCH  12  13
ENDBRANCH   6  12
ENDBRANCH   3   6
ENDBRANCH   1   2
BRANCH   1  16
HETATM   16  C   UNK N   1      -0.795   0.290   0.337  0.00  0.00     0.241 C 
HETATM   17  O   UNK N   1      -0.501  -0.240   1.400  0.00  0.00    -0.271 OA
HETATM   18  N   UNK N   1      -1.948  -0.024  -0.310  0.00  0.00    -0.349 N 
HETATM   19  H   UNK N   1      -2.055   0.317  -1.228  0.00  0.00     0.163 HD
BRANCH  18  20
HETATM   20  C   UNK N   1      -3.029  -0.812   0.229  0.00  0.00     0.146 C 
BRANCH  20  21
HETATM   21  C   UNK N   1      -3.248  -2.026  -0.618  0.00  0.00     0.256 C 
HETATM   22  O   UNK N   1      -2.382  -2.879  -0.718  0.00  0.00    -0.305 OA
ENDBRANCH  20  21
BRANCH  20  23
HETATM   23  C   UNK N   1      -4.264   0.080   0.175  0.00  0.00     0.032 C 
BRANCH  23  24
HETATM   24  C   UNK N   1      -5.485  -0.537   0.833  0.00  0.00     0.002 C 
BRANCH  24  25
HETATM   25  C   UNK N   1      -6.729   0.212   0.394  0.00  0.00    -0.004 C 
HETATM   26  C   UNK N   1      -7.201  -0.313  -0.949  0.00  0.00     0.005 C 
ENDBRANCH  24  25
ENDBRANCH  23  24
ENDBRANCH  20  23
ENDBRANCH  18  20
ENDBRANCH   1  16
BRANCH   1  27
HETATM   27  C   UNK N   1      -0.944   2.588  -0.174  0.00  0.00     0.038 C 
BRANCH  27  28
HETATM   28  C   UNK N   1      -0.484   3.937  -0.683  0.00  0.00    -0.020 C 
HETATM   29  C   UNK N   1      -1.731   4.744  -0.989  0.00  0.00     0.009 C 
HETATM   30  C   UNK N   1       0.281   4.658   0.409  0.00  0.00     0.009 C 
ENDBRANCH  27  28
ENDBRANCH   1  27
TORSDOF 13
