MODEL 1
REMARK VINA RESULT:      -7.7      0.000      0.000
REMARK  4 active torsions:
REMARK  status: ('A' for Active; 'I' for Inactive)
REMARK    1  A    between atoms: C_7  and  C_8 
REMARK    2  A    between atoms: C_14  and  N_15 
REMARK       I    between atoms: N_15  and  C_16 
REMARK    3  A    between atoms: C_16  and  C_18 
REMARK    4  A    between atoms: C_21  and  O_23 
ROOT
HETATM    1  C   UNK N   1      35.072  15.227   9.522  0.00  0.00     0.141 C 
HETATM    2  C   UNK N   1      34.989  16.665   9.296  0.00  0.00     0.107 C 
HETATM    3  N   UNK N   1      34.928  17.802   9.084  0.00  0.00    -0.191 NA
HETATM    4  C   UNK N   1      35.278  14.396   8.471  0.00  0.00     0.065 C 
HETATM    5  C   UNK N   1      35.434  14.939   7.082  0.00  0.00     0.077 C 
ENDROOT
BRANCH   1   6
HETATM    6  C   UNK N   1      34.915  14.765  10.941  0.00  0.00     0.269 C 
HETATM    7  N   UNK N   1      35.912  14.092  11.627  0.00  0.00    -0.322 N 
HETATM    8  H   UNK N   1      36.779  13.951  11.181  0.00  0.00     0.169 HD
HETATM    9  O   UNK N   1      33.850  15.029  11.495  0.00  0.00    -0.266 OA
BRANCH   7  10
HETATM   10  C   UNK N   1      35.735  13.589  12.966  0.00  0.00     0.036 A 
HETATM   11  C   UNK N   1      34.852  12.531  13.265  0.00  0.00     0.054 A 
HETATM   12  C   UNK N   1      34.743  12.026  14.593  0.00  0.00     0.047 A 
HETATM   13  C   UNK N   1      35.550  12.590  15.639  0.00  0.00    -0.002 A 
HETATM   14 Cl   UNK N   1      33.634  10.681  14.857  0.00  0.00    -0.083 Cl
HETATM   15  C   UNK N   1      36.383  13.648  15.294  0.00  0.00     0.016 A 
HETATM   16  C   UNK N   1      36.472  14.137  14.011  0.00  0.00     0.030 A 
BRANCH  13  17
HETATM   17  C   UNK N   1      35.548  12.169  17.100  0.00  0.00    -0.003 A 
HETATM   18  C   UNK N   1      36.020  10.880  17.542  0.00  0.00     0.045 A 
HETATM   19 Cl   UNK N   1      36.562   9.579  16.476  0.00  0.00    -0.083 Cl
HETATM   20  C   UNK N   1      36.043  10.570  18.906  0.00  0.00     0.024 A 
HETATM   21  C   UNK N   1      35.618  11.491  19.856  0.00  0.00     0.002 A 
HETATM   22  C   UNK N   1      35.145  12.736  19.449  0.00  0.00     0.001 A 
HETATM   23  C   UNK N   1      35.109  13.069  18.089  0.00  0.00     0.014 A 
ENDBRANCH  13  17
ENDBRANCH   7  10
ENDBRANCH   1   6
BRANCH   4  24
HETATM   24  O   UNK N   1      35.355  13.064   8.650  0.00  0.00    -0.364 OA
HETATM   25  H   UNK N   1      35.605  12.717   9.484  0.00  0.00     0.217 HD
ENDBRANCH   4  24
TORSDOF 4
ENDMDL
MODEL 2
REMARK VINA RESULT:      -7.4      1.748      2.329
REMARK  4 active torsions:
REMARK  status: ('A' for Active; 'I' for Inactive)
REMARK    1  A    between atoms: C_7  and  C_8 
REMARK    2  A    between atoms: C_14  and  N_15 
REMARK       I    between atoms: N_15  and  C_16 
REMARK    3  A    between atoms: C_16  and  C_18 
REMARK    4  A    between atoms: C_21  and  O_23 
ROOT
HETATM    1  C   UNK N   1      34.609  15.156   9.129  0.00  0.00     0.141 C 
HETATM    2  C   UNK N   1      34.980  14.081   8.216  0.00  0.00     0.107 C 
HETATM    3  N   UNK N   1      35.267  13.247   7.466  0.00  0.00    -0.191 NA
HETATM    4  C   UNK N   1      34.220  16.354   8.627  0.00  0.00     0.065 C 
HETATM    5  C   UNK N   1      34.156  16.582   7.147  0.00  0.00     0.077 C 
ENDROOT
BRANCH   1   6
HETATM    6  C   UNK N   1      34.691  14.845  10.594  0.00  0.00     0.269 C 
HETATM    7  N   UNK N   1      35.724  14.109  11.150  0.00  0.00    -0.322 N 
HETATM    8  H   UNK N   1      36.463  13.818  10.567  0.00  0.00     0.169 HD
HETATM    9  O   UNK N   1      33.794  15.293  11.307  0.00  0.00    -0.266 OA
BRANCH   7  10
HETATM   10  C   UNK N   1      35.765  13.753  12.546  0.00  0.00     0.036 A 
HETATM   11  C   UNK N   1      36.502  14.493  13.493  0.00  0.00     0.054 A 
HETATM   12  C   UNK N   1      36.475  14.141  14.874  0.00  0.00     0.047 A 
HETATM   13  C   UNK N   1      35.678  13.029  15.311  0.00  0.00    -0.002 A 
HETATM   14 Cl   UNK N   1      37.407  15.149  15.982  0.00  0.00    -0.083 Cl
HETATM   15  C   UNK N   1      34.993  12.319  14.332  0.00  0.00     0.016 A 
HETATM   16  C   UNK N   1      35.035  12.659  13.000  0.00  0.00     0.030 A 
BRANCH  13  17
HETATM   17  C   UNK N   1      35.548  12.526  16.740  0.00  0.00    -0.003 A 
HETATM   18  C   UNK N   1      35.890  11.180  17.129  0.00  0.00     0.045 A 
HETATM   19 Cl   UNK N   1      36.400   9.904  16.019  0.00  0.00    -0.083 Cl
HETATM   20  C   UNK N   1      35.800  10.792  18.470  0.00  0.00     0.024 A 
HETATM   21  C   UNK N   1      35.385  11.688  19.447  0.00  0.00     0.002 A 
HETATM   22  C   UNK N   1      35.036  12.989  19.091  0.00  0.00     0.001 A 
HETATM   23  C   UNK N   1      35.115  13.400  17.755  0.00  0.00     0.014 A 
ENDBRANCH  13  17
ENDBRANCH   7  10
ENDBRANCH   1   6
BRANCH   4  24
HETATM   24  O   UNK N   1      33.876  17.365   9.446  0.00  0.00    -0.364 OA
HETATM   25  H   UNK N   1      33.143  17.273  10.023  0.00  0.00     0.217 HD
ENDBRANCH   4  24
TORSDOF 4
ENDMDL
MODEL 3
REMARK VINA RESULT:      -7.1      4.183      9.830
REMARK  4 active torsions:
REMARK  status: ('A' for Active; 'I' for Inactive)
REMARK    1  A    between atoms: C_7  and  C_8 
REMARK    2  A    between atoms: C_14  and  N_15 
REMARK       I    between atoms: N_15  and  C_16 
REMARK    3  A    between atoms: C_16  and  C_18 
REMARK    4  A    between atoms: C_21  and  O_23 
ROOT
HETATM    1  C   UNK N   1      35.361  13.224  13.003  0.00  0.00     0.141 C 
HETATM    2  C   UNK N   1      34.660  11.970  13.252  0.00  0.00     0.107 C 
HETATM    3  N   UNK N   1      34.116  10.972  13.480  0.00  0.00    -0.191 NA
HETATM    4  C   UNK N   1      36.148  13.752  13.972  0.00  0.00     0.065 C 
HETATM    5  C   UNK N   1      36.315  13.058  15.290  0.00  0.00     0.077 C 
ENDROOT
BRANCH   1   6
HETATM    6  C   UNK N   1      35.149  13.850  11.657  0.00  0.00     0.269 C 
HETATM    7  N   UNK N   1      33.975  14.494  11.303  0.00  0.00    -0.322 N 
HETATM    8  H   UNK N   1      33.266  14.587  11.980  0.00  0.00     0.169 HD
HETATM    9  O   UNK N   1      36.086  13.787  10.863  0.00  0.00    -0.266 OA
BRANCH   7  10
HETATM   10  C   UNK N   1      33.748  15.035   9.987  0.00  0.00     0.036 A 
HETATM   11  C   UNK N   1      34.184  16.323   9.614  0.00  0.00     0.054 A 
HETATM   12  C   UNK N   1      33.988  16.803   8.286  0.00  0.00     0.047 A 
HETATM   13  C   UNK N   1      33.352  15.962   7.310  0.00  0.00    -0.002 A 
HETATM   14 Cl   UNK N   1      34.597  18.415   7.913  0.00  0.00    -0.083 Cl
HETATM   15  C   UNK N   1      32.919  14.712   7.739  0.00  0.00     0.016 A 
HETATM   16  C   UNK N   1      33.102  14.263   9.027  0.00  0.00     0.030 A 
BRANCH  13  17
HETATM   17  C   UNK N   1      33.067  16.326   5.862  0.00  0.00    -0.003 A 
HETATM   18  C   UNK N   1      33.741  15.699   4.752  0.00  0.00     0.045 A 
HETATM   19 Cl   UNK N   1      35.046  14.516   4.896  0.00  0.00    -0.083 Cl
HETATM   20  C   UNK N   1      33.397  16.038   3.439  0.00  0.00     0.024 A 
HETATM   21  C   UNK N   1      32.405  16.975   3.179  0.00  0.00     0.002 A 
HETATM   22  C   UNK N   1      31.752  17.603   4.237  0.00  0.00     0.001 A 
HETATM   23  C   UNK N   1      32.081  17.283   5.560  0.00  0.00     0.014 A 
ENDBRANCH  13  17
ENDBRANCH   7  10
ENDBRANCH   1   6
BRANCH   4  24
HETATM   24  O   UNK N   1      36.803  14.911  13.772  0.00  0.00    -0.364 OA
HETATM   25  H   UNK N   1      36.683  15.385  12.972  0.00  0.00     0.217 HD
ENDBRANCH   4  24
TORSDOF 4
ENDMDL
MODEL 4
REMARK VINA RESULT:      -7.1      2.115      3.057
REMARK  4 active torsions:
REMARK  status: ('A' for Active; 'I' for Inactive)
REMARK    1  A    between atoms: C_7  and  C_8 
REMARK    2  A    between atoms: C_14  and  N_15 
REMARK       I    between atoms: N_15  and  C_16 
REMARK    3  A    between atoms: C_16  and  C_18 
REMARK    4  A    between atoms: C_21  and  O_23 
ROOT
HETATM    1  C   UNK N   1      35.056  15.680   8.524  0.00  0.00     0.141 C 
HETATM    2  C   UNK N   1      35.306  15.088   7.214  0.00  0.00     0.107 C 
HETATM    3  N   UNK N   1      35.491  14.645   6.160  0.00  0.00    -0.191 NA
HETATM    4  C   UNK N   1      34.494  16.911   8.604  0.00  0.00     0.065 C 
HETATM    5  C   UNK N   1      34.116  17.665   7.365  0.00  0.00     0.077 C 
ENDROOT
BRANCH   1   6
HETATM    6  C   UNK N   1      35.454  14.858   9.713  0.00  0.00     0.269 C 
HETATM    7  N   UNK N   1      34.707  14.809  10.878  0.00  0.00    -0.322 N 
HETATM    8  H   UNK N   1      33.852  15.297  10.911  0.00  0.00     0.169 HD
HETATM    9  O   UNK N   1      36.486  14.196   9.609  0.00  0.00    -0.266 OA
BRANCH   7  10
HETATM   10  C   UNK N   1      35.127  14.073  12.044  0.00  0.00     0.036 A 
HETATM   11  C   UNK N   1      35.928  14.648  13.052  0.00  0.00     0.054 A 
HETATM   12  C   UNK N   1      36.279  13.904  14.216  0.00  0.00     0.047 A 
HETATM   13  C   UNK N   1      35.801  12.559  14.374  0.00  0.00    -0.002 A 
HETATM   14 Cl   UNK N   1      37.258  14.724  15.433  0.00  0.00    -0.083 Cl
HETATM   15  C   UNK N   1      35.038  12.033  13.338  0.00  0.00     0.016 A 
HETATM   16  C   UNK N   1      34.715  12.755  12.212  0.00  0.00     0.030 A 
BRANCH  13  17
HETATM   17  C   UNK N   1      36.089  11.637  15.549  0.00  0.00    -0.003 A 
HETATM   18  C   UNK N   1      35.607  11.898  16.883  0.00  0.00     0.045 A 
HETATM   19 Cl   UNK N   1      34.720  13.345  17.375  0.00  0.00    -0.083 Cl
HETATM   20  C   UNK N   1      35.859  10.984  17.912  0.00  0.00     0.024 A 
HETATM   21  C   UNK N   1      36.569   9.815  17.672  0.00  0.00     0.002 A 
HETATM   22  C   UNK N   1      37.056   9.551  16.393  0.00  0.00     0.001 A 
HETATM   23  C   UNK N   1      36.820  10.451  15.347  0.00  0.00     0.014 A 
ENDBRANCH  13  17
ENDBRANCH   7  10
ENDBRANCH   1   6
BRANCH   4  24
HETATM   24  O   UNK N   1      34.256  17.483   9.799  0.00  0.00    -0.364 OA
HETATM   25  H   UNK N   1      33.687  18.225   9.858  0.00  0.00     0.217 HD
ENDBRANCH   4  24
TORSDOF 4
ENDMDL
MODEL 5
REMARK VINA RESULT:      -7.0      2.513      3.101
REMARK  4 active torsions:
REMARK  status: ('A' for Active; 'I' for Inactive)
REMARK    1  A    between atoms: C_7  and  C_8 
REMARK    2  A    between atoms: C_14  and  N_15 
REMARK       I    between atoms: N_15  and  C_16 
REMARK    3  A    between atoms: C_16  and  C_18 
REMARK    4  A    between atoms: C_21  and  O_23 
ROOT
HETATM    1  C   UNK N   1      34.189  16.747   8.170  0.00  0.00     0.141 C 
HETATM    2  C   UNK N   1      34.737  18.088   8.334  0.00  0.00     0.107 C 
HETATM    3  N   UNK N   1      35.165  19.161   8.433  0.00  0.00    -0.191 NA
HETATM    4  C   UNK N   1      33.647  16.388   6.981  0.00  0.00     0.065 C 
HETATM    5  C   UNK N   1      33.614  17.348   5.831  0.00  0.00     0.077 C 
ENDROOT
BRANCH   1   6
HETATM    6  C   UNK N   1      34.269  15.844   9.365  0.00  0.00     0.269 C 
HETATM    7  N   UNK N   1      35.468  15.487   9.960  0.00  0.00    -0.322 N 
HETATM    8  H   UNK N   1      36.302  15.881   9.614  0.00  0.00     0.169 HD
HETATM    9  O   UNK N   1      33.204  15.434   9.822  0.00  0.00    -0.266 OA
BRANCH   7  10
HETATM   10  C   UNK N   1      35.547  14.565  11.065  0.00  0.00     0.036 A 
HETATM   11  C   UNK N   1      36.069  14.935  12.322  0.00  0.00     0.054 A 
HETATM   12  C   UNK N   1      36.082  14.011  13.406  0.00  0.00     0.047 A 
HETATM   13  C   UNK N   1      35.544  12.691  13.224  0.00  0.00    -0.002 A 
HETATM   14 Cl   UNK N   1      36.727  14.580  14.945  0.00  0.00    -0.083 Cl
HETATM   15  C   UNK N   1      35.067  12.371  11.958  0.00  0.00     0.016 A 
HETATM   16  C   UNK N   1      35.071  13.267  10.914  0.00  0.00     0.030 A 
BRANCH  13  17
HETATM   17  C   UNK N   1      35.489  11.593  14.274  0.00  0.00    -0.003 A 
HETATM   18  C   UNK N   1      36.669  10.946  14.792  0.00  0.00     0.045 A 
HETATM   19 Cl   UNK N   1      38.317  11.243  14.227  0.00  0.00    -0.083 Cl
HETATM   20  C   UNK N   1      36.557   9.980  15.797  0.00  0.00     0.024 A 
HETATM   21  C   UNK N   1      35.318   9.628  16.317  0.00  0.00     0.002 A 
HETATM   22  C   UNK N   1      34.164  10.231  15.820  0.00  0.00     0.001 A 
HETATM   23  C   UNK N   1      34.249  11.198  14.812  0.00  0.00     0.014 A 
ENDBRANCH  13  17
ENDBRANCH   7  10
ENDBRANCH   1   6
BRANCH   4  24
HETATM   24  O   UNK N   1      33.130  15.158   6.803  0.00  0.00    -0.364 OA
HETATM   25  H   UNK N   1      33.662  14.474   6.445  0.00  0.00     0.217 HD
ENDBRANCH   4  24
TORSDOF 4
ENDMDL
MODEL 6
REMARK VINA RESULT:      -7.0      6.668     11.309
REMARK  4 active torsions:
REMARK  status: ('A' for Active; 'I' for Inactive)
REMARK    1  A    between atoms: C_7  and  C_8 
REMARK    2  A    between atoms: C_14  and  N_15 
REMARK       I    between atoms: N_15  and  C_16 
REMARK    3  A    between atoms: C_16  and  C_18 
REMARK    4  A    between atoms: C_21  and  O_23 
ROOT
HETATM    1  C   UNK N   1      34.270  15.213   9.984  0.00  0.00     0.141 C 
HETATM    2  C   UNK N   1      35.131  16.340  10.321  0.00  0.00     0.107 C 
HETATM    3  N   UNK N   1      35.836  17.215  10.604  0.00  0.00    -0.191 NA
HETATM    4  C   UNK N   1      34.637  13.960  10.347  0.00  0.00     0.065 C 
HETATM    5  C   UNK N   1      35.910  13.721  11.101  0.00  0.00     0.077 C 
ENDROOT
BRANCH   1   6
HETATM    6  C   UNK N   1      33.009  15.537   9.238  0.00  0.00     0.269 C 
HETATM    7  N   UNK N   1      32.861  16.682   8.473  0.00  0.00    -0.322 N 
HETATM    8  H   UNK N   1      33.632  17.287   8.375  0.00  0.00     0.169 HD
HETATM    9  O   UNK N   1      32.094  14.719   9.316  0.00  0.00    -0.266 OA
BRANCH   7  10
HETATM   10  C   UNK N   1      31.627  17.025   7.813  0.00  0.00     0.036 A 
HETATM   11  C   UNK N   1      30.538  17.602   8.499  0.00  0.00     0.054 A 
HETATM   12  C   UNK N   1      29.353  17.976   7.802  0.00  0.00     0.047 A 
HETATM   13  C   UNK N   1      29.268  17.777   6.381  0.00  0.00    -0.002 A 
HETATM   14 Cl   UNK N   1      28.062  18.718   8.746  0.00  0.00    -0.083 Cl
HETATM   15  C   UNK N   1      30.359  17.180   5.760  0.00  0.00     0.016 A 
HETATM   16  C   UNK N   1      31.494  16.811   6.445  0.00  0.00     0.030 A 
BRANCH  13  17
HETATM   17  C   UNK N   1      28.079  18.117   5.498  0.00  0.00    -0.003 A 
HETATM   18  C   UNK N   1      26.854  17.355   5.509  0.00  0.00     0.045 A 
HETATM   19 Cl   UNK N   1      26.587  15.881   6.446  0.00  0.00    -0.083 Cl
HETATM   20  C   UNK N   1      25.774  17.749   4.712  0.00  0.00     0.024 A 
HETATM   21  C   UNK N   1      25.856  18.876   3.903  0.00  0.00     0.002 A 
HETATM   22  C   UNK N   1      27.034  19.618   3.868  0.00  0.00     0.001 A 
HETATM   23  C   UNK N   1      28.131  19.241   4.653  0.00  0.00     0.014 A 
ENDBRANCH  13  17
ENDBRANCH   7  10
ENDBRANCH   1   6
BRANCH   4  24
HETATM   24  O   UNK N   1      33.863  12.900  10.046  0.00  0.00    -0.364 OA
HETATM   25  H   UNK N   1      33.661  12.708   9.151  0.00  0.00     0.217 HD
ENDBRANCH   4  24
TORSDOF 4
ENDMDL
MODEL 7
REMARK VINA RESULT:      -6.9      7.356     12.076
REMARK  4 active torsions:
REMARK  status: ('A' for Active; 'I' for Inactive)
REMARK    1  A    between atoms: C_7  and  C_8 
REMARK    2  A    between atoms: C_14  and  N_15 
REMARK       I    between atoms: N_15  and  C_16 
REMARK    3  A    between atoms: C_16  and  C_18 
REMARK    4  A    between atoms: C_21  and  O_23 
ROOT
HETATM    1  C   UNK N   1      34.177  15.868   9.293  0.00  0.00     0.141 C 
HETATM    2  C   UNK N   1      34.054  14.424   9.460  0.00  0.00     0.107 C 
HETATM    3  N   UNK N   1      33.983  13.278   9.613  0.00  0.00    -0.191 NA
HETATM    4  C   UNK N   1      35.156  16.535   9.952  0.00  0.00     0.065 C 
HETATM    5  C   UNK N   1      36.120  15.806  10.839  0.00  0.00     0.077 C 
ENDROOT
BRANCH   1   6
HETATM    6  C   UNK N   1      33.181  16.520   8.382  0.00  0.00     0.269 C 
HETATM    7  N   UNK N   1      31.883  16.061   8.234  0.00  0.00    -0.322 N 
HETATM    8  H   UNK N   1      31.585  15.302   8.786  0.00  0.00     0.169 HD
HETATM    9  O   UNK N   1      33.561  17.516   7.768  0.00  0.00    -0.266 OA
BRANCH   7  10
HETATM   10  C   UNK N   1      30.949  16.648   7.307  0.00  0.00     0.036 A 
HETATM   11  C   UNK N   1      31.002  16.398   5.920  0.00  0.00     0.054 A 
HETATM   12  C   UNK N   1      30.028  16.955   5.042  0.00  0.00     0.047 A 
HETATM   13  C   UNK N   1      28.970  17.769   5.572  0.00  0.00    -0.002 A 
HETATM   14 Cl   UNK N   1      30.165  16.557   3.329  0.00  0.00    -0.083 Cl
HETATM   15  C   UNK N   1      28.981  18.005   6.943  0.00  0.00     0.016 A 
HETATM   16  C   UNK N   1      29.933  17.473   7.781  0.00  0.00     0.030 A 
BRANCH  13  17
HETATM   17  C   UNK N   1      27.864  18.436   4.771  0.00  0.00    -0.003 A 
HETATM   18  C   UNK N   1      26.763  17.701   4.198  0.00  0.00     0.045 A 
HETATM   19 Cl   UNK N   1      26.586  15.944   4.242  0.00  0.00    -0.083 Cl
HETATM   20  C   UNK N   1      25.746  18.378   3.517  0.00  0.00     0.024 A 
HETATM   21  C   UNK N   1      25.772  19.761   3.382  0.00  0.00     0.002 A 
HETATM   22  C   UNK N   1      26.833  20.487   3.916  0.00  0.00     0.001 A 
HETATM   23  C   UNK N   1      27.866  19.833   4.599  0.00  0.00     0.014 A 
ENDBRANCH  13  17
ENDBRANCH   7  10
ENDBRANCH   1   6
BRANCH   4  24
HETATM   24  O   UNK N   1      35.291  17.867   9.820  0.00  0.00    -0.364 OA
HETATM   25  H   UNK N   1      36.126  18.270   9.956  0.00  0.00     0.217 HD
ENDBRANCH   4  24
TORSDOF 4
ENDMDL
MODEL 8
REMARK VINA RESULT:      -6.8     11.477     14.616
REMARK  4 active torsions:
REMARK  status: ('A' for Active; 'I' for Inactive)
REMARK    1  A    between atoms: C_7  and  C_8 
REMARK    2  A    between atoms: C_14  and  N_15 
REMARK       I    between atoms: N_15  and  C_16 
REMARK    3  A    between atoms: C_16  and  C_18 
REMARK    4  A    between atoms: C_21  and  O_23 
ROOT
HETATM    1  C   UNK N   1      21.613  18.935   3.415  0.00  0.00     0.141 C 
HETATM    2  C   UNK N   1      21.462  20.149   2.621  0.00  0.00     0.107 C 
HETATM    3  N   UNK N   1      21.312  21.103   1.981  0.00  0.00    -0.191 NA
HETATM    4  C   UNK N   1      20.600  18.036   3.460  0.00  0.00     0.065 C 
HETATM    5  C   UNK N   1      19.333  18.268   2.694  0.00  0.00     0.077 C 
ENDROOT
BRANCH   1   6
HETATM    6  C   UNK N   1      22.915  18.773   4.143  0.00  0.00     0.269 C 
HETATM    7  N   UNK N   1      24.142  19.035   3.558  0.00  0.00    -0.322 N 
HETATM    8  H   UNK N   1      24.160  19.388   2.638  0.00  0.00     0.169 HD
HETATM    9  O   UNK N   1      22.851  18.408   5.316  0.00  0.00    -0.266 OA
BRANCH   7  10
HETATM   10  C   UNK N   1      25.393  18.813   4.237  0.00  0.00     0.036 A 
HETATM   11  C   UNK N   1      26.045  19.825   4.971  0.00  0.00     0.054 A 
HETATM   12  C   UNK N   1      27.254  19.553   5.673  0.00  0.00     0.047 A 
HETATM   13  C   UNK N   1      27.812  18.229   5.647  0.00  0.00    -0.002 A 
HETATM   14 Cl   UNK N   1      27.973  20.879   6.587  0.00  0.00    -0.083 Cl
HETATM   15  C   UNK N   1      27.144  17.277   4.886  0.00  0.00     0.016 A 
HETATM   16  C   UNK N   1      25.983  17.553   4.201  0.00  0.00     0.030 A 
BRANCH  13  17
HETATM   17  C   UNK N   1      29.091  17.781   6.336  0.00  0.00    -0.003 A 
HETATM   18  C   UNK N   1      29.219  17.703   7.771  0.00  0.00     0.045 A 
HETATM   19 Cl   UNK N   1      27.980  18.204   8.927  0.00  0.00    -0.083 Cl
HETATM   20  C   UNK N   1      30.404  17.232   8.346  0.00  0.00     0.024 A 
HETATM   21  C   UNK N   1      31.472  16.829   7.554  0.00  0.00     0.002 A 
HETATM   22  C   UNK N   1      31.374  16.910   6.167  0.00  0.00     0.001 A 
HETATM   23  C   UNK N   1      30.200  17.382   5.568  0.00  0.00     0.014 A 
ENDBRANCH  13  17
ENDBRANCH   7  10
ENDBRANCH   1   6
BRANCH   4  24
HETATM   24  O   UNK N   1      20.711  16.909   4.188  0.00  0.00    -0.364 OA
HETATM   25  H   UNK N   1      21.140  16.158   3.827  0.00  0.00     0.217 HD
ENDBRANCH   4  24
TORSDOF 4
ENDMDL
MODEL 9
REMARK VINA RESULT:      -6.5     10.376     14.654
REMARK  4 active torsions:
REMARK  status: ('A' for Active; 'I' for Inactive)
REMARK    1  A    between atoms: C_7  and  C_8 
REMARK    2  A    between atoms: C_14  and  N_15 
REMARK       I    between atoms: N_15  and  C_16 
REMARK    3  A    between atoms: C_16  and  C_18 
REMARK    4  A    between atoms: C_21  and  O_23 
ROOT
HETATM    1  C   UNK N   1      31.184  17.359   6.900  0.00  0.00     0.141 C 
HETATM    2  C   UNK N   1      32.189  17.171   5.860  0.00  0.00     0.107 C 
HETATM    3  N   UNK N   1      33.011  17.021   5.057  0.00  0.00    -0.191 NA
HETATM    4  C   UNK N   1      31.567  17.394   8.200  0.00  0.00     0.065 C 
HETATM    5  C   UNK N   1      33.010  17.253   8.580  0.00  0.00     0.077 C 
ENDROOT
BRANCH   1   6
HETATM    6  C   UNK N   1      29.765  17.501   6.437  0.00  0.00     0.269 C 
HETATM    7  N   UNK N   1      29.423  18.063   5.218  0.00  0.00    -0.322 N 
HETATM    8  H   UNK N   1      30.145  18.338   4.607  0.00  0.00     0.169 HD
HETATM    9  O   UNK N   1      28.891  17.073   7.190  0.00  0.00    -0.266 OA
BRANCH   7  10
HETATM   10  C   UNK N   1      28.057  18.261   4.806  0.00  0.00     0.036 A 
HETATM   11  C   UNK N   1      27.317  17.264   4.137  0.00  0.00     0.054 A 
HETATM   12  C   UNK N   1      25.951  17.478   3.792  0.00  0.00     0.047 A 
HETATM   13  C   UNK N   1      25.313  18.716   4.141  0.00  0.00    -0.002 A 
HETATM   14 Cl   UNK N   1      25.107  16.156   2.985  0.00  0.00    -0.083 Cl
HETATM   15  C   UNK N   1      26.095  19.674   4.776  0.00  0.00     0.016 A 
HETATM   16  C   UNK N   1      27.417  19.463   5.093  0.00  0.00     0.030 A 
BRANCH  13  17
HETATM   17  C   UNK N   1      23.872  19.098   3.842  0.00  0.00    -0.003 A 
HETATM   18  C   UNK N   1      22.746  18.454   4.472  0.00  0.00     0.045 A 
HETATM   19 Cl   UNK N   1      22.854  17.084   5.583  0.00  0.00    -0.083 Cl
HETATM   20  C   UNK N   1      21.444  18.886   4.196  0.00  0.00     0.024 A 
HETATM   21  C   UNK N   1      21.211  19.937   3.319  0.00  0.00     0.002 A 
HETATM   22  C   UNK N   1      22.283  20.563   2.688  0.00  0.00     0.001 A 
HETATM   23  C   UNK N   1      23.595  20.146   2.945  0.00  0.00     0.014 A 
ENDBRANCH  13  17
ENDBRANCH   7  10
ENDBRANCH   1   6
BRANCH   4  24
HETATM   24  O   UNK N   1      30.661  17.562   9.181  0.00  0.00    -0.364 OA
HETATM   25  H   UNK N   1      29.951  16.956   9.271  0.00  0.00     0.217 HD
ENDBRANCH   4  24
TORSDOF 4
ENDMDL
