REMARK  4 active torsions:
REMARK  status: ('A' for Active; 'I' for Inactive)
REMARK    1  A    between atoms: C_7  and  C_8 
REMARK    2  A    between atoms: C_14  and  N_15 
REMARK       I    between atoms: N_15  and  C_16 
REMARK    3  A    between atoms: C_16  and  C_18 
REMARK    4  A    between atoms: C_21  and  O_23 
ROOT
HETATM    1  C   UNK N   1      -3.714   2.684   0.101  0.00  0.00     0.141 C 
HETATM    2  C   UNK N   1      -3.564   4.134   0.144  0.00  0.00     0.107 C 
HETATM    3  N   UNK N   1      -3.478   5.289   0.179  0.00  0.00    -0.191 NA
HETATM    4  C   UNK N   1      -4.955   2.140   0.131  0.00  0.00     0.065 C 
HETATM    5  C   UNK N   1      -6.174   3.010   0.196  0.00  0.00     0.077 C 
ENDROOT
BRANCH   1   6
HETATM    6  C   UNK N   1      -2.447   1.885   0.027  0.00  0.00     0.269 C 
HETATM    7  N   UNK N   1      -2.430   0.500   0.021  0.00  0.00    -0.322 N 
HETATM    8  H   UNK N   1      -3.289   0.018   0.017  0.00  0.00     0.169 HD
HETATM    9  O   UNK N   1      -1.396   2.519  -0.049  0.00  0.00    -0.266 OA
BRANCH   7  10
HETATM   10  C   UNK N   1      -1.209  -0.265   0.019  0.00  0.00     0.036 A 
HETATM   11  C   UNK N   1      -1.181  -1.643  -0.280  0.00  0.00     0.054 A 
HETATM   12  C   UNK N   1       0.053  -2.354  -0.324  0.00  0.00     0.047 A 
HETATM   13  C   UNK N   1       1.286  -1.660  -0.075  0.00  0.00    -0.002 A 
HETATM   14 Cl   UNK N   1      -0.017  -4.067  -0.738  0.00  0.00    -0.083 Cl
HETATM   15  C   UNK N   1       1.198  -0.309   0.241  0.00  0.00     0.016 A 
HETATM   16  C   UNK N   1      -0.000   0.366   0.293  0.00  0.00     0.030 A 
BRANCH  13  17
HETATM   17  C   UNK N   1       2.677  -2.273  -0.080  0.00  0.00    -0.003 A 
HETATM   18  C   UNK N   1       3.881  -1.479  -0.099  0.00  0.00     0.045 A 
HETATM   19 Cl   UNK N   1       3.930   0.283  -0.224  0.00  0.00    -0.083 Cl
HETATM   20  C   UNK N   1       5.133  -2.100  -0.048  0.00  0.00     0.024 A 
HETATM   21  C   UNK N   1       5.243  -3.483   0.025  0.00  0.00     0.002 A 
HETATM   22  C   UNK N   1       4.093  -4.269   0.030  0.00  0.00     0.001 A 
HETATM   23  C   UNK N   1       2.828  -3.671  -0.024  0.00  0.00     0.014 A 
ENDBRANCH  13  17
ENDBRANCH   7  10
ENDBRANCH   1   6
BRANCH   4  24
HETATM   24  O   UNK N   1      -5.123   0.805   0.097  0.00  0.00    -0.364 OA
HETATM   25  H   UNK N   1      -5.987   0.442   0.073  0.00  0.00     0.217 HD
ENDBRANCH   4  24
TORSDOF 4
