REMARK  5 active torsions:
REMARK  status: ('A' for Active; 'I' for Inactive)
REMARK    1  A    between atoms: C_2  and  C_3 
REMARK       I    between atoms: C_2  and  N_9 
REMARK    2  A    between atoms: C_10  and  N_9 
REMARK    3  A    between atoms: C_10  and  C_11 
REMARK    4  A    between atoms: C_10  and  C_14 
REMARK       I    between atoms: C_14  and  N_16 
REMARK    5  A    between atoms: N_16  and  C_17 
ROOT
HETATM    1  C   UNK N   1      -8.536  -0.141  -0.777  0.00  0.00     0.180 C 
ENDROOT
BRANCH   1   2
HETATM    2  N   UNK N   1      -9.756  -0.877  -1.069  0.00  0.00    -0.347 N 
HETATM    3  C   UNK N   1     -10.774  -1.177  -0.224  0.00  0.00     0.222 C 
HETATM    4  O   UNK N   1     -10.766  -0.801   0.938  0.00  0.00    -0.273 OA
HETATM    5  H   UNK N   1      -9.855  -1.198  -1.995  0.00  0.00     0.163 HD
BRANCH   3   6
HETATM    6  C   UNK N   1     -11.923  -1.981  -0.746  0.00  0.00     0.078 C 
HETATM    7  C   UNK N   1     -12.094  -3.259   0.088  0.00  0.00     0.014 C 
HETATM    8  C   UNK N   1     -13.502  -3.824  -0.067  0.00  0.00     0.001 C 
HETATM    9  C   UNK N   1     -14.561  -2.830   0.434  0.00  0.00     0.000 C 
HETATM   10  C   UNK N   1     -14.129  -1.359   0.337  0.00  0.00     0.001 C 
HETATM   11  C   UNK N   1     -13.203  -1.137  -0.854  0.00  0.00     0.014 C 
ENDBRANCH   3   6
ENDBRANCH   1   2
BRANCH   1  12
HETATM   12  C   UNK N   1      -8.784   1.325  -0.338  0.00  0.00     0.009 C 
HETATM   13  C   UNK N   1      -7.535   2.180  -0.492  0.00  0.00     0.012 C 
HETATM   14  C   UNK N   1      -9.302   1.490   1.078  0.00  0.00     0.012 C 
ENDBRANCH   1  12
BRANCH   1  15
HETATM   15  C   UNK N   1      -7.549  -0.921   0.063  0.00  0.00     0.245 C 
HETATM   16  O   UNK N   1      -7.828  -2.043   0.476  0.00  0.00    -0.271 OA
HETATM   17  N   UNK N   1      -6.303  -0.409   0.220  0.00  0.00    -0.325 N 
HETATM   18  H   UNK N   1      -6.206   0.563   0.097  0.00  0.00     0.169 HD
BRANCH  17  19
HETATM   19  C   UNK N   1      -5.125  -1.131   0.542  0.00  0.00     0.037 A 
HETATM   20  C   UNK N   1      -3.960  -0.417   0.828  0.00  0.00     0.046 A 
HETATM   21  C   UNK N   1      -2.747  -1.095   0.950  0.00  0.00     0.090 A 
HETATM   22  N   UNK N   1      -2.696  -2.442   0.764  0.00  0.00    -0.375 N 
HETATM   23  C   UNK N   1      -3.815  -3.161   0.479  0.00  0.00     0.090 A 
ATOM     24  HN  UNK N   1      -1.799  -2.923   0.841  1.00  0.00     0.164 HD
HETATM   25  C   UNK N   1      -5.048  -2.518   0.355  0.00  0.00     0.046 A 
ENDBRANCH  17  19
ENDBRANCH   1  15
TORSDOF 5
