MODEL 1
REMARK VINA RESULT:      -6.6      0.000      0.000
REMARK  5 active torsions:
REMARK  status: ('A' for Active; 'I' for Inactive)
REMARK    1  A    between atoms: C_2  and  C_3 
REMARK       I    between atoms: C_2  and  N_9 
REMARK    2  A    between atoms: C_10  and  N_9 
REMARK    3  A    between atoms: C_10  and  C_11 
REMARK    4  A    between atoms: C_10  and  C_14 
REMARK       I    between atoms: C_14  and  N_16 
REMARK    5  A    between atoms: N_16  and  C_17 
ROOT
HETATM    1  C   UNK N   1      31.929  17.293   8.331  0.00  0.00     0.180 C 
ENDROOT
BRANCH   1   2
HETATM    2  N   UNK N   1      32.254  17.120   6.924  0.00  0.00    -0.347 N 
HETATM    3  C   UNK N   1      33.379  17.507   6.272  0.00  0.00     0.222 C 
HETATM    4  O   UNK N   1      34.300  18.051   6.863  0.00  0.00    -0.273 OA
HETATM    5  H   UNK N   1      31.573  16.666   6.376  0.00  0.00     0.163 HD
BRANCH   3   6
HETATM    6  C   UNK N   1      33.478  17.249   4.801  0.00  0.00     0.078 C 
HETATM    7  C   UNK N   1      33.838  15.778   4.548  0.00  0.00     0.014 C 
HETATM    8  C   UNK N   1      33.456  15.362   3.131  0.00  0.00     0.001 C 
HETATM    9  C   UNK N   1      31.942  15.488   2.901  0.00  0.00     0.000 C 
HETATM   10  C   UNK N   1      31.267  16.555   3.775  0.00  0.00     0.001 C 
HETATM   11  C   UNK N   1      32.216  17.714   4.058  0.00  0.00     0.014 C 
ENDBRANCH   3   6
ENDBRANCH   1   2
BRANCH   1  12
HETATM   12  C   UNK N   1      30.418  17.512   8.597  0.00  0.00     0.009 C 
HETATM   13  C   UNK N   1      29.614  17.541   7.305  0.00  0.00     0.012 C 
HETATM   14  C   UNK N   1      30.082  18.758   9.394  0.00  0.00     0.012 C 
ENDBRANCH   1  12
BRANCH   1  15
HETATM   15  C   UNK N   1      32.619  16.296   9.235  0.00  0.00     0.245 C 
HETATM   16  O   UNK N   1      32.129  15.188   9.433  0.00  0.00    -0.271 OA
HETATM   17  N   UNK N   1      33.855  16.606   9.698  0.00  0.00    -0.325 N 
HETATM   18  H   UNK N   1      34.090  17.562   9.726  0.00  0.00     0.169 HD
BRANCH  17  19
HETATM   19  C   UNK N   1      34.846  15.694  10.144  0.00  0.00     0.037 A 
HETATM   20  C   UNK N   1      35.067  15.564  11.516  0.00  0.00     0.046 A 
HETATM   21  C   UNK N   1      36.162  14.831  11.973  0.00  0.00     0.090 A 
HETATM   22  N   UNK N   1      37.026  14.268  11.084  0.00  0.00    -0.375 N 
HETATM   23  C   UNK N   1      36.837  14.384   9.742  0.00  0.00     0.090 A 
ATOM     24  HN  UNK N   1      37.832  13.747  11.433  1.00  0.00     0.164 HD
HETATM   25  C   UNK N   1      35.749  15.105   9.247  0.00  0.00     0.046 A 
ENDBRANCH  17  19
ENDBRANCH   1  15
TORSDOF 5
ENDMDL
MODEL 2
REMARK VINA RESULT:      -6.5     13.236     16.385
REMARK  5 active torsions:
REMARK  status: ('A' for Active; 'I' for Inactive)
REMARK    1  A    between atoms: C_2  and  C_3 
REMARK       I    between atoms: C_2  and  N_9 
REMARK    2  A    between atoms: C_10  and  N_9 
REMARK    3  A    between atoms: C_10  and  C_11 
REMARK    4  A    between atoms: C_10  and  C_14 
REMARK       I    between atoms: C_14  and  N_16 
REMARK    5  A    between atoms: N_16  and  C_17 
ROOT
HETATM    1  C   UNK N   1      26.725  25.536  -4.021  0.00  0.00     0.180 C 
ENDROOT
BRANCH   1   2
HETATM    2  N   UNK N   1      27.206  26.896  -3.834  0.00  0.00    -0.347 N 
HETATM    3  C   UNK N   1      26.568  27.934  -3.236  0.00  0.00     0.222 C 
HETATM    4  O   UNK N   1      25.461  27.797  -2.740  0.00  0.00    -0.273 OA
HETATM    5  H   UNK N   1      28.106  27.088  -4.185  0.00  0.00     0.163 HD
BRANCH   3   6
HETATM    6  C   UNK N   1      27.254  29.263  -3.189  0.00  0.00     0.078 C 
HETATM    7  C   UNK N   1      28.762  29.071  -2.973  0.00  0.00     0.014 C 
HETATM    8  C   UNK N   1      29.536  30.307  -3.419  0.00  0.00     0.001 C 
HETATM    9  C   UNK N   1      29.340  30.578  -4.918  0.00  0.00     0.000 C 
HETATM   10  C   UNK N   1      28.005  30.061  -5.475  0.00  0.00     0.001 C 
HETATM   11  C   UNK N   1      26.909  30.122  -4.416  0.00  0.00     0.014 C 
ENDBRANCH   3   6
ENDBRANCH   1   2
BRANCH   1  12
HETATM   12  C   UNK N   1      26.277  25.229  -5.473  0.00  0.00     0.009 C 
HETATM   13  C   UNK N   1      25.203  26.196  -5.949  0.00  0.00     0.012 C 
HETATM   14  C   UNK N   1      25.780  23.815  -5.703  0.00  0.00     0.012 C 
ENDBRANCH   1  12
BRANCH   1  15
HETATM   15  C   UNK N   1      27.605  24.492  -3.369  0.00  0.00     0.245 C 
HETATM   16  O   UNK N   1      27.161  23.763  -2.487  0.00  0.00    -0.271 OA
HETATM   17  N   UNK N   1      28.842  24.289  -3.887  0.00  0.00    -0.325 N 
HETATM   18  H   UNK N   1      29.234  25.033  -4.399  0.00  0.00     0.169 HD
BRANCH  17  19
HETATM   19  C   UNK N   1      29.628  23.114  -3.767  0.00  0.00     0.037 A 
HETATM   20  C   UNK N   1      30.593  23.056  -2.760  0.00  0.00     0.046 A 
HETATM   21  C   UNK N   1      31.510  22.004  -2.744  0.00  0.00     0.090 A 
HETATM   22  N   UNK N   1      31.480  21.057  -3.720  0.00  0.00    -0.375 N 
HETATM   23  C   UNK N   1      30.554  21.093  -4.715  0.00  0.00     0.090 A 
ATOM     24  HN  UNK N   1      32.167  20.302  -3.704  1.00  0.00     0.164 HD
HETATM   25  C   UNK N   1      29.616  22.127  -4.761  0.00  0.00     0.046 A 
ENDBRANCH  17  19
ENDBRANCH   1  15
TORSDOF 5
ENDMDL
MODEL 3
REMARK VINA RESULT:      -6.3      3.448      8.614
REMARK  5 active torsions:
REMARK  status: ('A' for Active; 'I' for Inactive)
REMARK    1  A    between atoms: C_2  and  C_3 
REMARK       I    between atoms: C_2  and  N_9 
REMARK    2  A    between atoms: C_10  and  N_9 
REMARK    3  A    between atoms: C_10  and  C_11 
REMARK    4  A    between atoms: C_10  and  C_14 
REMARK       I    between atoms: C_14  and  N_16 
REMARK    5  A    between atoms: N_16  and  C_17 
ROOT
HETATM    1  C   UNK N   1      36.653  14.082  11.296  0.00  0.00     0.180 C 
ENDROOT
BRANCH   1   2
HETATM    2  N   UNK N   1      35.766  13.511  12.297  0.00  0.00    -0.347 N 
HETATM    3  C   UNK N   1      35.796  13.692  13.641  0.00  0.00     0.222 C 
HETATM    4  O   UNK N   1      36.616  14.430  14.164  0.00  0.00    -0.273 OA
HETATM    5  H   UNK N   1      35.057  12.918  11.957  0.00  0.00     0.163 HD
BRANCH   3   6
HETATM    6  C   UNK N   1      34.792  12.968  14.482  0.00  0.00     0.078 C 
HETATM    7  C   UNK N   1      34.372  11.661  13.793  0.00  0.00     0.014 C 
HETATM    8  C   UNK N   1      33.776  10.683  14.801  0.00  0.00     0.001 C 
HETATM    9  C   UNK N   1      34.802  10.299  15.879  0.00  0.00     0.000 C 
HETATM   10  C   UNK N   1      35.865  11.377  16.139  0.00  0.00     0.001 C 
HETATM   11  C   UNK N   1      35.293  12.774  15.922  0.00  0.00     0.014 C 
ENDBRANCH   3   6
ENDBRANCH   1   2
BRANCH   1  12
HETATM   12  C   UNK N   1      37.285  13.028  10.351  0.00  0.00     0.009 C 
HETATM   13  C   UNK N   1      37.037  11.609  10.840  0.00  0.00     0.012 C 
HETATM   14  C   UNK N   1      38.774  13.195  10.110  0.00  0.00     0.012 C 
ENDBRANCH   1  12
BRANCH   1  15
HETATM   15  C   UNK N   1      36.088  15.313  10.623  0.00  0.00     0.245 C 
HETATM   16  O   UNK N   1      36.614  16.411  10.782  0.00  0.00    -0.271 OA
HETATM   17  N   UNK N   1      35.080  15.145   9.731  0.00  0.00    -0.325 N 
HETATM   18  H   UNK N   1      34.542  14.325   9.822  0.00  0.00     0.169 HD
BRANCH  17  19
HETATM   19  C   UNK N   1      34.723  16.028   8.680  0.00  0.00     0.037 A 
HETATM   20  C   UNK N   1      34.039  17.203   8.997  0.00  0.00     0.046 A 
HETATM   21  C   UNK N   1      33.502  17.986   7.975  0.00  0.00     0.090 A 
HETATM   22  N   UNK N   1      33.622  17.593   6.678  0.00  0.00    -0.375 N 
HETATM   23  C   UNK N   1      34.279  16.450   6.342  0.00  0.00     0.090 A 
ATOM     24  HN  UNK N   1      33.211  18.168   5.941  1.00  0.00     0.164 HD
HETATM   25  C   UNK N   1      34.835  15.643   7.337  0.00  0.00     0.046 A 
ENDBRANCH  17  19
ENDBRANCH   1  15
TORSDOF 5
ENDMDL
MODEL 4
REMARK VINA RESULT:      -6.1     13.210     16.555
REMARK  5 active torsions:
REMARK  status: ('A' for Active; 'I' for Inactive)
REMARK    1  A    between atoms: C_2  and  C_3 
REMARK       I    between atoms: C_2  and  N_9 
REMARK    2  A    between atoms: C_10  and  N_9 
REMARK    3  A    between atoms: C_10  and  C_11 
REMARK    4  A    between atoms: C_10  and  C_14 
REMARK       I    between atoms: C_14  and  N_16 
REMARK    5  A    between atoms: N_16  and  C_17 
ROOT
HETATM    1  C   UNK N   1      27.027  23.550  -5.985  0.00  0.00     0.180 C 
ENDROOT
BRANCH   1   2
HETATM    2  N   UNK N   1      26.558  24.902  -5.730  0.00  0.00    -0.347 N 
HETATM    3  C   UNK N   1      26.159  25.440  -4.550  0.00  0.00     0.222 C 
HETATM    4  O   UNK N   1      26.190  24.793  -3.514  0.00  0.00    -0.273 OA
HETATM    5  H   UNK N   1      26.524  25.502  -6.510  0.00  0.00     0.163 HD
BRANCH   3   6
HETATM    6  C   UNK N   1      25.681  26.858  -4.536  0.00  0.00     0.078 C 
HETATM    7  C   UNK N   1      26.296  27.610  -3.347  0.00  0.00     0.014 C 
HETATM    8  C   UNK N   1      26.254  29.117  -3.578  0.00  0.00     0.001 C 
HETATM    9  C   UNK N   1      27.071  29.515  -4.817  0.00  0.00     0.000 C 
HETATM   10  C   UNK N   1      27.168  28.410  -5.879  0.00  0.00     0.001 C 
HETATM   11  C   UNK N   1      25.911  27.548  -5.890  0.00  0.00     0.014 C 
ENDBRANCH   3   6
ENDBRANCH   1   2
BRANCH   1  12
HETATM   12  C   UNK N   1      26.459  22.930  -7.287  0.00  0.00     0.009 C 
HETATM   13  C   UNK N   1      26.059  23.998  -8.294  0.00  0.00     0.012 C 
HETATM   14  C   UNK N   1      25.280  21.996  -7.090  0.00  0.00     0.012 C 
ENDBRANCH   1  12
BRANCH   1  15
HETATM   15  C   UNK N   1      28.515  23.378  -5.769  0.00  0.00     0.245 C 
HETATM   16  O   UNK N   1      29.246  24.357  -5.643  0.00  0.00    -0.271 OA
HETATM   17  N   UNK N   1      28.989  22.123  -5.573  0.00  0.00    -0.325 N 
HETATM   18  H   UNK N   1      28.439  21.384  -5.921  0.00  0.00     0.169 HD
BRANCH  17  19
HETATM   19  C   UNK N   1      30.194  21.766  -4.916  0.00  0.00     0.037 A 
HETATM   20  C   UNK N   1      31.001  20.781  -5.489  0.00  0.00     0.046 A 
HETATM   21  C   UNK N   1      32.082  20.270  -4.770  0.00  0.00     0.090 A 
HETATM   22  N   UNK N   1      32.331  20.710  -3.507  0.00  0.00    -0.375 N 
HETATM   23  C   UNK N   1      31.558  21.665  -2.923  0.00  0.00     0.090 A 
ATOM     24  HN  UNK N   1      33.116  20.316  -2.987  1.00  0.00     0.164 HD
HETATM   25  C   UNK N   1      30.471  22.204  -3.614  0.00  0.00     0.046 A 
ENDBRANCH  17  19
ENDBRANCH   1  15
TORSDOF 5
ENDMDL
MODEL 5
REMARK VINA RESULT:      -6.0      4.633      9.841
REMARK  5 active torsions:
REMARK  status: ('A' for Active; 'I' for Inactive)
REMARK    1  A    between atoms: C_2  and  C_3 
REMARK       I    between atoms: C_2  and  N_9 
REMARK    2  A    between atoms: C_10  and  N_9 
REMARK    3  A    between atoms: C_10  and  C_11 
REMARK    4  A    between atoms: C_10  and  C_14 
REMARK       I    between atoms: C_14  and  N_16 
REMARK    5  A    between atoms: N_16  and  C_17 
ROOT
HETATM    1  C   UNK N   1      35.834  11.641  12.556  0.00  0.00     0.180 C 
ENDROOT
BRANCH   1   2
HETATM    2  N   UNK N   1      36.168  11.708  13.970  0.00  0.00    -0.347 N 
HETATM    3  C   UNK N   1      35.413  12.197  14.985  0.00  0.00     0.222 C 
HETATM    4  O   UNK N   1      34.289  12.631  14.788  0.00  0.00    -0.273 OA
HETATM    5  H   UNK N   1      37.053  11.355  14.221  0.00  0.00     0.163 HD
BRANCH   3   6
HETATM    6  C   UNK N   1      35.985  12.191  16.368  0.00  0.00     0.078 C 
HETATM    7  C   UNK N   1      35.049  12.940  17.328  0.00  0.00     0.014 C 
HETATM    8  C   UNK N   1      35.315  12.532  18.773  0.00  0.00     0.001 C 
HETATM    9  C   UNK N   1      35.054  11.033  18.988  0.00  0.00     0.000 C 
HETATM   10  C   UNK N   1      35.251  10.180  17.725  0.00  0.00     0.001 C 
HETATM   11  C   UNK N   1      36.337  10.768  16.830  0.00  0.00     0.014 C 
ENDBRANCH   3   6
ENDBRANCH   1   2
BRANCH   1  12
HETATM   12  C   UNK N   1      34.553  10.820  12.258  0.00  0.00     0.009 C 
HETATM   13  C   UNK N   1      34.627   9.422  12.853  0.00  0.00     0.012 C 
HETATM   14  C   UNK N   1      34.202  10.694  10.788  0.00  0.00     0.012 C 
ENDBRANCH   1  12
BRANCH   1  15
HETATM   15  C   UNK N   1      35.940  12.974  11.849  0.00  0.00     0.245 C 
HETATM   16  O   UNK N   1      36.801  13.161  10.993  0.00  0.00    -0.271 OA
HETATM   17  N   UNK N   1      34.973  13.896  12.080  0.00  0.00    -0.325 N 
HETATM   18  H   UNK N   1      34.473  13.809  12.924  0.00  0.00     0.169 HD
BRANCH  17  19
HETATM   19  C   UNK N   1      34.608  14.972  11.231  0.00  0.00     0.037 A 
HETATM   20  C   UNK N   1      33.631  14.755  10.258  0.00  0.00     0.046 A 
HETATM   21  C   UNK N   1      33.397  15.727   9.286  0.00  0.00     0.090 A 
HETATM   22  N   UNK N   1      34.136  16.869   9.270  0.00  0.00    -0.375 N 
HETATM   23  C   UNK N   1      35.098  17.104  10.203  0.00  0.00     0.090 A 
ATOM     24  HN  UNK N   1      33.965  17.565   8.543  1.00  0.00     0.164 HD
HETATM   25  C   UNK N   1      35.357  16.157  11.195  0.00  0.00     0.046 A 
ENDBRANCH  17  19
ENDBRANCH   1  15
TORSDOF 5
ENDMDL
MODEL 6
REMARK VINA RESULT:      -6.0      1.961      6.770
REMARK  5 active torsions:
REMARK  status: ('A' for Active; 'I' for Inactive)
REMARK    1  A    between atoms: C_2  and  C_3 
REMARK       I    between atoms: C_2  and  N_9 
REMARK    2  A    between atoms: C_10  and  N_9 
REMARK    3  A    between atoms: C_10  and  C_11 
REMARK    4  A    between atoms: C_10  and  C_14 
REMARK       I    between atoms: C_14  and  N_16 
REMARK    5  A    between atoms: N_16  and  C_17 
ROOT
HETATM    1  C   UNK N   1      33.930  16.413   7.879  0.00  0.00     0.180 C 
ENDROOT
BRANCH   1   2
HETATM    2  N   UNK N   1      34.540  15.749   9.019  0.00  0.00    -0.347 N 
HETATM    3  C   UNK N   1      35.288  16.302  10.007  0.00  0.00     0.222 C 
HETATM    4  O   UNK N   1      35.506  17.503  10.042  0.00  0.00    -0.273 OA
HETATM    5  H   UNK N   1      34.393  14.777   9.082  0.00  0.00     0.163 HD
BRANCH   3   6
HETATM    6  C   UNK N   1      35.844  15.406  11.069  0.00  0.00     0.078 C 
HETATM    7  C   UNK N   1      34.717  14.578  11.703  0.00  0.00     0.014 C 
HETATM    8  C   UNK N   1      35.276  13.337  12.392  0.00  0.00     0.001 C 
HETATM    9  C   UNK N   1      35.986  12.414  11.389  0.00  0.00     0.000 C 
HETATM   10  C   UNK N   1      36.566  13.148  10.171  0.00  0.00     0.001 C 
HETATM   11  C   UNK N   1      37.013  14.558  10.541  0.00  0.00     0.014 C 
ENDBRANCH   3   6
ENDBRANCH   1   2
BRANCH   1  12
HETATM   12  C   UNK N   1      33.770  15.498   6.638  0.00  0.00     0.009 C 
HETATM   13  C   UNK N   1      34.685  14.284   6.710  0.00  0.00     0.012 C 
HETATM   14  C   UNK N   1      33.995  16.184   5.304  0.00  0.00     0.012 C 
ENDBRANCH   1  12
BRANCH   1  15
HETATM   15  C   UNK N   1      32.719  17.243   8.244  0.00  0.00     0.245 C 
HETATM   16  O   UNK N   1      32.787  18.469   8.279  0.00  0.00    -0.271 OA
HETATM   17  N   UNK N   1      31.530  16.606   8.384  0.00  0.00    -0.325 N 
HETATM   18  H   UNK N   1      31.566  15.645   8.592  0.00  0.00     0.169 HD
BRANCH  17  19
HETATM   19  C   UNK N   1      30.240  17.184   8.261  0.00  0.00     0.037 A 
HETATM   20  C   UNK N   1      29.514  17.454   9.423  0.00  0.00     0.046 A 
HETATM   21  C   UNK N   1      28.175  17.832   9.328  0.00  0.00     0.090 A 
HETATM   22  N   UNK N   1      27.572  17.909   8.111  0.00  0.00    -0.375 N 
HETATM   23  C   UNK N   1      28.254  17.646   6.964  0.00  0.00     0.090 A 
ATOM     24  HN  UNK N   1      26.587  18.172   8.057  1.00  0.00     0.164 HD
HETATM   25  C   UNK N   1      29.597  17.270   7.018  0.00  0.00     0.046 A 
ENDBRANCH  17  19
ENDBRANCH   1  15
TORSDOF 5
ENDMDL
MODEL 7
REMARK VINA RESULT:      -5.9      2.235      4.420
REMARK  5 active torsions:
REMARK  status: ('A' for Active; 'I' for Inactive)
REMARK    1  A    between atoms: C_2  and  C_3 
REMARK       I    between atoms: C_2  and  N_9 
REMARK    2  A    between atoms: C_10  and  N_9 
REMARK    3  A    between atoms: C_10  and  C_11 
REMARK    4  A    between atoms: C_10  and  C_14 
REMARK       I    between atoms: C_14  and  N_16 
REMARK    5  A    between atoms: N_16  and  C_17 
ROOT
HETATM    1  C   UNK N   1      31.627  16.515   6.274  0.00  0.00     0.180 C 
ENDROOT
BRANCH   1   2
HETATM    2  N   UNK N   1      30.375  17.251   6.363  0.00  0.00    -0.347 N 
HETATM    3  C   UNK N   1      29.117  16.788   6.155  0.00  0.00     0.222 C 
HETATM    4  O   UNK N   1      28.908  15.616   5.883  0.00  0.00    -0.273 OA
HETATM    5  H   UNK N   1      30.451  18.203   6.603  0.00  0.00     0.163 HD
BRANCH   3   6
HETATM    6  C   UNK N   1      27.974  17.748   6.272  0.00  0.00     0.078 C 
HETATM    7  C   UNK N   1      28.329  18.872   7.256  0.00  0.00     0.014 C 
HETATM    8  C   UNK N   1      27.447  20.095   7.024  0.00  0.00     0.001 C 
HETATM    9  C   UNK N   1      27.648  20.668   5.613  0.00  0.00     0.000 C 
HETATM   10  C   UNK N   1      28.093  19.627   4.575  0.00  0.00     0.001 C 
HETATM   11  C   UNK N   1      27.515  18.253   4.895  0.00  0.00     0.014 C 
ENDBRANCH   3   6
ENDBRANCH   1   2
BRANCH   1  12
HETATM   12  C   UNK N   1      32.509  16.931   5.070  0.00  0.00     0.009 C 
HETATM   13  C   UNK N   1      31.753  17.825   4.098  0.00  0.00     0.012 C 
HETATM   14  C   UNK N   1      33.110  15.779   4.287  0.00  0.00     0.012 C 
ENDBRANCH   1  12
BRANCH   1  15
HETATM   15  C   UNK N   1      32.343  16.384   7.600  0.00  0.00     0.245 C 
HETATM   16  O   UNK N   1      31.795  15.844   8.557  0.00  0.00    -0.271 OA
HETATM   17  N   UNK N   1      33.649  16.744   7.656  0.00  0.00    -0.325 N 
HETATM   18  H   UNK N   1      33.962  17.380   6.972  0.00  0.00     0.169 HD
BRANCH  17  19
HETATM   19  C   UNK N   1      34.612  16.297   8.597  0.00  0.00     0.037 A 
HETATM   20  C   UNK N   1      35.172  15.029   8.430  0.00  0.00     0.046 A 
HETATM   21  C   UNK N   1      35.964  14.486   9.442  0.00  0.00     0.090 A 
HETATM   22  N   UNK N   1      36.167  15.177  10.596  0.00  0.00    -0.375 N 
HETATM   23  C   UNK N   1      35.629  16.412  10.786  0.00  0.00     0.090 A 
ATOM     24  HN  UNK N   1      36.736  14.761  11.334  1.00  0.00     0.164 HD
HETATM   25  C   UNK N   1      34.835  16.991   9.794  0.00  0.00     0.046 A 
ENDBRANCH  17  19
ENDBRANCH   1  15
TORSDOF 5
ENDMDL
MODEL 8
REMARK VINA RESULT:      -5.7      5.319      8.751
REMARK  5 active torsions:
REMARK  status: ('A' for Active; 'I' for Inactive)
REMARK    1  A    between atoms: C_2  and  C_3 
REMARK       I    between atoms: C_2  and  N_9 
REMARK    2  A    between atoms: C_10  and  N_9 
REMARK    3  A    between atoms: C_10  and  C_11 
REMARK    4  A    between atoms: C_10  and  C_14 
REMARK       I    between atoms: C_14  and  N_16 
REMARK    5  A    between atoms: N_16  and  C_17 
ROOT
HETATM    1  C   UNK N   1      27.480  18.586   5.069  0.00  0.00     0.180 C 
ENDROOT
BRANCH   1   2
HETATM    2  N   UNK N   1      28.754  17.895   4.950  0.00  0.00    -0.347 N 
HETATM    3  C   UNK N   1      29.461  17.272   5.926  0.00  0.00     0.222 C 
HETATM    4  O   UNK N   1      29.042  17.208   7.071  0.00  0.00    -0.273 OA
HETATM    5  H   UNK N   1      29.153  17.878   4.050  0.00  0.00     0.163 HD
BRANCH   3   6
HETATM    6  C   UNK N   1      30.775  16.651   5.571  0.00  0.00     0.078 C 
HETATM    7  C   UNK N   1      31.504  17.517   4.533  0.00  0.00     0.014 C 
HETATM    8  C   UNK N   1      32.999  17.217   4.529  0.00  0.00     0.001 C 
HETATM    9  C   UNK N   1      33.636  17.538   5.890  0.00  0.00     0.000 C 
HETATM   10  C   UNK N   1      32.664  17.425   7.074  0.00  0.00     0.001 C 
HETATM   11  C   UNK N   1      31.615  16.347   6.822  0.00  0.00     0.014 C 
ENDBRANCH   3   6
ENDBRANCH   1   2
BRANCH   1  12
HETATM   12  C   UNK N   1      27.535  20.072   4.629  0.00  0.00     0.009 C 
HETATM   13  C   UNK N   1      27.281  21.016   5.795  0.00  0.00     0.012 C 
HETATM   14  C   UNK N   1      26.590  20.442   3.503  0.00  0.00     0.012 C 
ENDBRANCH   1  12
BRANCH   1  15
HETATM   15  C   UNK N   1      26.310  17.787   4.539  0.00  0.00     0.245 C 
HETATM   16  O   UNK N   1      26.436  17.076   3.546  0.00  0.00    -0.271 OA
HETATM   17  N   UNK N   1      25.170  17.766   5.273  0.00  0.00    -0.325 N 
HETATM   18  H   UNK N   1      25.030  18.517   5.894  0.00  0.00     0.169 HD
BRANCH  17  19
HETATM   19  C   UNK N   1      24.158  16.772   5.238  0.00  0.00     0.037 A 
HETATM   20  C   UNK N   1      22.984  17.037   4.532  0.00  0.00     0.046 A 
HETATM   21  C   UNK N   1      21.898  16.168   4.646  0.00  0.00     0.090 A 
HETATM   22  N   UNK N   1      21.976  15.082   5.462  0.00  0.00    -0.375 N 
HETATM   23  C   UNK N   1      23.107  14.803   6.165  0.00  0.00     0.090 A 
ATOM     24  HN  UNK N   1      21.169  14.463   5.548  1.00  0.00     0.164 HD
HETATM   25  C   UNK N   1      24.215  15.647   6.073  0.00  0.00     0.046 A 
ENDBRANCH  17  19
ENDBRANCH   1  15
TORSDOF 5
ENDMDL
MODEL 9
REMARK VINA RESULT:      -5.6      8.882     12.918
REMARK  5 active torsions:
REMARK  status: ('A' for Active; 'I' for Inactive)
REMARK    1  A    between atoms: C_2  and  C_3 
REMARK       I    between atoms: C_2  and  N_9 
REMARK    2  A    between atoms: C_10  and  N_9 
REMARK    3  A    between atoms: C_10  and  C_11 
REMARK    4  A    between atoms: C_10  and  C_14 
REMARK       I    between atoms: C_14  and  N_16 
REMARK    5  A    between atoms: N_16  and  C_17 
ROOT
HETATM    1  C   UNK N   1      24.345  16.501   5.619  0.00  0.00     0.180 C 
ENDROOT
BRANCH   1   2
HETATM    2  N   UNK N   1      23.650  15.360   6.194  0.00  0.00    -0.347 N 
HETATM    3  C   UNK N   1      22.459  15.347   6.844  0.00  0.00     0.222 C 
HETATM    4  O   UNK N   1      21.804  16.368   6.989  0.00  0.00    -0.273 OA
HETATM    5  H   UNK N   1      24.099  14.489   6.099  0.00  0.00     0.163 HD
BRANCH   3   6
HETATM    6  C   UNK N   1      21.952  14.046   7.382  0.00  0.00     0.078 C 
HETATM    7  C   UNK N   1      23.062  13.332   8.168  0.00  0.00     0.014 C 
HETATM    8  C   UNK N   1      22.473  12.304   9.127  0.00  0.00     0.001 C 
HETATM    9  C   UNK N   1      21.559  12.970  10.167  0.00  0.00     0.000 C 
HETATM   10  C   UNK N   1      20.908  14.273   9.680  0.00  0.00     0.001 C 
HETATM   11  C   UNK N   1      20.651  14.230   8.178  0.00  0.00     0.014 C 
ENDBRANCH   3   6
ENDBRANCH   1   2
BRANCH   1  12
HETATM   12  C   UNK N   1      25.882  16.317   5.541  0.00  0.00     0.009 C 
HETATM   13  C   UNK N   1      26.430  15.608   6.770  0.00  0.00     0.012 C 
HETATM   14  C   UNK N   1      26.670  17.598   5.340  0.00  0.00     0.012 C 
ENDBRANCH   1  12
BRANCH   1  15
HETATM   15  C   UNK N   1      23.683  17.044   4.372  0.00  0.00     0.245 C 
HETATM   16  O   UNK N   1      23.765  16.440   3.307  0.00  0.00    -0.271 OA
HETATM   17  N   UNK N   1      22.881  18.130   4.500  0.00  0.00    -0.325 N 
HETATM   18  H   UNK N   1      23.040  18.708   5.281  0.00  0.00     0.169 HD
BRANCH  17  19
HETATM   19  C   UNK N   1      21.835  18.518   3.623  0.00  0.00     0.037 A 
HETATM   20  C   UNK N   1      21.901  19.774   3.017  0.00  0.00     0.046 A 
HETATM   21  C   UNK N   1      20.799  20.261   2.314  0.00  0.00     0.090 A 
HETATM   22  N   UNK N   1      19.656  19.526   2.243  0.00  0.00    -0.375 N 
HETATM   23  C   UNK N   1      19.563  18.302   2.828  0.00  0.00     0.090 A 
ATOM     24  HN  UNK N   1      18.852  19.901   1.738  1.00  0.00     0.164 HD
HETATM   25  C   UNK N   1      20.647  17.779   3.535  0.00  0.00     0.046 A 
ENDBRANCH  17  19
ENDBRANCH   1  15
TORSDOF 5
ENDMDL
