MODEL 1
REMARK VINA RESULT:      -4.9      0.000      0.000
REMARK  1 active torsions:
REMARK  status: ('A' for Active; 'I' for Inactive)
REMARK    1  A    between atoms: C_11  and  O_12 
ROOT
HETATM    1  N   UNK N   1      20.149  18.027   0.273  0.00  0.00    -0.346 N 
HETATM    2  C   UNK N   1      19.852  16.884   0.948  0.00  0.00     0.182 A 
HETATM    3  N   UNK N   1      19.878  17.062   2.297  0.00  0.00    -0.337 N 
ATOM      4  HN  UNK N   1      19.694  16.373   3.027  1.00  0.00     0.168 HD
HETATM    5  C   UNK N   1      20.199  18.351   2.443  0.00  0.00     0.138 A 
HETATM    6  N   UNK N   1      20.354  19.034   3.603  0.00  0.00    -0.337 N 
ATOM      7  HN  UNK N   1      20.226  18.574   4.505  1.00  0.00     0.168 HD
HETATM    8  C   UNK N   1      20.688  20.360   3.527  0.00  0.00     0.184 A 
HETATM    9  N   UNK N   1      20.858  20.967   2.305  0.00  0.00    -0.331 N 
ATOM     10  HN  UNK N   1      21.107  21.956   2.264  1.00  0.00     0.168 HD
HETATM   11  C   UNK N   1      20.698  20.262   1.144  0.00  0.00     0.172 A 
HETATM   12  C   UNK N   1      20.362  18.928   1.241  0.00  0.00     0.129 A 
HETATM   13  H   UNK N   1      20.197  18.162  -0.701  0.00  0.00     0.167 HD
ENDROOT
BRANCH  11  14
HETATM   14  O   UNK N   1      20.863  20.851  -0.050  0.00  0.00    -0.344 OA
HETATM   15  H   UNK N   1      20.992  20.329  -0.817  0.00  0.00     0.219 HD
ENDBRANCH  11  14
TORSDOF 1
ENDMDL
MODEL 2
REMARK VINA RESULT:      -4.8     15.220     15.911
REMARK  1 active torsions:
REMARK  status: ('A' for Active; 'I' for Inactive)
REMARK    1  A    between atoms: C_11  and  O_12 
ROOT
HETATM    1  N   UNK N   1      35.327  17.135  10.463  0.00  0.00    -0.346 N 
HETATM    2  C   UNK N   1      34.934  15.966  11.040  0.00  0.00     0.182 A 
HETATM    3  N   UNK N   1      33.969  15.335  10.315  0.00  0.00    -0.337 N 
ATOM      4  HN  UNK N   1      33.505  14.450  10.521  1.00  0.00     0.168 HD
HETATM    5  C   UNK N   1      33.773  16.145   9.271  0.00  0.00     0.138 A 
HETATM    6  N   UNK N   1      32.904  15.968   8.245  0.00  0.00    -0.337 N 
ATOM      7  HN  UNK N   1      32.302  15.146   8.202  1.00  0.00     0.168 HD
HETATM    8  C   UNK N   1      32.861  16.928   7.269  0.00  0.00     0.184 A 
HETATM    9  N   UNK N   1      33.679  18.032   7.339  0.00  0.00    -0.331 N 
ATOM     10  HN  UNK N   1      33.636  18.739   6.605  1.00  0.00     0.168 HD
HETATM   11  C   UNK N   1      34.549  18.193   8.383  0.00  0.00     0.172 A 
HETATM   12  C   UNK N   1      34.578  17.217   9.355  0.00  0.00     0.129 A 
HETATM   13  H   UNK N   1      36.003  17.772  10.786  0.00  0.00     0.167 HD
ENDROOT
BRANCH  11  14
HETATM   14  O   UNK N   1      35.348  19.269   8.455  0.00  0.00    -0.344 OA
HETATM   15  H   UNK N   1      35.325  19.916   7.779  0.00  0.00     0.219 HD
ENDBRANCH  11  14
TORSDOF 1
ENDMDL
MODEL 3
REMARK VINA RESULT:      -4.6     10.744     11.590
REMARK  1 active torsions:
REMARK  status: ('A' for Active; 'I' for Inactive)
REMARK    1  A    between atoms: C_11  and  O_12 
ROOT
HETATM    1  N   UNK N   1      23.633  13.283   8.945  0.00  0.00    -0.346 N 
HETATM    2  C   UNK N   1      24.965  13.394   9.203  0.00  0.00     0.182 A 
HETATM    3  N   UNK N   1      25.283  12.965  10.455  0.00  0.00    -0.337 N 
ATOM      4  HN  UNK N   1      26.202  12.940  10.898  1.00  0.00     0.168 HD
HETATM    5  C   UNK N   1      24.110  12.583  10.969  0.00  0.00     0.138 A 
HETATM    6  N   UNK N   1      23.880  12.074  12.205  0.00  0.00    -0.337 N 
ATOM      7  HN  UNK N   1      24.643  11.941  12.868  1.00  0.00     0.168 HD
HETATM    8  C   UNK N   1      22.592  11.746  12.533  0.00  0.00     0.184 A 
HETATM    9  N   UNK N   1      21.572  11.931  11.629  0.00  0.00    -0.331 N 
ATOM     10  HN  UNK N   1      20.618  11.682  11.888  1.00  0.00     0.168 HD
HETATM   11  C   UNK N   1      21.824  12.446  10.386  0.00  0.00     0.172 A 
HETATM   12  C   UNK N   1      23.126  12.771  10.074  0.00  0.00     0.129 A 
HETATM   13  H   UNK N   1      23.154  13.523   8.120  0.00  0.00     0.167 HD
ENDROOT
BRANCH  11  14
HETATM   14  O   UNK N   1      20.832  12.629   9.501  0.00  0.00    -0.344 OA
HETATM   15  H   UNK N   1      19.964  12.342   9.704  0.00  0.00     0.219 HD
ENDBRANCH  11  14
TORSDOF 1
ENDMDL
MODEL 4
REMARK VINA RESULT:      -4.6     11.082     12.004
REMARK  1 active torsions:
REMARK  status: ('A' for Active; 'I' for Inactive)
REMARK    1  A    between atoms: C_11  and  O_12 
ROOT
HETATM    1  N   UNK N   1      24.728  12.334  11.216  0.00  0.00    -0.346 N 
HETATM    2  C   UNK N   1      25.116  12.944  10.063  0.00  0.00     0.182 A 
HETATM    3  N   UNK N   1      24.054  13.344   9.311  0.00  0.00    -0.337 N 
ATOM      4  HN  UNK N   1      24.065  13.821   8.409  1.00  0.00     0.168 HD
HETATM    5  C   UNK N   1      22.993  12.964  10.028  0.00  0.00     0.138 A 
HETATM    6  N   UNK N   1      21.685  13.130   9.714  0.00  0.00    -0.337 N 
ATOM      7  HN  UNK N   1      21.407  13.590   8.847  1.00  0.00     0.168 HD
HETATM    8  C   UNK N   1      20.749  12.663  10.598  0.00  0.00     0.184 A 
HETATM    9  N   UNK N   1      21.137  12.045  11.763  0.00  0.00    -0.331 N 
ATOM     10  HN  UNK N   1      20.428  11.702  12.412  1.00  0.00     0.168 HD
HETATM   11  C   UNK N   1      22.462  11.885  12.064  0.00  0.00     0.172 A 
HETATM   12  C   UNK N   1      23.390  12.363  11.162  0.00  0.00     0.129 A 
HETATM   13  H   UNK N   1      25.298  11.958  11.925  0.00  0.00     0.167 HD
ENDROOT
BRANCH  11  14
HETATM   14  O   UNK N   1      22.845  11.283  13.200  0.00  0.00    -0.344 OA
HETATM   15  H   UNK N   1      22.493  11.564  14.021  0.00  0.00     0.219 HD
ENDBRANCH  11  14
TORSDOF 1
ENDMDL
MODEL 5
REMARK VINA RESULT:      -4.5      1.606      3.031
REMARK  1 active torsions:
REMARK  status: ('A' for Active; 'I' for Inactive)
REMARK    1  A    between atoms: C_11  and  O_12 
ROOT
HETATM    1  N   UNK N   1      20.693  19.968   1.124  0.00  0.00    -0.346 N 
HETATM    2  C   UNK N   1      20.844  20.823   2.172  0.00  0.00     0.182 A 
HETATM    3  N   UNK N   1      20.676  20.200   3.371  0.00  0.00    -0.337 N 
ATOM      4  HN  UNK N   1      20.735  20.606   4.306  1.00  0.00     0.168 HD
HETATM    5  C   UNK N   1      20.415  18.932   3.039  0.00  0.00     0.138 A 
HETATM    6  N   UNK N   1      20.170  17.896   3.878  0.00  0.00    -0.337 N 
ATOM      7  HN  UNK N   1      20.168  18.028   4.889  1.00  0.00     0.168 HD
HETATM    8  C   UNK N   1      19.924  16.667   3.325  0.00  0.00     0.184 A 
HETATM    9  N   UNK N   1      19.929  16.504   1.959  0.00  0.00    -0.331 N 
ATOM     10  HN  UNK N   1      19.745  15.583   1.562  1.00  0.00     0.168 HD
HETATM   11  C   UNK N   1      20.179  17.562   1.128  0.00  0.00     0.172 A 
HETATM   12  C   UNK N   1      20.424  18.790   1.704  0.00  0.00     0.129 A 
HETATM   13  H   UNK N   1      20.764  20.168   0.164  0.00  0.00     0.167 HD
ENDROOT
BRANCH  11  14
HETATM   14  O   UNK N   1      20.185  17.406  -0.205  0.00  0.00    -0.344 OA
HETATM   15  H   UNK N   1      20.124  18.154  -0.764  0.00  0.00     0.219 HD
ENDBRANCH  11  14
TORSDOF 1
ENDMDL
MODEL 6
REMARK VINA RESULT:      -4.5     22.776     23.357
REMARK  1 active torsions:
REMARK  status: ('A' for Active; 'I' for Inactive)
REMARK    1  A    between atoms: C_11  and  O_12 
ROOT
HETATM    1  N   UNK N   1      42.110  23.643   2.142  0.00  0.00    -0.346 N 
HETATM    2  C   UNK N   1      41.148  22.692   1.993  0.00  0.00     0.182 A 
HETATM    3  N   UNK N   1      41.559  21.472   2.436  0.00  0.00    -0.337 N 
ATOM      4  HN  UNK N   1      41.038  20.595   2.440  1.00  0.00     0.168 HD
HETATM    5  C   UNK N   1      42.805  21.691   2.866  0.00  0.00     0.138 A 
HETATM    6  N   UNK N   1      43.660  20.788   3.407  0.00  0.00    -0.337 N 
ATOM      7  HN  UNK N   1      43.386  19.813   3.529  1.00  0.00     0.168 HD
HETATM    8  C   UNK N   1      44.901  21.226   3.784  0.00  0.00     0.184 A 
HETATM    9  N   UNK N   1      45.257  22.544   3.613  0.00  0.00    -0.331 N 
ATOM     10  HN  UNK N   1      46.186  22.856   3.899  1.00  0.00     0.168 HD
HETATM   11  C   UNK N   1      44.381  23.441   3.066  0.00  0.00     0.172 A 
HETATM   12  C   UNK N   1      43.137  22.981   2.693  0.00  0.00     0.129 A 
HETATM   13  H   UNK N   1      42.063  24.596   1.901  0.00  0.00     0.167 HD
ENDROOT
BRANCH  11  14
HETATM   14  O   UNK N   1      44.726  24.727   2.898  0.00  0.00    -0.344 OA
HETATM   15  H   UNK N   1      45.385  24.959   2.275  0.00  0.00     0.219 HD
ENDBRANCH  11  14
TORSDOF 1
ENDMDL
MODEL 7
REMARK VINA RESULT:      -4.4     10.769     11.647
REMARK  1 active torsions:
REMARK  status: ('A' for Active; 'I' for Inactive)
REMARK    1  A    between atoms: C_11  and  O_12 
ROOT
HETATM    1  N   UNK N   1      20.899  12.695  10.919  0.00  0.00    -0.346 N 
HETATM    2  C   UNK N   1      20.630  13.451   9.820  0.00  0.00     0.182 A 
HETATM    3  N   UNK N   1      21.764  13.827   9.166  0.00  0.00    -0.337 N 
ATOM      4  HN  UNK N   1      21.845  14.392   8.320  1.00  0.00     0.168 HD
HETATM    5  C   UNK N   1      22.746  13.284   9.890  0.00  0.00     0.138 A 
HETATM    6  N   UNK N   1      24.079  13.364   9.660  0.00  0.00    -0.337 N 
ATOM      7  HN  UNK N   1      24.444  13.881   8.860  1.00  0.00     0.168 HD
HETATM    8  C   UNK N   1      24.921  12.727  10.533  0.00  0.00     0.184 A 
HETATM    9  N   UNK N   1      24.416  12.033  11.607  0.00  0.00    -0.331 N 
ATOM     10  HN  UNK N   1      25.055  11.564  12.249  1.00  0.00     0.168 HD
HETATM   11  C   UNK N   1      23.067  11.963  11.824  0.00  0.00     0.172 A 
HETATM   12  C   UNK N   1      22.236  12.609  10.934  0.00  0.00     0.129 A 
HETATM   13  H   UNK N   1      20.260  12.303  11.556  0.00  0.00     0.167 HD
ENDROOT
BRANCH  11  14
HETATM   14  O   UNK N   1      22.570  11.286  12.871  0.00  0.00    -0.344 OA
HETATM   15  H   UNK N   1      22.194  11.749  13.593  0.00  0.00     0.219 HD
ENDBRANCH  11  14
TORSDOF 1
ENDMDL
MODEL 8
REMARK VINA RESULT:      -4.3     10.422     11.314
REMARK  1 active torsions:
REMARK  status: ('A' for Active; 'I' for Inactive)
REMARK    1  A    between atoms: C_11  and  O_12 
ROOT
HETATM    1  N   UNK N   1      24.104  12.300  11.753  0.00  0.00    -0.346 N 
HETATM    2  C   UNK N   1      23.154  11.824  12.603  0.00  0.00     0.182 A 
HETATM    3  N   UNK N   1      21.913  11.832  12.043  0.00  0.00    -0.337 N 
ATOM      4  HN  UNK N   1      21.032  11.530  12.461  1.00  0.00     0.168 HD
HETATM    5  C   UNK N   1      22.118  12.327  10.820  0.00  0.00     0.138 A 
HETATM    6  N   UNK N   1      21.192  12.540   9.853  0.00  0.00    -0.337 N 
ATOM      7  HN  UNK N   1      20.208  12.319  10.009  1.00  0.00     0.168 HD
HETATM    8  C   UNK N   1      21.618  13.059   8.659  0.00  0.00     0.184 A 
HETATM    9  N   UNK N   1      22.947  13.352   8.461  0.00  0.00    -0.331 N 
ATOM     10  HN  UNK N   1      23.250  13.739   7.567  1.00  0.00     0.168 HD
HETATM   11  C   UNK N   1      23.868  13.130   9.449  0.00  0.00     0.172 A 
HETATM   12  C   UNK N   1      23.419  12.607  10.643  0.00  0.00     0.129 A 
HETATM   13  H   UNK N   1      25.069  12.397  11.916  0.00  0.00     0.167 HD
ENDROOT
BRANCH  11  14
HETATM   14  O   UNK N   1      25.166  13.414   9.260  0.00  0.00    -0.344 OA
HETATM   15  H   UNK N   1      25.585  13.178   8.456  0.00  0.00     0.219 HD
ENDBRANCH  11  14
TORSDOF 1
ENDMDL
MODEL 9
REMARK VINA RESULT:      -4.3     10.289     11.078
REMARK  1 active torsions:
REMARK  status: ('A' for Active; 'I' for Inactive)
REMARK    1  A    between atoms: C_11  and  O_12 
ROOT
HETATM    1  N   UNK N   1      22.333  13.757   8.849  0.00  0.00    -0.346 N 
HETATM    2  C   UNK N   1      21.028  13.574   9.185  0.00  0.00     0.182 A 
HETATM    3  N   UNK N   1      20.890  12.868  10.342  0.00  0.00    -0.337 N 
ATOM      4  HN  UNK N   1      20.027  12.595  10.813  1.00  0.00     0.168 HD
HETATM    5  C   UNK N   1      22.148  12.618  10.715  0.00  0.00     0.138 A 
HETATM    6  N   UNK N   1      22.560  11.939  11.814  0.00  0.00    -0.337 N 
ATOM      7  HN  UNK N   1      21.887  11.548  12.473  1.00  0.00     0.168 HD
HETATM    8  C   UNK N   1      23.908  11.796  12.011  0.00  0.00     0.184 A 
HETATM    9  N   UNK N   1      24.804  12.329  11.115  0.00  0.00    -0.331 N 
ATOM     10  HN  UNK N   1      25.805  12.215  11.274  1.00  0.00     0.168 HD
HETATM   11  C   UNK N   1      24.369  13.012  10.011  0.00  0.00     0.172 A 
HETATM   12  C   UNK N   1      23.010  13.145   9.830  0.00  0.00     0.129 A 
HETATM   13  H   UNK N   1      22.697  14.230   8.066  0.00  0.00     0.167 HD
ENDROOT
BRANCH  11  14
HETATM   14  O   UNK N   1      25.241  13.533   9.134  0.00  0.00    -0.344 OA
HETATM   15  H   UNK N   1      26.161  13.485   9.302  0.00  0.00     0.219 HD
ENDBRANCH  11  14
TORSDOF 1
ENDMDL
