REMARK  1 active torsions:
REMARK  status: ('A' for Active; 'I' for Inactive)
REMARK    1  A    between atoms: C_11  and  O_12 
ROOT
HETATM    1  N   UNK N   1       1.503   0.598   0.000  0.00  0.00    -0.346 N 
HETATM    2  C   UNK N   1       2.246  -0.542   0.000  0.00  0.00     0.182 A 
HETATM    3  N   UNK N   1       1.470  -1.661  -0.000  0.00  0.00    -0.337 N 
ATOM      4  HN  UNK N   1       1.771  -2.636  -0.000  1.00  0.00     0.168 HD
HETATM    5  C   UNK N   1       0.222  -1.184  -0.000  0.00  0.00     0.138 A 
HETATM    6  N   UNK N   1      -0.931  -1.897  -0.000  0.00  0.00    -0.337 N 
ATOM      7  HN  UNK N   1      -0.918  -2.917  -0.000  1.00  0.00     0.168 HD
HETATM    8  C   UNK N   1      -2.113  -1.205   0.000  0.00  0.00     0.184 A 
HETATM    9  N   UNK N   1      -2.116   0.170  -0.000  0.00  0.00    -0.331 N 
ATOM     10  HN  UNK N   1      -3.004   0.672  -0.000  1.00  0.00     0.168 HD
HETATM   11  C   UNK N   1      -0.942   0.873  -0.000  0.00  0.00     0.172 A 
HETATM   12  C   UNK N   1       0.237   0.159   0.000  0.00  0.00     0.129 A 
HETATM   13  H   UNK N   1       1.821   1.529   0.000  0.00  0.00     0.167 HD
ENDROOT
BRANCH  11  14
HETATM   14  O   UNK N   1      -0.941   2.215  -0.000  0.00  0.00    -0.344 OA
HETATM   15  H   UNK N   1      -0.130   2.683  -0.000  0.00  0.00     0.219 HD
ENDBRANCH  11  14
TORSDOF 1
