REMARK  3 active torsions:
REMARK  status: ('A' for Active; 'I' for Inactive)
REMARK    1  A    between atoms: N_9  and  C_13 
REMARK    2  A    between atoms: C_13  and  C_14 
REMARK    3  A    between atoms: C_14  and  C_15 
ROOT
HETATM    1  C   UNK N   1      -5.060  -0.066   0.000  0.00  0.00     0.001 A 
HETATM    2  C   UNK N   1      -3.759  -0.571  -0.000  0.00  0.00     0.018 A 
HETATM    3  C   UNK N   1      -2.661   0.303  -0.000  0.00  0.00     0.049 A 
HETATM    4  C   UNK N   1      -2.878   1.693   0.000  0.00  0.00     0.049 A 
HETATM    5  C   UNK N   1      -4.188   2.193   0.000  0.00  0.00     0.018 A 
HETATM    6  C   UNK N   1      -5.274   1.315   0.000  0.00  0.00     0.001 A 
HETATM    7  C   UNK N   1      -1.350  -0.186  -0.000  0.00  0.00     0.273 A 
HETATM    8  O   UNK N   1      -1.163  -1.393  -0.000  0.00  0.00    -0.266 OA
HETATM    9  N   UNK N   1      -0.284   0.708  -0.000  0.00  0.00    -0.254 N 
HETATM   10  N   UNK N   1      -0.517   2.023  -0.000  0.00  0.00    -0.261 N 
HETATM   11  C   UNK N   1      -1.777   2.549  -0.000  0.00  0.00     0.271 A 
HETATM   12  O   UNK N   1      -1.923   3.759  -0.000  0.00  0.00    -0.266 OA
HETATM   13  H   UNK N   1       0.252   2.639  -0.000  0.00  0.00     0.190 HD
ENDROOT
BRANCH   9  14
HETATM   14  C   UNK N   1       1.130   0.320  -0.000  0.00  0.00     0.157 C 
BRANCH  14  15
HETATM   15  C   UNK N   1       1.434  -1.172   0.000  0.00  0.00     0.060 C 
BRANCH  15  16
HETATM   16  C   UNK N   1       2.899  -1.456   0.000  0.00  0.00    -0.057 A 
HETATM   17  C   UNK N   1       3.852  -0.422   0.000  0.00  0.00     0.007 A 
HETATM   18  C   UNK N   1       5.213  -0.722  -0.000  0.00  0.00     0.001 A 
HETATM   19  C   UNK N   1       5.631  -2.055  -0.000  0.00  0.00     0.000 A 
HETATM   20  C   UNK N   1       4.687  -3.086   0.000  0.00  0.00     0.001 A 
HETATM   21  C   UNK N   1       3.323  -2.786   0.000  0.00  0.00     0.007 A 
ENDBRANCH  15  16
ENDBRANCH  14  15
ENDBRANCH   9  14
TORSDOF 3
