MODEL 1
REMARK VINA RESULT:      -7.4      0.000      0.000
REMARK  3 active torsions:
REMARK  status: ('A' for Active; 'I' for Inactive)
REMARK    1  A    between atoms: N_9  and  C_13 
REMARK    2  A    between atoms: C_13  and  C_14 
REMARK    3  A    between atoms: C_14  and  C_15 
ROOT
HETATM    1  C   UNK N   1      21.848  11.746  11.517  0.00  0.00     0.001 A 
HETATM    2  C   UNK N   1      20.922  12.634  10.969  0.00  0.00     0.018 A 
HETATM    3  C   UNK N   1      21.262  13.410   9.850  0.00  0.00     0.049 A 
HETATM    4  C   UNK N   1      22.544  13.289   9.284  0.00  0.00     0.049 A 
HETATM    5  C   UNK N   1      23.470  12.394   9.840  0.00  0.00     0.018 A 
HETATM    6  C   UNK N   1      23.121  11.626  10.953  0.00  0.00     0.001 A 
HETATM    7  C   UNK N   1      20.346  14.305   9.288  0.00  0.00     0.273 A 
HETATM    8  O   UNK N   1      19.233  14.409   9.781  0.00  0.00    -0.266 OA
HETATM    9  N   UNK N   1      20.716  15.060   8.179  0.00  0.00    -0.254 N 
HETATM   10  N   UNK N   1      21.939  14.926   7.660  0.00  0.00    -0.261 N 
HETATM   11  C   UNK N   1      22.868  14.067   8.172  0.00  0.00     0.271 A 
HETATM   12  O   UNK N   1      23.968  13.991   7.653  0.00  0.00    -0.266 OA
HETATM   13  H   UNK N   1      22.181  15.470   6.875  0.00  0.00     0.190 HD
ENDROOT
BRANCH   9  14
HETATM   14  C   UNK N   1      19.848  16.028   7.502  0.00  0.00     0.157 C 
BRANCH  14  15
HETATM   15  C   UNK N   1      20.053  17.496   7.849  0.00  0.00     0.060 C 
BRANCH  15  16
HETATM   16  C   UNK N   1      19.161  17.952   8.955  0.00  0.00    -0.057 A 
HETATM   17  C   UNK N   1      19.554  18.958   9.855  0.00  0.00     0.007 A 
HETATM   18  C   UNK N   1      18.696  19.360  10.877  0.00  0.00     0.001 A 
HETATM   19  C   UNK N   1      17.442  18.760  11.008  0.00  0.00     0.000 A 
HETATM   20  C   UNK N   1      17.047  17.758  10.116  0.00  0.00     0.001 A 
HETATM   21  C   UNK N   1      17.906  17.355   9.091  0.00  0.00     0.007 A 
ENDBRANCH  15  16
ENDBRANCH  14  15
ENDBRANCH   9  14
TORSDOF 3
ENDMDL
MODEL 2
REMARK VINA RESULT:      -7.2     17.223     18.174
REMARK  3 active torsions:
REMARK  status: ('A' for Active; 'I' for Inactive)
REMARK    1  A    between atoms: N_9  and  C_13 
REMARK    2  A    between atoms: C_13  and  C_14 
REMARK    3  A    between atoms: C_14  and  C_15 
ROOT
HETATM    1  C   UNK N   1      33.341  20.475  -3.533  0.00  0.00     0.001 A 
HETATM    2  C   UNK N   1      32.488  21.385  -2.906  0.00  0.00     0.018 A 
HETATM    3  C   UNK N   1      31.335  21.842  -3.564  0.00  0.00     0.049 A 
HETATM    4  C   UNK N   1      31.043  21.378  -4.860  0.00  0.00     0.049 A 
HETATM    5  C   UNK N   1      31.905  20.464  -5.483  0.00  0.00     0.018 A 
HETATM    6  C   UNK N   1      33.050  20.016  -4.820  0.00  0.00     0.001 A 
HETATM    7  C   UNK N   1      30.469  22.753  -2.951  0.00  0.00     0.273 A 
HETATM    8  O   UNK N   1      30.723  23.155  -1.825  0.00  0.00    -0.266 OA
HETATM    9  N   UNK N   1      29.335  23.186  -3.630  0.00  0.00    -0.254 N 
HETATM   10  N   UNK N   1      29.080  22.731  -4.860  0.00  0.00    -0.261 N 
HETATM   11  C   UNK N   1      29.895  21.841  -5.500  0.00  0.00     0.271 A 
HETATM   12  O   UNK N   1      29.607  21.464  -6.623  0.00  0.00    -0.266 OA
HETATM   13  H   UNK N   1      28.272  23.050  -5.324  0.00  0.00     0.190 HD
ENDROOT
BRANCH   9  14
HETATM   14  C   UNK N   1      28.354  24.136  -3.096  0.00  0.00     0.157 C 
BRANCH  14  15
HETATM   15  C   UNK N   1      26.911  23.964  -3.552  0.00  0.00     0.060 C 
BRANCH  15  16
HETATM   16  C   UNK N   1      26.317  25.237  -4.057  0.00  0.00    -0.057 A 
HETATM   17  C   UNK N   1      25.654  25.301  -5.295  0.00  0.00     0.007 A 
HETATM   18  C   UNK N   1      25.110  26.506  -5.738  0.00  0.00     0.001 A 
HETATM   19  C   UNK N   1      25.224  27.652  -4.948  0.00  0.00     0.000 A 
HETATM   20  C   UNK N   1      25.883  27.592  -3.716  0.00  0.00     0.001 A 
HETATM   21  C   UNK N   1      26.428  26.386  -3.272  0.00  0.00     0.007 A 
ENDBRANCH  15  16
ENDBRANCH  14  15
ENDBRANCH   9  14
TORSDOF 3
ENDMDL
MODEL 3
REMARK VINA RESULT:      -7.1     17.235     18.820
REMARK  3 active torsions:
REMARK  status: ('A' for Active; 'I' for Inactive)
REMARK    1  A    between atoms: N_9  and  C_13 
REMARK    2  A    between atoms: C_13  and  C_14 
REMARK    3  A    between atoms: C_14  and  C_15 
ROOT
HETATM    1  C   UNK N   1      30.328  22.822  -2.312  0.00  0.00     0.001 A 
HETATM    2  C   UNK N   1      29.104  23.477  -2.454  0.00  0.00     0.018 A 
HETATM    3  C   UNK N   1      28.515  23.609  -3.721  0.00  0.00     0.049 A 
HETATM    4  C   UNK N   1      29.166  23.079  -4.850  0.00  0.00     0.049 A 
HETATM    5  C   UNK N   1      30.396  22.423  -4.700  0.00  0.00     0.018 A 
HETATM    6  C   UNK N   1      30.974  22.296  -3.434  0.00  0.00     0.001 A 
HETATM    7  C   UNK N   1      27.288  24.262  -3.882  0.00  0.00     0.273 A 
HETATM    8  O   UNK N   1      26.724  24.722  -2.901  0.00  0.00    -0.266 OA
HETATM    9  N   UNK N   1      26.732  24.376  -5.152  0.00  0.00    -0.254 N 
HETATM   10  N   UNK N   1      27.371  23.864  -6.207  0.00  0.00    -0.261 N 
HETATM   11  C   UNK N   1      28.569  23.218  -6.103  0.00  0.00     0.271 A 
HETATM   12  O   UNK N   1      29.101  22.773  -7.104  0.00  0.00    -0.266 OA
HETATM   13  H   UNK N   1      26.960  23.955  -7.098  0.00  0.00     0.190 HD
ENDROOT
BRANCH   9  14
HETATM   14  C   UNK N   1      25.456  25.035  -5.448  0.00  0.00     0.157 C 
BRANCH  14  15
HETATM   15  C   UNK N   1      25.504  26.242  -6.376  0.00  0.00     0.060 C 
BRANCH  15  16
HETATM   16  C   UNK N   1      26.073  27.450  -5.711  0.00  0.00    -0.057 A 
HETATM   17  C   UNK N   1      25.571  27.926  -4.487  0.00  0.00     0.007 A 
HETATM   18  C   UNK N   1      26.125  29.058  -3.893  0.00  0.00     0.001 A 
HETATM   19  C   UNK N   1      27.185  29.722  -4.516  0.00  0.00     0.000 A 
HETATM   20  C   UNK N   1      27.688  29.252  -5.733  0.00  0.00     0.001 A 
HETATM   21  C   UNK N   1      27.132  28.118  -6.329  0.00  0.00     0.007 A 
ENDBRANCH  15  16
ENDBRANCH  14  15
ENDBRANCH   9  14
TORSDOF 3
ENDMDL
MODEL 4
REMARK VINA RESULT:      -6.9     18.764     19.596
REMARK  3 active torsions:
REMARK  status: ('A' for Active; 'I' for Inactive)
REMARK    1  A    between atoms: N_9  and  C_13 
REMARK    2  A    between atoms: C_13  and  C_14 
REMARK    3  A    between atoms: C_14  and  C_15 
ROOT
HETATM    1  C   UNK N   1      29.477  20.963  -7.248  0.00  0.00     0.001 A 
HETATM    2  C   UNK N   1      29.037  22.058  -6.502  0.00  0.00     0.018 A 
HETATM    3  C   UNK N   1      27.736  22.556  -6.677  0.00  0.00     0.049 A 
HETATM    4  C   UNK N   1      26.877  21.945  -7.609  0.00  0.00     0.049 A 
HETATM    5  C   UNK N   1      27.327  20.846  -8.355  0.00  0.00     0.018 A 
HETATM    6  C   UNK N   1      28.622  20.358  -8.173  0.00  0.00     0.001 A 
HETATM    7  C   UNK N   1      27.278  23.652  -5.939  0.00  0.00     0.273 A 
HETATM    8  O   UNK N   1      28.025  24.181  -5.130  0.00  0.00    -0.266 OA
HETATM    9  N   UNK N   1      25.983  24.121  -6.137  0.00  0.00    -0.254 N 
HETATM   10  N   UNK N   1      25.188  23.523  -7.028  0.00  0.00    -0.261 N 
HETATM   11  C   UNK N   1      25.588  22.451  -7.772  0.00  0.00     0.271 A 
HETATM   12  O   UNK N   1      24.813  21.951  -8.569  0.00  0.00    -0.266 OA
HETATM   13  H   UNK N   1      24.274  23.871  -7.153  0.00  0.00     0.190 HD
ENDROOT
BRANCH   9  14
HETATM   14  C   UNK N   1      25.390  25.258  -5.426  0.00  0.00     0.157 C 
BRANCH  14  15
HETATM   15  C   UNK N   1      25.263  26.563  -6.200  0.00  0.00     0.060 C 
BRANCH  15  16
HETATM   16  C   UNK N   1      25.987  27.689  -5.542  0.00  0.00    -0.057 A 
HETATM   17  C   UNK N   1      25.613  28.167  -4.274  0.00  0.00     0.007 A 
HETATM   18  C   UNK N   1      26.311  29.221  -3.687  0.00  0.00     0.001 A 
HETATM   19  C   UNK N   1      27.386  29.805  -4.363  0.00  0.00     0.000 A 
HETATM   20  C   UNK N   1      27.761  29.333  -5.624  0.00  0.00     0.001 A 
HETATM   21  C   UNK N   1      27.062  28.276  -6.212  0.00  0.00     0.007 A 
ENDBRANCH  15  16
ENDBRANCH  14  15
ENDBRANCH   9  14
TORSDOF 3
ENDMDL
MODEL 5
REMARK VINA RESULT:      -6.9     14.374     15.481
REMARK  3 active torsions:
REMARK  status: ('A' for Active; 'I' for Inactive)
REMARK    1  A    between atoms: N_9  and  C_13 
REMARK    2  A    between atoms: C_13  and  C_14 
REMARK    3  A    between atoms: C_14  and  C_15 
ROOT
HETATM    1  C   UNK N   1      34.268  10.905  15.167  0.00  0.00     0.001 A 
HETATM    2  C   UNK N   1      34.363  11.546  13.931  0.00  0.00     0.018 A 
HETATM    3  C   UNK N   1      35.174  12.682  13.783  0.00  0.00     0.049 A 
HETATM    4  C   UNK N   1      35.892  13.172  14.889  0.00  0.00     0.049 A 
HETATM    5  C   UNK N   1      35.791  12.524  16.128  0.00  0.00     0.018 A 
HETATM    6  C   UNK N   1      34.982  11.394  16.265  0.00  0.00     0.001 A 
HETATM    7  C   UNK N   1      35.280  13.336  12.551  0.00  0.00     0.273 A 
HETATM    8  O   UNK N   1      34.656  12.909  11.592  0.00  0.00    -0.266 OA
HETATM    9  N   UNK N   1      36.093  14.460  12.439  0.00  0.00    -0.254 N 
HETATM   10  N   UNK N   1      36.765  14.905  13.504  0.00  0.00    -0.261 N 
HETATM   11  C   UNK N   1      36.693  14.302  14.727  0.00  0.00     0.271 A 
HETATM   12  O   UNK N   1      37.331  14.758  15.660  0.00  0.00    -0.266 OA
HETATM   13  H   UNK N   1      37.335  15.703  13.403  0.00  0.00     0.190 HD
ENDROOT
BRANCH   9  14
HETATM   14  C   UNK N   1      36.287  15.229  11.206  0.00  0.00     0.157 C 
BRANCH  14  15
HETATM   15  C   UNK N   1      35.286  16.342  10.925  0.00  0.00     0.060 C 
BRANCH  15  16
HETATM   16  C   UNK N   1      34.937  16.444   9.478  0.00  0.00    -0.057 A 
HETATM   17  C   UNK N   1      34.477  17.646   8.912  0.00  0.00     0.007 A 
HETATM   18  C   UNK N   1      34.161  17.708   7.556  0.00  0.00     0.001 A 
HETATM   19  C   UNK N   1      34.302  16.570   6.757  0.00  0.00     0.000 A 
HETATM   20  C   UNK N   1      34.759  15.373   7.315  0.00  0.00     0.001 A 
HETATM   21  C   UNK N   1      35.076  15.311   8.674  0.00  0.00     0.007 A 
ENDBRANCH  15  16
ENDBRANCH  14  15
ENDBRANCH   9  14
TORSDOF 3
ENDMDL
MODEL 6
REMARK VINA RESULT:      -6.8     17.288     18.416
REMARK  3 active torsions:
REMARK  status: ('A' for Active; 'I' for Inactive)
REMARK    1  A    between atoms: N_9  and  C_13 
REMARK    2  A    between atoms: C_13  and  C_14 
REMARK    3  A    between atoms: C_14  and  C_15 
ROOT
HETATM    1  C   UNK N   1      32.324  20.387  -5.076  0.00  0.00     0.001 A 
HETATM    2  C   UNK N   1      31.183  21.019  -5.572  0.00  0.00     0.018 A 
HETATM    3  C   UNK N   1      30.438  21.880  -4.752  0.00  0.00     0.049 A 
HETATM    4  C   UNK N   1      30.846  22.104  -3.425  0.00  0.00     0.049 A 
HETATM    5  C   UNK N   1      31.994  21.466  -2.933  0.00  0.00     0.018 A 
HETATM    6  C   UNK N   1      32.729  20.611  -3.757  0.00  0.00     0.001 A 
HETATM    7  C   UNK N   1      29.291  22.522  -5.234  0.00  0.00     0.273 A 
HETATM    8  O   UNK N   1      28.938  22.327  -6.386  0.00  0.00    -0.266 OA
HETATM    9  N   UNK N   1      28.575  23.369  -4.394  0.00  0.00    -0.254 N 
HETATM   10  N   UNK N   1      28.984  23.565  -3.138  0.00  0.00    -0.261 N 
HETATM   11  C   UNK N   1      30.096  22.962  -2.622  0.00  0.00     0.271 A 
HETATM   12  O   UNK N   1      30.416  23.182  -1.467  0.00  0.00    -0.266 OA
HETATM   13  H   UNK N   1      28.463  24.169  -2.560  0.00  0.00     0.190 HD
ENDROOT
BRANCH   9  14
HETATM   14  C   UNK N   1      27.362  24.096  -4.781  0.00  0.00     0.157 C 
BRANCH  14  15
HETATM   15  C   UNK N   1      26.714  24.969  -3.715  0.00  0.00     0.060 C 
BRANCH  15  16
HETATM   16  C   UNK N   1      26.677  26.410  -4.102  0.00  0.00    -0.057 A 
HETATM   17  C   UNK N   1      27.098  26.845  -5.371  0.00  0.00     0.007 A 
HETATM   18  C   UNK N   1      27.050  28.198  -5.701  0.00  0.00     0.001 A 
HETATM   19  C   UNK N   1      26.582  29.125  -4.766  0.00  0.00     0.000 A 
HETATM   20  C   UNK N   1      26.162  28.697  -3.504  0.00  0.00     0.001 A 
HETATM   21  C   UNK N   1      26.210  27.341  -3.173  0.00  0.00     0.007 A 
ENDBRANCH  15  16
ENDBRANCH  14  15
ENDBRANCH   9  14
TORSDOF 3
ENDMDL
MODEL 7
REMARK VINA RESULT:      -6.7     17.051     18.302
REMARK  3 active torsions:
REMARK  status: ('A' for Active; 'I' for Inactive)
REMARK    1  A    between atoms: N_9  and  C_13 
REMARK    2  A    between atoms: C_13  and  C_14 
REMARK    3  A    between atoms: C_14  and  C_15 
ROOT
HETATM    1  C   UNK N   1      35.931  11.145  15.785  0.00  0.00     0.001 A 
HETATM    2  C   UNK N   1      35.656  10.319  16.876  0.00  0.00     0.018 A 
HETATM    3  C   UNK N   1      35.317  10.877  18.118  0.00  0.00     0.049 A 
HETATM    4  C   UNK N   1      35.256  12.275  18.259  0.00  0.00     0.049 A 
HETATM    5  C   UNK N   1      35.534  13.099  17.159  0.00  0.00     0.018 A 
HETATM    6  C   UNK N   1      35.870  12.534  15.927  0.00  0.00     0.001 A 
HETATM    7  C   UNK N   1      35.038  10.064  19.222  0.00  0.00     0.273 A 
HETATM    8  O   UNK N   1      35.092   8.850  19.098  0.00  0.00    -0.266 OA
HETATM    9  N   UNK N   1      34.705  10.650  20.439  0.00  0.00    -0.254 N 
HETATM   10  N   UNK N   1      34.654  11.980  20.547  0.00  0.00    -0.261 N 
HETATM   11  C   UNK N   1      34.918  12.815  19.500  0.00  0.00     0.271 A 
HETATM   12  O   UNK N   1      34.854  14.022  19.663  0.00  0.00    -0.266 OA
HETATM   13  H   UNK N   1      34.416  12.374  21.418  0.00  0.00     0.190 HD
ENDROOT
BRANCH   9  14
HETATM   14  C   UNK N   1      34.393   9.907  21.664  0.00  0.00     0.157 C 
BRANCH  14  15
HETATM   15  C   UNK N   1      32.942   9.919  22.125  0.00  0.00     0.060 C 
BRANCH  15  16
HETATM   16  C   UNK N   1      32.170   8.750  21.611  0.00  0.00    -0.057 A 
HETATM   17  C   UNK N   1      31.457   8.810  20.400  0.00  0.00     0.007 A 
HETATM   18  C   UNK N   1      30.747   7.699  19.948  0.00  0.00     0.001 A 
HETATM   19  C   UNK N   1      30.743   6.523  20.702  0.00  0.00     0.000 A 
HETATM   20  C   UNK N   1      31.450   6.459  21.906  0.00  0.00     0.001 A 
HETATM   21  C   UNK N   1      32.162   7.572  22.359  0.00  0.00     0.007 A 
ENDBRANCH  15  16
ENDBRANCH  14  15
ENDBRANCH   9  14
TORSDOF 3
ENDMDL
MODEL 8
REMARK VINA RESULT:      -6.6     12.274     15.033
REMARK  3 active torsions:
REMARK  status: ('A' for Active; 'I' for Inactive)
REMARK    1  A    between atoms: N_9  and  C_13 
REMARK    2  A    between atoms: C_13  and  C_14 
REMARK    3  A    between atoms: C_14  and  C_15 
ROOT
HETATM    1  C   UNK N   1      31.632  15.962   7.806  0.00  0.00     0.001 A 
HETATM    2  C   UNK N   1      32.334  14.893   8.365  0.00  0.00     0.018 A 
HETATM    3  C   UNK N   1      33.508  15.123   9.098  0.00  0.00     0.049 A 
HETATM    4  C   UNK N   1      33.975  16.439   9.268  0.00  0.00     0.049 A 
HETATM    5  C   UNK N   1      33.265  17.508   8.704  0.00  0.00     0.018 A 
HETATM    6  C   UNK N   1      32.098  17.269   7.976  0.00  0.00     0.001 A 
HETATM    7  C   UNK N   1      34.224  14.063   9.665  0.00  0.00     0.273 A 
HETATM    8  O   UNK N   1      33.817  12.921   9.517  0.00  0.00    -0.266 OA
HETATM    9  N   UNK N   1      35.384  14.326  10.387  0.00  0.00    -0.254 N 
HETATM   10  N   UNK N   1      35.806  15.585  10.533  0.00  0.00    -0.261 N 
HETATM   11  C   UNK N   1      35.143  16.653  10.000  0.00  0.00     0.271 A 
HETATM   12  O   UNK N   1      35.581  17.777  10.170  0.00  0.00    -0.266 OA
HETATM   13  H   UNK N   1      36.630  15.750  11.048  0.00  0.00     0.190 HD
ENDROOT
BRANCH   9  14
HETATM   14  C   UNK N   1      36.219  13.304  11.026  0.00  0.00     0.157 C 
BRANCH  14  15
HETATM   15  C   UNK N   1      36.360  13.381  12.540  0.00  0.00     0.060 C 
BRANCH  15  16
HETATM   16  C   UNK N   1      35.420  12.464  13.249  0.00  0.00    -0.057 A 
HETATM   17  C   UNK N   1      34.827  11.367  12.599  0.00  0.00     0.007 A 
HETATM   18  C   UNK N   1      33.953  10.531  13.290  0.00  0.00     0.001 A 
HETATM   19  C   UNK N   1      33.664  10.784  14.633  0.00  0.00     0.000 A 
HETATM   20  C   UNK N   1      34.251  11.874  15.283  0.00  0.00     0.001 A 
HETATM   21  C   UNK N   1      35.127  12.712  14.591  0.00  0.00     0.007 A 
ENDBRANCH  15  16
ENDBRANCH  14  15
ENDBRANCH   9  14
TORSDOF 3
ENDMDL
MODEL 9
REMARK VINA RESULT:      -6.4     18.140     20.754
REMARK  3 active torsions:
REMARK  status: ('A' for Active; 'I' for Inactive)
REMARK    1  A    between atoms: N_9  and  C_13 
REMARK    2  A    between atoms: C_13  and  C_14 
REMARK    3  A    between atoms: C_14  and  C_15 
ROOT
HETATM    1  C   UNK N   1      28.718  30.658  -6.087  0.00  0.00     0.001 A 
HETATM    2  C   UNK N   1      28.377  29.456  -6.708  0.00  0.00     0.018 A 
HETATM    3  C   UNK N   1      27.450  28.588  -6.111  0.00  0.00     0.049 A 
HETATM    4  C   UNK N   1      26.864  28.937  -4.880  0.00  0.00     0.049 A 
HETATM    5  C   UNK N   1      27.211  30.146  -4.261  0.00  0.00     0.018 A 
HETATM    6  C   UNK N   1      28.135  31.002  -4.864  0.00  0.00     0.001 A 
HETATM    7  C   UNK N   1      27.097  27.379  -6.721  0.00  0.00     0.273 A 
HETATM    8  O   UNK N   1      27.606  27.079  -7.789  0.00  0.00    -0.266 OA
HETATM    9  N   UNK N   1      26.174  26.542  -6.101  0.00  0.00    -0.254 N 
HETATM   10  N   UNK N   1      25.632  26.896  -4.933  0.00  0.00    -0.261 N 
HETATM   11  C   UNK N   1      25.944  28.064  -4.299  0.00  0.00     0.271 A 
HETATM   12  O   UNK N   1      25.415  28.330  -3.233  0.00  0.00    -0.266 OA
HETATM   13  H   UNK N   1      24.981  26.289  -4.511  0.00  0.00     0.190 HD
ENDROOT
BRANCH   9  14
HETATM   14  C   UNK N   1      25.724  25.254  -6.638  0.00  0.00     0.157 C 
BRANCH  14  15
HETATM   15  C   UNK N   1      25.792  24.057  -5.701  0.00  0.00     0.060 C 
BRANCH  15  16
HETATM   16  C   UNK N   1      27.184  23.765  -5.247  0.00  0.00    -0.057 A 
HETATM   17  C   UNK N   1      28.122  23.146  -6.093  0.00  0.00     0.007 A 
HETATM   18  C   UNK N   1      29.413  22.888  -5.638  0.00  0.00     0.001 A 
HETATM   19  C   UNK N   1      29.777  23.245  -4.337  0.00  0.00     0.000 A 
HETATM   20  C   UNK N   1      28.847  23.859  -3.493  0.00  0.00     0.001 A 
HETATM   21  C   UNK N   1      27.553  24.119  -3.949  0.00  0.00     0.007 A 
ENDBRANCH  15  16
ENDBRANCH  14  15
ENDBRANCH   9  14
TORSDOF 3
ENDMDL
