MODEL 1
REMARK VINA RESULT:      -8.0      0.000      0.000
REMARK  6 active torsions:
REMARK  status: ('A' for Active; 'I' for Inactive)
REMARK    1  A    between atoms: C_1  and  N_2 
REMARK       I    between atoms: C_6  and  N_22 
REMARK    2  A    between atoms: C_7  and  N_14 
REMARK    3  A    between atoms: N_14  and  C_15 
REMARK    4  A    between atoms: C_15  and  C_21 
REMARK    5  A    between atoms: C_23  and  N_22 
REMARK    6  A    between atoms: C_24  and  N_29 
ROOT
HETATM    1  N   UNK N   1      23.553  13.807   8.005  0.00  0.00    -0.322 N 
HETATM    2  C   UNK N   1      23.637  14.825   7.132  0.00  0.00     0.155 A 
HETATM    3  N   UNK N   1      22.637  15.620   6.674  0.00  0.00    -0.174 N 
ATOM      4  HN  UNK N   1      21.692  15.537   7.047  1.00  0.00     0.186 HD
HETATM    5  C   UNK N   1      22.929  16.537   5.700  0.00  0.00     0.681 A 
HETATM    6  C   UNK N   1      25.220  15.846   5.686  0.00  0.00     0.148 A 
HETATM    7  N   UNK N   1      24.215  16.649   5.221  0.00  0.00    -0.175 N 
ATOM      8  HN  UNK N   1      24.423  17.344   4.505  1.00  0.00     0.186 HD
HETATM    9  C   UNK N   1      24.894  14.914   6.664  0.00  0.00     0.123 A 
HETATM   10  N   UNK N   1      25.662  13.971   7.246  0.00  0.00    -0.346 N 
ATOM     11  HN  UNK N   1      26.658  13.804   7.106  1.00  0.00     0.167 HD
HETATM   12  C   UNK N   1      24.810  13.295   8.061  0.00  0.00     0.185 A 
HETATM   13  N   UNK N   1      21.858  17.258   5.103  0.00  0.00    -0.221 N 
HETATM   14  H   UNK N   1      21.093  17.477   5.684  0.00  0.00     0.178 HD
ENDROOT
BRANCH  13  15
HETATM   15  C   UNK N   1      21.778  17.705   3.719  0.00  0.00     0.099 C 
HETATM   16  C   UNK N   1      20.386  17.398   3.148  0.00  0.00     0.028 C 
HETATM   17  C   UNK N   1      20.175  18.200   1.868  0.00  0.00     0.026 C 
HETATM   18  C   UNK N   1      20.089  19.698   2.205  0.00  0.00     0.074 C 
HETATM   19  C   UNK N   1      20.988  20.093   3.391  0.00  0.00     0.026 C 
HETATM   20  C   UNK N   1      22.206  19.175   3.485  0.00  0.00     0.028 C 
BRANCH  18  21
HETATM   21  N   UNK N   1      20.455  20.473   1.034  0.00  0.00    -0.426 N 
HETATM   22  H   UNK N   1      21.202  20.397   0.343  0.00  0.00     0.150 HD
HETATM   23  H   UNK N   1      19.832  21.262   0.865  0.00  0.00     0.150 HD
ENDBRANCH  18  21
ENDBRANCH  13  15
BRANCH   6  24
HETATM   24  N   UNK N   1      26.505  15.896   5.089  0.00  0.00    -0.370 N 
HETATM   25  H   UNK N   1      26.668  15.444   4.229  0.00  0.00     0.161 HD
BRANCH  24  26
HETATM   26  C   UNK N   1      27.575  16.613   5.743  0.00  0.00     0.160 C 
BRANCH  26  27
HETATM   27  C   UNK N   1      27.473  18.085   5.579  0.00  0.00    -0.041 A 
HETATM   28  C   UNK N   1      27.276  18.663   4.319  0.00  0.00     0.009 A 
HETATM   29  C   UNK N   1      27.245  20.055   4.188  0.00  0.00     0.001 A 
HETATM   30  C   UNK N   1      27.428  20.869   5.311  0.00  0.00     0.000 A 
HETATM   31  C   UNK N   1      27.635  20.292   6.567  0.00  0.00     0.001 A 
HETATM   32  C   UNK N   1      27.659  18.902   6.700  0.00  0.00     0.009 A 
ENDBRANCH  26  27
ENDBRANCH  24  26
ENDBRANCH   6  24
BRANCH   1  33
HETATM   33  C   UNK N   1      22.391  13.236   8.691  0.00  0.00     0.092 C 
HETATM   34  C   UNK N   1      22.749  12.526   9.970  0.00  0.00     0.026 C 
HETATM   35  C   UNK N   1      21.408  12.355  10.652  0.00  0.00     0.002 C 
HETATM   36  C   UNK N   1      20.548  13.524  10.185  0.00  0.00     0.002 C 
HETATM   37  C   UNK N   1      21.342  14.242   9.108  0.00  0.00     0.026 C 
ENDBRANCH   1  33
TORSDOF 6
ENDMDL
MODEL 2
REMARK VINA RESULT:      -7.9     12.014     14.736
REMARK  6 active torsions:
REMARK  status: ('A' for Active; 'I' for Inactive)
REMARK    1  A    between atoms: C_1  and  N_2 
REMARK       I    between atoms: C_6  and  N_22 
REMARK    2  A    between atoms: C_7  and  N_14 
REMARK    3  A    between atoms: N_14  and  C_15 
REMARK    4  A    between atoms: C_15  and  C_21 
REMARK    5  A    between atoms: C_23  and  N_22 
REMARK    6  A    between atoms: C_24  and  N_29 
ROOT
HETATM    1  N   UNK N   1      35.662  13.286  15.931  0.00  0.00    -0.322 N 
HETATM    2  C   UNK N   1      35.437  12.933  14.654  0.00  0.00     0.155 A 
HETATM    3  N   UNK N   1      34.588  11.985  14.184  0.00  0.00    -0.174 N 
ATOM      4  HN  UNK N   1      33.961  11.487  14.815  1.00  0.00     0.186 HD
HETATM    5  C   UNK N   1      34.594  11.714  12.842  0.00  0.00     0.681 A 
HETATM    6  C   UNK N   1      36.288  13.364  12.479  0.00  0.00     0.148 A 
HETATM    7  N   UNK N   1      35.434  12.408  12.001  0.00  0.00    -0.175 N 
ATOM      8  HN  UNK N   1      35.419  12.206  11.002  1.00  0.00     0.186 HD
HETATM    9  C   UNK N   1      36.273  13.610  13.847  0.00  0.00     0.123 A 
HETATM   10  N   UNK N   1      37.040  14.440  14.582  0.00  0.00    -0.346 N 
ATOM     11  HN  UNK N   1      37.751  15.090  14.249  1.00  0.00     0.167 HD
HETATM   12  C   UNK N   1      36.651  14.214  15.865  0.00  0.00     0.185 A 
HETATM   13  N   UNK N   1      33.826  10.613  12.369  0.00  0.00    -0.221 N 
HETATM   14  H   UNK N   1      32.982  10.425  12.841  0.00  0.00     0.178 HD
ENDROOT
BRANCH  13  15
HETATM   15  C   UNK N   1      34.162   9.737  11.254  0.00  0.00     0.099 C 
HETATM   16  C   UNK N   1      34.473   8.325  11.772  0.00  0.00     0.028 C 
HETATM   17  C   UNK N   1      34.435   7.339  10.610  0.00  0.00     0.026 C 
HETATM   18  C   UNK N   1      32.994   7.208  10.090  0.00  0.00     0.074 C 
HETATM   19  C   UNK N   1      32.202   8.525  10.195  0.00  0.00     0.026 C 
HETATM   20  C   UNK N   1      33.132   9.733  10.097  0.00  0.00     0.028 C 
BRANCH  18  21
HETATM   21  N   UNK N   1      33.023   6.763   8.709  0.00  0.00    -0.426 N 
HETATM   22  H   UNK N   1      33.574   7.031   7.893  0.00  0.00     0.150 HD
HETATM   23  H   UNK N   1      32.349   6.024   8.511  0.00  0.00     0.150 HD
ENDBRANCH  18  21
ENDBRANCH  13  15
BRANCH   6  24
HETATM   24  N   UNK N   1      37.229  13.975  11.612  0.00  0.00    -0.370 N 
HETATM   25  H   UNK N   1      37.984  14.485  11.985  0.00  0.00     0.161 HD
BRANCH  24  26
HETATM   26  C   UNK N   1      37.078  13.846  10.181  0.00  0.00     0.160 C 
BRANCH  26  27
HETATM   27  C   UNK N   1      36.166  14.864   9.599  0.00  0.00    -0.041 A 
HETATM   28  C   UNK N   1      35.784  15.997  10.328  0.00  0.00     0.009 A 
HETATM   29  C   UNK N   1      34.876  16.906   9.776  0.00  0.00     0.001 A 
HETATM   30  C   UNK N   1      34.337  16.675   8.506  0.00  0.00     0.000 A 
HETATM   31  C   UNK N   1      34.711  15.539   7.783  0.00  0.00     0.001 A 
HETATM   32  C   UNK N   1      35.623  14.634   8.331  0.00  0.00     0.009 A 
ENDBRANCH  26  27
ENDBRANCH  24  26
ENDBRANCH   6  24
BRANCH   1  33
HETATM   33  C   UNK N   1      35.101  12.755  17.177  0.00  0.00     0.092 C 
HETATM   34  C   UNK N   1      35.700  11.434  17.579  0.00  0.00     0.026 C 
HETATM   35  C   UNK N   1      35.252  11.281  19.018  0.00  0.00     0.002 C 
HETATM   36  C   UNK N   1      35.110  12.697  19.566  0.00  0.00     0.002 C 
HETATM   37  C   UNK N   1      35.300  13.637  18.389  0.00  0.00     0.026 C 
ENDBRANCH   1  33
TORSDOF 6
ENDMDL
MODEL 3
REMARK VINA RESULT:      -7.9      7.600     10.528
REMARK  6 active torsions:
REMARK  status: ('A' for Active; 'I' for Inactive)
REMARK    1  A    between atoms: C_1  and  N_2 
REMARK       I    between atoms: C_6  and  N_22 
REMARK    2  A    between atoms: C_7  and  N_14 
REMARK    3  A    between atoms: N_14  and  C_15 
REMARK    4  A    between atoms: C_15  and  C_21 
REMARK    5  A    between atoms: C_23  and  N_22 
REMARK    6  A    between atoms: C_24  and  N_29 
ROOT
HETATM    1  N   UNK N   1      35.329  14.025  10.408  0.00  0.00    -0.322 N 
HETATM    2  C   UNK N   1      34.819  14.960   9.589  0.00  0.00     0.155 A 
HETATM    3  N   UNK N   1      33.891  15.907   9.874  0.00  0.00    -0.174 N 
ATOM      4  HN  UNK N   1      33.543  16.028  10.825  1.00  0.00     0.186 HD
HETATM    5  C   UNK N   1      33.433  16.697   8.854  0.00  0.00     0.681 A 
HETATM    6  C   UNK N   1      34.863  15.578   7.296  0.00  0.00     0.148 A 
HETATM    7  N   UNK N   1      33.926  16.533   7.579  0.00  0.00    -0.175 N 
ATOM      8  HN  UNK N   1      33.587  17.137   6.830  1.00  0.00     0.186 HD
HETATM    9  C   UNK N   1      35.301  14.779   8.346  0.00  0.00     0.123 A 
HETATM   10  N   UNK N   1      36.157  13.738   8.339  0.00  0.00    -0.346 N 
ATOM     11  HN  UNK N   1      36.690  13.375   7.549  1.00  0.00     0.167 HD
HETATM   12  C   UNK N   1      36.150  13.283   9.620  0.00  0.00     0.185 A 
HETATM   13  N   UNK N   1      32.346  17.579   9.113  0.00  0.00    -0.221 N 
HETATM   14  H   UNK N   1      32.300  17.972  10.015  0.00  0.00     0.178 HD
ENDROOT
BRANCH  13  15
HETATM   15  C   UNK N   1      31.296  17.958   8.179  0.00  0.00     0.099 C 
HETATM   16  C   UNK N   1      30.834  16.730   7.381  0.00  0.00     0.028 C 
HETATM   17  C   UNK N   1      29.500  17.034   6.708  0.00  0.00     0.026 C 
HETATM   18  C   UNK N   1      28.405  17.186   7.776  0.00  0.00     0.074 C 
HETATM   19  C   UNK N   1      28.930  17.809   9.083  0.00  0.00     0.026 C 
HETATM   20  C   UNK N   1      30.114  18.737   8.809  0.00  0.00     0.028 C 
BRANCH  18  21
HETATM   21  N   UNK N   1      27.327  18.000   7.244  0.00  0.00    -0.426 N 
HETATM   22  H   UNK N   1      26.670  17.882   6.472  0.00  0.00     0.150 HD
HETATM   23  H   UNK N   1      27.200  18.876   7.749  0.00  0.00     0.150 HD
ENDBRANCH  18  21
ENDBRANCH  13  15
BRANCH   6  24
HETATM   24  N   UNK N   1      35.262  15.347   5.955  0.00  0.00    -0.370 N 
HETATM   25  H   UNK N   1      36.075  15.776   5.601  0.00  0.00     0.161 HD
BRANCH  24  26
HETATM   26  C   UNK N   1      34.475  14.480   5.110  0.00  0.00     0.160 C 
BRANCH  26  27
HETATM   27  C   UNK N   1      33.291  15.158   4.524  0.00  0.00    -0.041 A 
HETATM   28  C   UNK N   1      32.060  14.499   4.410  0.00  0.00     0.009 A 
HETATM   29  C   UNK N   1      30.980  15.143   3.798  0.00  0.00     0.001 A 
HETATM   30  C   UNK N   1      31.133  16.436   3.286  0.00  0.00     0.000 A 
HETATM   31  C   UNK N   1      32.365  17.089   3.391  0.00  0.00     0.001 A 
HETATM   32  C   UNK N   1      33.442  16.449   4.007  0.00  0.00     0.009 A 
ENDBRANCH  26  27
ENDBRANCH  24  26
ENDBRANCH   6  24
BRANCH   1  33
HETATM   33  C   UNK N   1      35.031  13.725  11.812  0.00  0.00     0.092 C 
HETATM   34  C   UNK N   1      35.065  12.253  12.122  0.00  0.00     0.026 C 
HETATM   35  C   UNK N   1      35.094  12.224  13.636  0.00  0.00     0.002 C 
HETATM   36  C   UNK N   1      35.792  13.510  14.067  0.00  0.00     0.002 C 
HETATM   37  C   UNK N   1      35.990  14.337  12.808  0.00  0.00     0.026 C 
ENDBRANCH   1  33
TORSDOF 6
ENDMDL
MODEL 4
REMARK VINA RESULT:      -7.8     11.028     14.938
REMARK  6 active torsions:
REMARK  status: ('A' for Active; 'I' for Inactive)
REMARK    1  A    between atoms: C_1  and  N_2 
REMARK       I    between atoms: C_6  and  N_22 
REMARK    2  A    between atoms: C_7  and  N_14 
REMARK    3  A    between atoms: N_14  and  C_15 
REMARK    4  A    between atoms: C_15  and  C_21 
REMARK    5  A    between atoms: C_23  and  N_22 
REMARK    6  A    between atoms: C_24  and  N_29 
ROOT
HETATM    1  N   UNK N   1      35.217  15.719   9.940  0.00  0.00    -0.322 N 
HETATM    2  C   UNK N   1      35.627  14.469  10.212  0.00  0.00     0.155 A 
HETATM    3  N   UNK N   1      35.461  13.351   9.461  0.00  0.00    -0.174 N 
ATOM      4  HN  UNK N   1      35.044  13.403   8.533  1.00  0.00     0.186 HD
HETATM    5  C   UNK N   1      35.868  12.152   9.981  0.00  0.00     0.681 A 
HETATM    6  C   UNK N   1      36.614  13.230  11.982  0.00  0.00     0.148 A 
HETATM    7  N   UNK N   1      36.447  12.101  11.229  0.00  0.00    -0.175 N 
ATOM      8  HN  UNK N   1      36.758  11.203  11.600  1.00  0.00     0.186 HD
HETATM    9  C   UNK N   1      36.179  14.433  11.438  0.00  0.00     0.123 A 
HETATM   10  N   UNK N   1      36.165  15.668  11.978  0.00  0.00    -0.346 N 
ATOM     11  HN  UNK N   1      36.528  15.956  12.885  1.00  0.00     0.167 HD
HETATM   12  C   UNK N   1      35.558  16.442  11.039  0.00  0.00     0.185 A 
HETATM   13  N   UNK N   1      35.550  10.961   9.270  0.00  0.00    -0.221 N 
HETATM   14  H   UNK N   1      35.538  11.021   8.287  0.00  0.00     0.178 HD
ENDROOT
BRANCH  13  15
HETATM   15  C   UNK N   1      35.240   9.661   9.850  0.00  0.00     0.099 C 
HETATM   16  C   UNK N   1      33.790   9.644  10.356  0.00  0.00     0.028 C 
HETATM   17  C   UNK N   1      33.353   8.203  10.593  0.00  0.00     0.026 C 
HETATM   18  C   UNK N   1      33.260   7.463   9.248  0.00  0.00     0.074 C 
HETATM   19  C   UNK N   1      34.314   7.941   8.233  0.00  0.00     0.026 C 
HETATM   20  C   UNK N   1      35.568   8.449   8.942  0.00  0.00     0.028 C 
BRANCH  18  21
HETATM   21  N   UNK N   1      33.409   6.037   9.476  0.00  0.00    -0.426 N 
HETATM   22  H   UNK N   1      33.982   5.311   9.045  0.00  0.00     0.150 HD
HETATM   23  H   UNK N   1      32.815   5.687  10.227  0.00  0.00     0.150 HD
ENDBRANCH  18  21
ENDBRANCH  13  15
BRANCH   6  24
HETATM   24  N   UNK N   1      37.097  13.134  13.312  0.00  0.00    -0.370 N 
HETATM   25  H   UNK N   1      38.041  13.336  13.510  0.00  0.00     0.161 HD
BRANCH  24  26
HETATM   26  C   UNK N   1      36.203  12.742  14.376  0.00  0.00     0.160 C 
BRANCH  26  27
HETATM   27  C   UNK N   1      36.300  13.621  15.570  0.00  0.00    -0.041 A 
HETATM   28  C   UNK N   1      35.505  13.398  16.700  0.00  0.00     0.009 A 
HETATM   29  C   UNK N   1      35.575  14.278  17.785  0.00  0.00     0.001 A 
HETATM   30  C   UNK N   1      36.426  15.387  17.734  0.00  0.00     0.000 A 
HETATM   31  C   UNK N   1      37.213  15.614  16.601  0.00  0.00     0.001 A 
HETATM   32  C   UNK N   1      37.148  14.732  15.520  0.00  0.00     0.009 A 
ENDBRANCH  26  27
ENDBRANCH  24  26
ENDBRANCH   6  24
BRANCH   1  33
HETATM   33  C   UNK N   1      34.462  16.246   8.799  0.00  0.00     0.092 C 
HETATM   34  C   UNK N   1      32.983  15.985   8.900  0.00  0.00     0.026 C 
HETATM   35  C   UNK N   1      32.403  16.904   7.845  0.00  0.00     0.002 C 
HETATM   36  C   UNK N   1      33.361  18.086   7.746  0.00  0.00     0.002 C 
HETATM   37  C   UNK N   1      34.563  17.742   8.608  0.00  0.00     0.026 C 
ENDBRANCH   1  33
TORSDOF 6
ENDMDL
MODEL 5
REMARK VINA RESULT:      -7.7     11.180     13.809
REMARK  6 active torsions:
REMARK  status: ('A' for Active; 'I' for Inactive)
REMARK    1  A    between atoms: C_1  and  N_2 
REMARK       I    between atoms: C_6  and  N_22 
REMARK    2  A    between atoms: C_7  and  N_14 
REMARK    3  A    between atoms: N_14  and  C_15 
REMARK    4  A    between atoms: C_15  and  C_21 
REMARK    5  A    between atoms: C_23  and  N_22 
REMARK    6  A    between atoms: C_24  and  N_29 
ROOT
HETATM    1  N   UNK N   1      36.393  13.497  13.020  0.00  0.00    -0.322 N 
HETATM    2  C   UNK N   1      36.228  14.081  11.821  0.00  0.00     0.155 A 
HETATM    3  N   UNK N   1      35.403  15.107  11.495  0.00  0.00    -0.174 N 
ATOM      4  HN  UNK N   1      34.862  15.589  12.212  1.00  0.00     0.186 HD
HETATM    5  C   UNK N   1      35.315  15.479  10.180  0.00  0.00     0.681 A 
HETATM    6  C   UNK N   1      36.899  13.796   9.560  0.00  0.00     0.148 A 
HETATM    7  N   UNK N   1      36.067  14.829   9.228  0.00  0.00    -0.175 N 
ATOM      8  HN  UNK N   1      36.003  15.125   8.253  1.00  0.00     0.186 HD
HETATM    9  C   UNK N   1      36.959  13.429  10.900  0.00  0.00     0.123 A 
HETATM   10  N   UNK N   1      37.637  12.422  11.487  0.00  0.00    -0.346 N 
ATOM     11  HN  UNK N   1      38.284  11.768  11.050  1.00  0.00     0.167 HD
HETATM   12  C   UNK N   1      37.263  12.479  12.793  0.00  0.00     0.185 A 
HETATM   13  N   UNK N   1      34.334  16.442   9.812  0.00  0.00    -0.221 N 
HETATM   14  H   UNK N   1      34.133  17.145  10.471  0.00  0.00     0.178 HD
ENDROOT
BRANCH  13  15
HETATM   15  C   UNK N   1      33.598  16.492   8.555  0.00  0.00     0.099 C 
HETATM   16  C   UNK N   1      32.588  15.337   8.492  0.00  0.00     0.028 C 
HETATM   17  C   UNK N   1      31.571  15.613   7.391  0.00  0.00     0.026 C 
HETATM   18  C   UNK N   1      30.697  16.816   7.784  0.00  0.00     0.074 C 
HETATM   19  C   UNK N   1      31.470  17.871   8.597  0.00  0.00     0.026 C 
HETATM   20  C   UNK N   1      32.954  17.864   8.234  0.00  0.00     0.028 C 
BRANCH  18  21
HETATM   21  N   UNK N   1      30.154  17.424   6.583  0.00  0.00    -0.426 N 
HETATM   22  H   UNK N   1      30.270  17.242   5.586  0.00  0.00     0.150 HD
HETATM   23  H   UNK N   1      29.519  18.198   6.778  0.00  0.00     0.150 HD
ENDBRANCH  18  21
ENDBRANCH  13  15
BRANCH   6  24
HETATM   24  N   UNK N   1      37.566  13.064   8.546  0.00  0.00    -0.370 N 
HETATM   25  H   UNK N   1      37.339  12.119   8.388  0.00  0.00     0.161 HD
BRANCH  24  26
HETATM   26  C   UNK N   1      38.579  13.709   7.742  0.00  0.00     0.160 C 
BRANCH  26  27
HETATM   27  C   UNK N   1      39.878  12.988   7.757  0.00  0.00    -0.041 A 
HETATM   28  C   UNK N   1      40.154  12.011   8.721  0.00  0.00     0.009 A 
HETATM   29  C   UNK N   1      41.408  11.392   8.747  0.00  0.00     0.001 A 
HETATM   30  C   UNK N   1      42.391  11.762   7.822  0.00  0.00     0.000 A 
HETATM   31  C   UNK N   1      42.118  12.745   6.866  0.00  0.00     0.001 A 
HETATM   32  C   UNK N   1      40.864  13.358   6.836  0.00  0.00     0.009 A 
ENDBRANCH  26  27
ENDBRANCH  24  26
ENDBRANCH   6  24
BRANCH   1  33
HETATM   33  C   UNK N   1      35.733  13.757  14.303  0.00  0.00     0.092 C 
HETATM   34  C   UNK N   1      34.839  12.629  14.746  0.00  0.00     0.026 C 
HETATM   35  C   UNK N   1      34.576  12.955  16.202  0.00  0.00     0.002 C 
HETATM   36  C   UNK N   1      35.807  13.712  16.691  0.00  0.00     0.002 C 
HETATM   37  C   UNK N   1      36.672  13.966  15.469  0.00  0.00     0.026 C 
ENDBRANCH   1  33
TORSDOF 6
ENDMDL
MODEL 6
REMARK VINA RESULT:      -7.6      9.778     12.581
REMARK  6 active torsions:
REMARK  status: ('A' for Active; 'I' for Inactive)
REMARK    1  A    between atoms: C_1  and  N_2 
REMARK       I    between atoms: C_6  and  N_22 
REMARK    2  A    between atoms: C_7  and  N_14 
REMARK    3  A    between atoms: N_14  and  C_15 
REMARK    4  A    between atoms: C_15  and  C_21 
REMARK    5  A    between atoms: C_23  and  N_22 
REMARK    6  A    between atoms: C_24  and  N_29 
ROOT
HETATM    1  N   UNK N   1      36.387  13.577  12.963  0.00  0.00    -0.322 N 
HETATM    2  C   UNK N   1      36.204  14.255  11.817  0.00  0.00     0.155 A 
HETATM    3  N   UNK N   1      35.273  15.203  11.543  0.00  0.00    -0.174 N 
ATOM      4  HN  UNK N   1      34.645  15.542  12.270  1.00  0.00     0.186 HD
HETATM    5  C   UNK N   1      35.197  15.691  10.266  0.00  0.00     0.681 A 
HETATM    6  C   UNK N   1      37.004  14.280   9.580  0.00  0.00     0.148 A 
HETATM    7  N   UNK N   1      36.065  15.235   9.300  0.00  0.00    -0.175 N 
ATOM      8  HN  UNK N   1      36.008  15.616   8.356  1.00  0.00     0.186 HD
HETATM    9  C   UNK N   1      37.050  13.790  10.880  0.00  0.00     0.123 A 
HETATM   10  N   UNK N   1      37.821  12.818  11.408  0.00  0.00    -0.346 N 
ATOM     11  HN  UNK N   1      38.563  12.292  10.948  1.00  0.00     0.167 HD
HETATM   12  C   UNK N   1      37.386  12.699  12.690  0.00  0.00     0.185 A 
HETATM   13  N   UNK N   1      34.121  16.562   9.935  0.00  0.00    -0.221 N 
HETATM   14  H   UNK N   1      33.806  17.166  10.646  0.00  0.00     0.178 HD
ENDROOT
BRANCH  13  15
HETATM   15  C   UNK N   1      33.441  16.650   8.650  0.00  0.00     0.099 C 
HETATM   16  C   UNK N   1      32.517  15.438   8.462  0.00  0.00     0.028 C 
HETATM   17  C   UNK N   1      31.534  15.721   7.332  0.00  0.00     0.026 C 
HETATM   18  C   UNK N   1      30.562  16.834   7.759  0.00  0.00     0.074 C 
HETATM   19  C   UNK N   1      31.223  17.879   8.676  0.00  0.00     0.026 C 
HETATM   20  C   UNK N   1      32.718  17.995   8.387  0.00  0.00     0.028 C 
BRANCH  18  21
HETATM   21  N   UNK N   1      30.032  17.485   6.575  0.00  0.00    -0.426 N 
HETATM   22  H   UNK N   1      30.444  18.073   5.850  0.00  0.00     0.150 HD
HETATM   23  H   UNK N   1      29.036  17.320   6.439  0.00  0.00     0.150 HD
ENDBRANCH  18  21
ENDBRANCH  13  15
BRANCH   6  24
HETATM   24  N   UNK N   1      37.801  13.738   8.541  0.00  0.00    -0.370 N 
HETATM   25  H   UNK N   1      38.693  14.112   8.357  0.00  0.00     0.161 HD
BRANCH  24  26
HETATM   26  C   UNK N   1      37.302  12.636   7.752  0.00  0.00     0.160 C 
BRANCH  26  27
HETATM   27  C   UNK N   1      36.196  13.027   6.840  0.00  0.00    -0.041 A 
HETATM   28  C   UNK N   1      36.343  14.085   5.934  0.00  0.00     0.009 A 
HETATM   29  C   UNK N   1      35.264  14.469   5.132  0.00  0.00     0.001 A 
HETATM   30  C   UNK N   1      34.036  13.810   5.246  0.00  0.00     0.000 A 
HETATM   31  C   UNK N   1      33.887  12.761   6.158  0.00  0.00     0.001 A 
HETATM   32  C   UNK N   1      34.966  12.372   6.955  0.00  0.00     0.009 A 
ENDBRANCH  26  27
ENDBRANCH  24  26
ENDBRANCH   6  24
BRANCH   1  33
HETATM   33  C   UNK N   1      35.643  13.627  14.226  0.00  0.00     0.092 C 
HETATM   34  C   UNK N   1      34.854  12.374  14.495  0.00  0.00     0.026 C 
HETATM   35  C   UNK N   1      34.490  12.510  15.959  0.00  0.00     0.002 C 
HETATM   36  C   UNK N   1      35.610  13.326  16.596  0.00  0.00     0.002 C 
HETATM   37  C   UNK N   1      36.500  13.798  15.459  0.00  0.00     0.026 C 
ENDBRANCH   1  33
TORSDOF 6
ENDMDL
MODEL 7
REMARK VINA RESULT:      -7.5      1.899      5.727
REMARK  6 active torsions:
REMARK  status: ('A' for Active; 'I' for Inactive)
REMARK    1  A    between atoms: C_1  and  N_2 
REMARK       I    between atoms: C_6  and  N_22 
REMARK    2  A    between atoms: C_7  and  N_14 
REMARK    3  A    between atoms: N_14  and  C_15 
REMARK    4  A    between atoms: C_15  and  C_21 
REMARK    5  A    between atoms: C_23  and  N_22 
REMARK    6  A    between atoms: C_24  and  N_29 
ROOT
HETATM    1  N   UNK N   1      22.105  13.702   8.763  0.00  0.00    -0.322 N 
HETATM    2  C   UNK N   1      22.698  14.435   7.806  0.00  0.00     0.155 A 
HETATM    3  N   UNK N   1      23.982  14.368   7.374  0.00  0.00    -0.174 N 
ATOM      4  HN  UNK N   1      24.614  13.649   7.725  1.00  0.00     0.186 HD
HETATM    5  C   UNK N   1      24.408  15.288   6.454  0.00  0.00     0.681 A 
HETATM    6  C   UNK N   1      22.243  16.305   6.414  0.00  0.00     0.148 A 
HETATM    7  N   UNK N   1      23.537  16.241   5.977  0.00  0.00    -0.175 N 
ATOM      8  HN  UNK N   1      23.863  16.913   5.282  1.00  0.00     0.186 HD
HETATM    9  C   UNK N   1      21.839  15.368   7.358  0.00  0.00     0.123 A 
HETATM   10  N   UNK N   1      20.658  15.242   7.996  0.00  0.00    -0.346 N 
ATOM     11  HN  UNK N   1      19.812  15.793   7.857  1.00  0.00     0.167 HD
HETATM   12  C   UNK N   1      20.851  14.214   8.864  0.00  0.00     0.185 A 
HETATM   13  N   UNK N   1      25.791  15.324   6.121  0.00  0.00    -0.221 N 
HETATM   14  H   UNK N   1      26.269  14.463   6.120  0.00  0.00     0.178 HD
ENDROOT
BRANCH  13  15
HETATM   15  C   UNK N   1      26.571  16.506   5.779  0.00  0.00     0.099 C 
HETATM   16  C   UNK N   1      27.636  16.762   6.855  0.00  0.00     0.028 C 
HETATM   17  C   UNK N   1      28.680  17.733   6.315  0.00  0.00     0.026 C 
HETATM   18  C   UNK N   1      29.480  17.057   5.189  0.00  0.00     0.074 C 
HETATM   19  C   UNK N   1      28.628  16.079   4.359  0.00  0.00     0.026 C 
HETATM   20  C   UNK N   1      27.161  16.505   4.347  0.00  0.00     0.028 C 
BRANCH  18  21
HETATM   21  N   UNK N   1      30.039  18.078   4.321  0.00  0.00    -0.426 N 
HETATM   22  H   UNK N   1      29.741  18.493   3.438  0.00  0.00     0.150 HD
HETATM   23  H   UNK N   1      30.916  18.464   4.670  0.00  0.00     0.150 HD
ENDBRANCH  18  21
ENDBRANCH  13  15
BRANCH   6  24
HETATM   24  N   UNK N   1      21.403  17.370   6.000  0.00  0.00    -0.370 N 
HETATM   25  H   UNK N   1      21.285  18.159   6.578  0.00  0.00     0.161 HD
BRANCH  24  26
HETATM   26  C   UNK N   1      20.724  17.297   4.728  0.00  0.00     0.160 C 
BRANCH  26  27
HETATM   27  C   UNK N   1      20.995  18.469   3.856  0.00  0.00    -0.041 A 
HETATM   28  C   UNK N   1      20.024  18.958   2.975  0.00  0.00     0.009 A 
HETATM   29  C   UNK N   1      20.330  20.024   2.123  0.00  0.00     0.001 A 
HETATM   30  C   UNK N   1      21.609  20.589   2.139  0.00  0.00     0.000 A 
HETATM   31  C   UNK N   1      22.582  20.094   3.012  0.00  0.00     0.001 A 
HETATM   32  C   UNK N   1      22.275  19.034   3.868  0.00  0.00     0.009 A 
ENDBRANCH  26  27
ENDBRANCH  24  26
ENDBRANCH   6  24
BRANCH   1  33
HETATM   33  C   UNK N   1      22.648  12.653   9.632  0.00  0.00     0.092 C 
HETATM   34  C   UNK N   1      24.056  12.933  10.085  0.00  0.00     0.026 C 
HETATM   35  C   UNK N   1      24.253  11.944  11.215  0.00  0.00     0.002 C 
HETATM   36  C   UNK N   1      22.871  11.717  11.819  0.00  0.00     0.002 C 
HETATM   37  C   UNK N   1      21.882  12.434  10.916  0.00  0.00     0.026 C 
ENDBRANCH   1  33
TORSDOF 6
ENDMDL
MODEL 8
REMARK VINA RESULT:      -7.4      2.033      7.722
REMARK  6 active torsions:
REMARK  status: ('A' for Active; 'I' for Inactive)
REMARK    1  A    between atoms: C_1  and  N_2 
REMARK       I    between atoms: C_6  and  N_22 
REMARK    2  A    between atoms: C_7  and  N_14 
REMARK    3  A    between atoms: N_14  and  C_15 
REMARK    4  A    between atoms: C_15  and  C_21 
REMARK    5  A    between atoms: C_23  and  N_22 
REMARK    6  A    between atoms: C_24  and  N_29 
ROOT
HETATM    1  N   UNK N   1      22.077  16.663   4.788  0.00  0.00    -0.322 N 
HETATM    2  C   UNK N   1      23.314  16.377   5.229  0.00  0.00     0.155 A 
HETATM    3  N   UNK N   1      24.482  16.986   4.904  0.00  0.00    -0.174 N 
ATOM      4  HN  UNK N   1      24.490  17.814   4.311  1.00  0.00     0.186 HD
HETATM    5  C   UNK N   1      25.648  16.461   5.393  0.00  0.00     0.681 A 
HETATM    6  C   UNK N   1      24.438  14.741   6.535  0.00  0.00     0.148 A 
HETATM    7  N   UNK N   1      25.617  15.352   6.209  0.00  0.00    -0.175 N 
ATOM      8  HN  UNK N   1      26.491  14.978   6.577  1.00  0.00     0.186 HD
HETATM    9  C   UNK N   1      23.269  15.285   6.014  0.00  0.00     0.123 A 
HETATM   10  N   UNK N   1      21.996  14.856   6.122  0.00  0.00    -0.346 N 
ATOM     11  HN  UNK N   1      21.648  14.064   6.662  1.00  0.00     0.167 HD
HETATM   12  C   UNK N   1      21.281  15.716   5.349  0.00  0.00     0.185 A 
HETATM   13  N   UNK N   1      26.881  16.995   4.926  0.00  0.00    -0.221 N 
HETATM   14  H   UNK N   1      26.897  17.958   4.719  0.00  0.00     0.178 HD
ENDROOT
BRANCH  13  15
HETATM   15  C   UNK N   1      28.123  16.261   4.724  0.00  0.00     0.099 C 
HETATM   16  C   UNK N   1      28.794  16.715   3.419  0.00  0.00     0.028 C 
HETATM   17  C   UNK N   1      30.246  16.251   3.408  0.00  0.00     0.026 C 
HETATM   18  C   UNK N   1      31.038  17.008   4.487  0.00  0.00     0.074 C 
HETATM   19  C   UNK N   1      30.192  17.326   5.733  0.00  0.00     0.026 C 
HETATM   20  C   UNK N   1      29.094  16.281   5.931  0.00  0.00     0.028 C 
BRANCH  18  21
HETATM   21  N   UNK N   1      32.197  16.222   4.869  0.00  0.00    -0.426 N 
HETATM   22  H   UNK N   1      32.452  15.240   4.756  0.00  0.00     0.150 HD
HETATM   23  H   UNK N   1      32.910  16.767   5.354  0.00  0.00     0.150 HD
ENDBRANCH  18  21
ENDBRANCH  13  15
BRANCH   6  24
HETATM   24  N   UNK N   1      24.443  13.530   7.273  0.00  0.00    -0.370 N 
HETATM   25  H   UNK N   1      24.053  12.714   6.884  0.00  0.00     0.161 HD
BRANCH  24  26
HETATM   26  C   UNK N   1      25.023  13.496   8.595  0.00  0.00     0.160 C 
BRANCH  26  27
HETATM   27  C   UNK N   1      24.065  13.053   9.639  0.00  0.00    -0.041 A 
HETATM   28  C   UNK N   1      24.488  12.296  10.738  0.00  0.00     0.009 A 
HETATM   29  C   UNK N   1      23.552  11.841  11.673  0.00  0.00     0.001 A 
HETATM   30  C   UNK N   1      22.194  12.127  11.500  0.00  0.00     0.000 A 
HETATM   31  C   UNK N   1      21.771  12.875  10.398  0.00  0.00     0.001 A 
HETATM   32  C   UNK N   1      22.705  13.335   9.468  0.00  0.00     0.009 A 
ENDBRANCH  26  27
ENDBRANCH  24  26
ENDBRANCH   6  24
BRANCH   1  33
HETATM   33  C   UNK N   1      21.621  17.671   3.826  0.00  0.00     0.092 C 
HETATM   34  C   UNK N   1      20.301  17.324   3.189  0.00  0.00     0.026 C 
HETATM   35  C   UNK N   1      19.880  18.629   2.548  0.00  0.00     0.002 C 
HETATM   36  C   UNK N   1      20.492  19.734   3.402  0.00  0.00     0.002 C 
HETATM   37  C   UNK N   1      21.400  19.048   4.408  0.00  0.00     0.026 C 
ENDBRANCH   1  33
TORSDOF 6
ENDMDL
MODEL 9
REMARK VINA RESULT:      -7.4      9.585     13.921
REMARK  6 active torsions:
REMARK  status: ('A' for Active; 'I' for Inactive)
REMARK    1  A    between atoms: C_1  and  N_2 
REMARK       I    between atoms: C_6  and  N_22 
REMARK    2  A    between atoms: C_7  and  N_14 
REMARK    3  A    between atoms: N_14  and  C_15 
REMARK    4  A    between atoms: C_15  and  C_21 
REMARK    5  A    between atoms: C_23  and  N_22 
REMARK    6  A    between atoms: C_24  and  N_29 
ROOT
HETATM    1  N   UNK N   1      33.632  16.188   8.108  0.00  0.00    -0.322 N 
HETATM    2  C   UNK N   1      33.953  15.082   8.801  0.00  0.00     0.155 A 
HETATM    3  N   UNK N   1      33.794  13.786   8.432  0.00  0.00    -0.174 N 
ATOM      4  HN  UNK N   1      33.460  13.547   7.499  1.00  0.00     0.186 HD
HETATM    5  C   UNK N   1      34.094  12.809   9.342  0.00  0.00     0.681 A 
HETATM    6  C   UNK N   1      34.721  14.457  10.960  0.00  0.00     0.148 A 
HETATM    7  N   UNK N   1      34.562  13.149  10.592  0.00  0.00    -0.175 N 
ATOM      8  HN  UNK N   1      34.794  12.411  11.256  1.00  0.00     0.186 HD
HETATM    9  C   UNK N   1      34.396  15.430  10.022  0.00  0.00     0.123 A 
HETATM   10  N   UNK N   1      34.399  16.773  10.138  0.00  0.00    -0.346 N 
ATOM     11  HN  UNK N   1      34.698  17.329  10.938  1.00  0.00     0.167 HD
HETATM   12  C   UNK N   1      33.914  17.217   8.948  0.00  0.00     0.185 A 
HETATM   13  N   UNK N   1      33.777  11.460   9.018  0.00  0.00    -0.221 N 
HETATM   14  H   UNK N   1      33.852  11.202   8.071  0.00  0.00     0.178 HD
ENDROOT
BRANCH  13  15
HETATM   15  C   UNK N   1      33.354  10.422   9.949  0.00  0.00     0.099 C 
HETATM   16  C   UNK N   1      32.214   9.597   9.332  0.00  0.00     0.028 C 
HETATM   17  C   UNK N   1      32.046   8.300  10.115  0.00  0.00     0.026 C 
HETATM   18  C   UNK N   1      33.277   7.404   9.901  0.00  0.00     0.074 C 
HETATM   19  C   UNK N   1      34.579   8.211   9.741  0.00  0.00     0.026 C 
HETATM   20  C   UNK N   1      34.499   9.535  10.499  0.00  0.00     0.028 C 
BRANCH  18  21
HETATM   21  N   UNK N   1      33.402   6.488  11.020  0.00  0.00    -0.426 N 
HETATM   22  H   UNK N   1      33.748   6.585  11.975  0.00  0.00     0.150 HD
HETATM   23  H   UNK N   1      33.074   5.547  10.806  0.00  0.00     0.150 HD
ENDBRANCH  18  21
ENDBRANCH  13  15
BRANCH   6  24
HETATM   24  N   UNK N   1      35.085  14.782  12.291  0.00  0.00    -0.370 N 
HETATM   25  H   UNK N   1      34.622  15.511  12.765  0.00  0.00     0.161 HD
BRANCH  24  26
HETATM   26  C   UNK N   1      36.134  14.041  12.951  0.00  0.00     0.160 C 
BRANCH  26  27
HETATM   27  C   UNK N   1      35.655  13.288  14.138  0.00  0.00    -0.041 A 
HETATM   28  C   UNK N   1      36.065  13.634  15.431  0.00  0.00     0.009 A 
HETATM   29  C   UNK N   1      35.645  12.868  16.524  0.00  0.00     0.001 A 
HETATM   30  C   UNK N   1      34.831  11.748  16.322  0.00  0.00     0.000 A 
HETATM   31  C   UNK N   1      34.431  11.396  15.030  0.00  0.00     0.001 A 
HETATM   32  C   UNK N   1      34.844  12.165  13.940  0.00  0.00     0.009 A 
ENDBRANCH  26  27
ENDBRANCH  24  26
ENDBRANCH   6  24
BRANCH   1  33
HETATM   33  C   UNK N   1      33.004  16.336   6.792  0.00  0.00     0.092 C 
HETATM   34  C   UNK N   1      31.649  16.990   6.854  0.00  0.00     0.026 C 
HETATM   35  C   UNK N   1      31.381  17.354   5.409  0.00  0.00     0.002 C 
HETATM   36  C   UNK N   1      32.747  17.592   4.775  0.00  0.00     0.002 C 
HETATM   37  C   UNK N   1      33.780  17.185   5.811  0.00  0.00     0.026 C 
ENDBRANCH   1  33
TORSDOF 6
ENDMDL
