MODEL 1
REMARK VINA RESULT:      -4.9      0.000      0.000
REMARK  0 active torsions:
REMARK  status: ('A' for Active; 'I' for Inactive)
ROOT
HETATM    1  I   UNK N   1      34.933   9.607  18.030  0.00  0.00    -0.045 I 
HETATM    2  C   UNK N   1      34.267  11.307  14.057  0.00  0.00     0.009 A 
HETATM    3  C   UNK N   1      34.219  10.492  15.191  0.00  0.00     0.019 A 
HETATM    4  C   UNK N   1      34.986  10.815  16.311  0.00  0.00     0.007 A 
HETATM    5  C   UNK N   1      35.797  11.949  16.295  0.00  0.00     0.027 A 
HETATM    6  C   UNK N   1      35.850  12.770  15.161  0.00  0.00    -0.033 A 
HETATM    7  C   UNK N   1      35.082  12.446  14.041  0.00  0.00    -0.049 A 
HETATM    8  C   UNK N   1      36.736  13.965  15.211  0.00  0.00     0.153 A 
HETATM    9  C   UNK N   1      36.000  14.520  12.826  0.00  0.00     0.118 A 
HETATM   10  C   UNK N   1      35.103  13.283  12.816  0.00  0.00     0.058 A 
HETATM   11  N   UNK N   1      36.793  14.827  14.025  0.00  0.00    -0.417 N 
HETATM   12  H   UNK N   1      37.393  15.652  14.032  0.00  0.00     0.153 HD
ENDROOT
TORSDOF 0
ENDMDL
MODEL 2
REMARK VINA RESULT:      -4.8     13.375     14.423
REMARK  0 active torsions:
REMARK  status: ('A' for Active; 'I' for Inactive)
ROOT
HETATM    1  I   UNK N   1      21.531  15.045   5.963  0.00  0.00    -0.045 I 
HETATM    2  C   UNK N   1      20.949  13.206   9.888  0.00  0.00     0.009 A 
HETATM    3  C   UNK N   1      20.736  13.821   8.651  0.00  0.00     0.019 A 
HETATM    4  C   UNK N   1      21.823  14.121   7.829  0.00  0.00     0.007 A 
HETATM    5  C   UNK N   1      23.116  13.806   8.244  0.00  0.00     0.027 A 
HETATM    6  C   UNK N   1      23.336  13.190   9.482  0.00  0.00    -0.033 A 
HETATM    7  C   UNK N   1      22.248  12.890  10.305  0.00  0.00    -0.049 A 
HETATM    8  C   UNK N   1      24.742  12.883   9.863  0.00  0.00     0.153 A 
HETATM    9  C   UNK N   1      23.857  11.906  12.054  0.00  0.00     0.118 A 
HETATM   10  C   UNK N   1      22.429  12.239  11.625  0.00  0.00     0.058 A 
HETATM   11  N   UNK N   1      24.975  12.237  11.160  0.00  0.00    -0.417 N 
HETATM   12  H   UNK N   1      25.929  12.015  11.447  0.00  0.00     0.153 HD
ENDROOT
TORSDOF 0
ENDMDL
MODEL 3
REMARK VINA RESULT:      -4.7      2.930      4.259
REMARK  0 active torsions:
REMARK  status: ('A' for Active; 'I' for Inactive)
ROOT
HETATM    1  I   UNK N   1      34.756  10.916  12.771  0.00  0.00    -0.045 I 
HETATM    2  C   UNK N   1      35.163   9.840  16.990  0.00  0.00     0.009 A 
HETATM    3  C   UNK N   1      35.038   9.785  15.599  0.00  0.00     0.019 A 
HETATM    4  C   UNK N   1      34.945  10.968  14.864  0.00  0.00     0.007 A 
HETATM    5  C   UNK N   1      34.975  12.198  15.520  0.00  0.00     0.027 A 
HETATM    6  C   UNK N   1      35.100  12.259  16.913  0.00  0.00    -0.033 A 
HETATM    7  C   UNK N   1      35.194  11.075  17.648  0.00  0.00    -0.049 A 
HETATM    8  C   UNK N   1      35.126  13.605  17.549  0.00  0.00     0.153 A 
HETATM    9  C   UNK N   1      35.358  12.448  19.818  0.00  0.00     0.118 A 
HETATM   10  C   UNK N   1      35.327  11.086  19.126  0.00  0.00     0.058 A 
HETATM   11  N   UNK N   1      35.257  13.672  19.009  0.00  0.00    -0.417 N 
HETATM   12  H   UNK N   1      35.277  14.581  19.471  0.00  0.00     0.153 HD
ENDROOT
TORSDOF 0
ENDMDL
MODEL 4
REMARK VINA RESULT:      -4.7     10.387     11.440
REMARK  0 active torsions:
REMARK  status: ('A' for Active; 'I' for Inactive)
ROOT
HETATM    1  I   UNK N   1      32.613  16.561   3.597  0.00  0.00    -0.045 I 
HETATM    2  C   UNK N   1      31.935  17.548   7.802  0.00  0.00     0.009 A 
HETATM    3  C   UNK N   1      32.534  17.259   6.574  0.00  0.00     0.019 A 
HETATM    4  C   UNK N   1      31.738  16.999   5.458  0.00  0.00     0.007 A 
HETATM    5  C   UNK N   1      30.349  17.028   5.572  0.00  0.00     0.027 A 
HETATM    6  C   UNK N   1      29.742  17.318   6.801  0.00  0.00    -0.033 A 
HETATM    7  C   UNK N   1      30.539  17.578   7.917  0.00  0.00    -0.049 A 
HETATM    8  C   UNK N   1      28.255  17.333   6.852  0.00  0.00     0.153 A 
HETATM    9  C   UNK N   1      28.421  17.916   9.337  0.00  0.00     0.118 A 
HETATM   10  C   UNK N   1      29.945  17.890   9.241  0.00  0.00     0.058 A 
HETATM   11  N   UNK N   1      27.616  17.636   8.139  0.00  0.00    -0.417 N 
HETATM   12  H   UNK N   1      26.598  17.653   8.202  0.00  0.00     0.153 HD
ENDROOT
TORSDOF 0
ENDMDL
MODEL 5
REMARK VINA RESULT:      -4.7      9.244     10.976
REMARK  0 active torsions:
REMARK  status: ('A' for Active; 'I' for Inactive)
ROOT
HETATM    1  I   UNK N   1      28.470  17.181   4.158  0.00  0.00    -0.045 I 
HETATM    2  C   UNK N   1      32.766  17.498   4.914  0.00  0.00     0.009 A 
HETATM    3  C   UNK N   1      31.514  17.448   4.294  0.00  0.00     0.019 A 
HETATM    4  C   UNK N   1      30.366  17.261   5.064  0.00  0.00     0.007 A 
HETATM    5  C   UNK N   1      30.470  17.125   6.448  0.00  0.00     0.027 A 
HETATM    6  C   UNK N   1      31.722  17.175   7.075  0.00  0.00    -0.033 A 
HETATM    7  C   UNK N   1      32.871  17.362   6.304  0.00  0.00    -0.049 A 
HETATM    8  C   UNK N   1      31.762  17.024   8.555  0.00  0.00     0.153 A 
HETATM    9  C   UNK N   1      34.304  17.271   8.438  0.00  0.00     0.118 A 
HETATM   10  C   UNK N   1      34.219  17.422   6.920  0.00  0.00     0.058 A 
HETATM   11  N   UNK N   1      33.072  17.076   9.215  0.00  0.00    -0.417 N 
HETATM   12  H   UNK N   1      33.128  16.975  10.229  0.00  0.00     0.153 HD
ENDROOT
TORSDOF 0
ENDMDL
MODEL 6
REMARK VINA RESULT:      -4.6     10.064     11.474
REMARK  0 active torsions:
REMARK  status: ('A' for Active; 'I' for Inactive)
ROOT
HETATM    1  I   UNK N   1      29.301  17.710   9.562  0.00  0.00    -0.045 I 
HETATM    2  C   UNK N   1      32.712  17.448   6.838  0.00  0.00     0.009 A 
HETATM    3  C   UNK N   1      31.915  17.577   7.978  0.00  0.00     0.019 A 
HETATM    4  C   UNK N   1      30.525  17.519   7.863  0.00  0.00     0.007 A 
HETATM    5  C   UNK N   1      29.938  17.332   6.613  0.00  0.00     0.027 A 
HETATM    6  C   UNK N   1      30.732  17.201   5.466  0.00  0.00    -0.033 A 
HETATM    7  C   UNK N   1      32.122  17.260   5.581  0.00  0.00    -0.049 A 
HETATM    8  C   UNK N   1      30.040  17.004   4.163  0.00  0.00     0.153 A 
HETATM    9  C   UNK N   1      32.336  16.924   3.040  0.00  0.00     0.118 A 
HETATM   10  C   UNK N   1      33.007  17.128   4.397  0.00  0.00     0.058 A 
HETATM   11  N   UNK N   1      30.870  16.868   2.960  0.00  0.00    -0.417 N 
HETATM   12  H   UNK N   1      30.422  16.731   2.053  0.00  0.00     0.153 HD
ENDROOT
TORSDOF 0
ENDMDL
MODEL 7
REMARK VINA RESULT:      -4.6     26.932     28.024
REMARK  0 active torsions:
REMARK  status: ('A' for Active; 'I' for Inactive)
ROOT
HETATM    1  I   UNK N   1      30.433  30.351  -8.567  0.00  0.00    -0.045 I 
HETATM    2  C   UNK N   1      27.409  27.510  -7.184  0.00  0.00     0.009 A 
HETATM    3  C   UNK N   1      28.398  28.158  -7.930  0.00  0.00     0.019 A 
HETATM    4  C   UNK N   1      28.944  29.355  -7.466  0.00  0.00     0.007 A 
HETATM    5  C   UNK N   1      28.502  29.900  -6.261  0.00  0.00     0.027 A 
HETATM    6  C   UNK N   1      27.512  29.255  -5.509  0.00  0.00    -0.033 A 
HETATM    7  C   UNK N   1      26.965  28.057  -5.974  0.00  0.00    -0.049 A 
HETATM    8  C   UNK N   1      27.086  29.892  -4.233  0.00  0.00     0.153 A 
HETATM    9  C   UNK N   1      25.449  27.956  -3.899  0.00  0.00     0.118 A 
HETATM   10  C   UNK N   1      25.914  27.336  -5.215  0.00  0.00     0.058 A 
HETATM   11  N   UNK N   1      26.049  29.219  -3.443  0.00  0.00    -0.417 N 
HETATM   12  H   UNK N   1      25.738  29.633  -2.564  0.00  0.00     0.153 HD
ENDROOT
TORSDOF 0
ENDMDL
MODEL 8
REMARK VINA RESULT:      -4.5     27.151     27.959
REMARK  0 active torsions:
REMARK  status: ('A' for Active; 'I' for Inactive)
ROOT
HETATM    1  I   UNK N   1      27.146  25.426  -9.835  0.00  0.00    -0.045 I 
HETATM    2  C   UNK N   1      28.198  28.719  -7.156  0.00  0.00     0.009 A 
HETATM    3  C   UNK N   1      28.159  27.824  -8.229  0.00  0.00     0.019 A 
HETATM    4  C   UNK N   1      27.226  26.787  -8.234  0.00  0.00     0.007 A 
HETATM    5  C   UNK N   1      26.335  26.647  -7.171  0.00  0.00     0.027 A 
HETATM    6  C   UNK N   1      26.369  27.541  -6.093  0.00  0.00    -0.033 A 
HETATM    7  C   UNK N   1      27.303  28.579  -6.088  0.00  0.00    -0.049 A 
HETATM    8  C   UNK N   1      25.389  27.334  -4.991  0.00  0.00     0.153 A 
HETATM    9  C   UNK N   1      26.391  29.374  -3.818  0.00  0.00     0.118 A 
HETATM   10  C   UNK N   1      27.379  29.551  -4.970  0.00  0.00     0.058 A 
HETATM   11  N   UNK N   1      25.422  28.269  -3.860  0.00  0.00    -0.417 N 
HETATM   12  H   UNK N   1      24.762  28.151  -3.091  0.00  0.00     0.153 HD
ENDROOT
TORSDOF 0
ENDMDL
MODEL 9
REMARK VINA RESULT:      -4.5     27.047     27.620
REMARK  0 active torsions:
REMARK  status: ('A' for Active; 'I' for Inactive)
ROOT
HETATM    1  I   UNK N   1      26.605  25.568  -9.212  0.00  0.00    -0.045 I 
HETATM    2  C   UNK N   1      25.287  27.060  -5.318  0.00  0.00     0.009 A 
HETATM    3  C   UNK N   1      25.405  26.328  -6.503  0.00  0.00     0.019 A 
HETATM    4  C   UNK N   1      26.404  26.653  -7.421  0.00  0.00     0.007 A 
HETATM    5  C   UNK N   1      27.280  27.704  -7.155  0.00  0.00     0.027 A 
HETATM    6  C   UNK N   1      27.166  28.441  -5.970  0.00  0.00    -0.033 A 
HETATM    7  C   UNK N   1      26.167  28.117  -5.050  0.00  0.00    -0.049 A 
HETATM    8  C   UNK N   1      28.134  29.551  -5.748  0.00  0.00     0.153 A 
HETATM    9  C   UNK N   1      26.978  30.015  -3.515  0.00  0.00     0.118 A 
HETATM   10  C   UNK N   1      26.005  28.867  -3.781  0.00  0.00     0.058 A 
HETATM   11  N   UNK N   1      28.017  30.325  -4.507  0.00  0.00    -0.417 N 
HETATM   12  H   UNK N   1      28.667  31.091  -4.330  0.00  0.00     0.153 HD
ENDROOT
TORSDOF 0
ENDMDL
