MODEL 1
REMARK VINA RESULT:      -6.7      0.000      0.000
REMARK  9 active torsions:
REMARK  status: ('A' for Active; 'I' for Inactive)
REMARK    1  A    between atoms: C_1  and  O_6 
REMARK    2  A    between atoms: C_1  and  C_7 
REMARK    3  A    between atoms: P_2  and  O_3 
REMARK    4  A    between atoms: P_2  and  O_4 
REMARK    5  A    between atoms: P_2  and  O_6 
REMARK    6  A    between atoms: C_7  and  O_8 
REMARK    7  A    between atoms: C_7  and  C_9 
REMARK    8  A    between atoms: C_9  and  O_10 
REMARK    9  A    between atoms: C_9  and  C_11 
ROOT
HETATM    1  C   UNK N   1      35.871  15.354  11.488  0.00  0.00     0.184 C 
ENDROOT
BRANCH   1   2
HETATM    2  C   UNK N   1      34.718  15.040  10.513  0.00  0.00     0.175 C 
BRANCH   2   3
HETATM    3  C   UNK N   1      34.740  15.915   9.260  0.00  0.00     0.215 C 
BRANCH   3   4
HETATM    4  O   UNK N   1      34.662  17.279   9.556  0.00  0.00    -0.294 OA
BRANCH   4   5
HETATM    5  P   UNK N   1      33.816  17.948   8.191  0.00  0.00     0.390 P 
HETATM    6  O   UNK N   1      34.948  18.986   8.406  0.00  0.00    -0.632 OA
BRANCH   5   7
HETATM    7  O   UNK N   1      34.550  18.027   6.620  0.00  0.00    -0.307 OA
HETATM    8  H   UNK N   1      35.472  17.860   6.372  0.00  0.00     0.222 HD
ENDBRANCH   5   7
BRANCH   5   9
HETATM    9  O   UNK N   1      34.511  16.419   7.747  0.00  0.00    -0.307 OA
HETATM   10  H   UNK N   1      35.460  16.250   7.639  0.00  0.00     0.222 HD
ENDBRANCH   5   9
ENDBRANCH   4   5
ENDBRANCH   3   4
ENDBRANCH   2   3
BRANCH   2  11
HETATM   11  O   UNK N   1      33.488  15.187  11.159  0.00  0.00    -0.391 OA
HETATM   12  H   UNK N   1      32.650  15.573  10.857  0.00  0.00     0.210 HD
ENDBRANCH   2  11
ENDBRANCH   1   2
BRANCH   1  13
HETATM   13  O   UNK N   1      36.802  16.189  10.861  0.00  0.00    -0.388 OA
HETATM   14  H   UNK N   1      36.682  16.726  10.062  0.00  0.00     0.210 HD
ENDBRANCH   1  13
BRANCH   1  15
HETATM   15  C   UNK N   1      36.549  14.077  11.942  0.00  0.00     0.001 A 
HETATM   16  C   UNK N   1      36.445  13.451  13.169  0.00  0.00     0.001 A 
HETATM   17  C   UNK N   1      37.252  12.349  13.118  0.00  0.00     0.043 A 
HETATM   18  C   UNK N   1      35.703  13.761  14.309  0.00  0.00     0.014 A 
HETATM   19  N   UNK N   1      37.856  12.244  11.923  0.00  0.00    -0.365 N 
HETATM   20  C   UNK N   1      37.381  11.479  14.199  0.00  0.00     0.030 A 
HETATM   21  C   UNK N   1      37.426  13.301  11.186  0.00  0.00     0.099 A 
HETATM   22  H   UNK N   1      38.485  11.542  11.638  0.00  0.00     0.165 HD
HETATM   23  C   UNK N   1      36.643  11.764  15.363  0.00  0.00     0.002 A 
HETATM   24  C   UNK N   1      35.805  12.900  15.416  0.00  0.00     0.001 A 
ENDBRANCH   1  15
TORSDOF 9
ENDMDL
MODEL 2
REMARK VINA RESULT:      -6.6      1.549      2.224
REMARK  9 active torsions:
REMARK  status: ('A' for Active; 'I' for Inactive)
REMARK    1  A    between atoms: C_1  and  O_6 
REMARK    2  A    between atoms: C_1  and  C_7 
REMARK    3  A    between atoms: P_2  and  O_3 
REMARK    4  A    between atoms: P_2  and  O_4 
REMARK    5  A    between atoms: P_2  and  O_6 
REMARK    6  A    between atoms: C_7  and  O_8 
REMARK    7  A    between atoms: C_7  and  C_9 
REMARK    8  A    between atoms: C_9  and  O_10 
REMARK    9  A    between atoms: C_9  and  C_11 
ROOT
HETATM    1  C   UNK N   1      35.220  14.264  11.640  0.00  0.00     0.184 C 
ENDROOT
BRANCH   1   2
HETATM    2  C   UNK N   1      35.736  15.670  11.270  0.00  0.00     0.175 C 
BRANCH   2   3
HETATM    3  C   UNK N   1      34.744  16.468  10.426  0.00  0.00     0.215 C 
BRANCH   3   4
HETATM    4  O   UNK N   1      35.345  17.533   9.751  0.00  0.00    -0.294 OA
BRANCH   4   5
HETATM    5  P   UNK N   1      34.208  17.919   8.492  0.00  0.00     0.390 P 
HETATM    6  O   UNK N   1      35.220  19.089   8.379  0.00  0.00    -0.632 OA
BRANCH   5   7
HETATM    7  O   UNK N   1      34.658  17.861   6.817  0.00  0.00    -0.307 OA
HETATM    8  H   UNK N   1      34.206  17.420   6.082  0.00  0.00     0.222 HD
ENDBRANCH   5   7
BRANCH   5   9
HETATM    9  O   UNK N   1      35.009  16.425   8.110  0.00  0.00    -0.307 OA
HETATM   10  H   UNK N   1      34.601  15.677   7.647  0.00  0.00     0.222 HD
ENDBRANCH   5   9
ENDBRANCH   4   5
ENDBRANCH   3   4
ENDBRANCH   2   3
BRANCH   2  11
HETATM   11  O   UNK N   1      36.952  15.573  10.587  0.00  0.00    -0.391 OA
HETATM   12  H   UNK N   1      37.147  15.397   9.653  0.00  0.00     0.210 HD
ENDBRANCH   2  11
ENDBRANCH   1   2
BRANCH   1  13
HETATM   13  O   UNK N   1      33.830  14.223  11.500  0.00  0.00    -0.388 OA
HETATM   14  H   UNK N   1      33.178  13.847  12.111  0.00  0.00     0.210 HD
ENDBRANCH   1  13
BRANCH   1  15
HETATM   15  C   UNK N   1      35.606  13.911  13.062  0.00  0.00     0.001 A 
HETATM   16  C   UNK N   1      35.209  12.815  13.802  0.00  0.00     0.001 A 
HETATM   17  C   UNK N   1      35.794  12.937  15.031  0.00  0.00     0.043 A 
HETATM   18  C   UNK N   1      34.393  11.728  13.485  0.00  0.00     0.014 A 
HETATM   19  N   UNK N   1      36.542  14.049  15.106  0.00  0.00    -0.365 N 
HETATM   20  C   UNK N   1      35.605  11.988  16.035  0.00  0.00     0.030 A 
HETATM   21  C   UNK N   1      36.440  14.657  13.895  0.00  0.00     0.099 A 
HETATM   22  H   UNK N   1      37.061  14.362  15.881  0.00  0.00     0.165 HD
HETATM   23  C   UNK N   1      34.789  10.879  15.745  0.00  0.00     0.002 A 
HETATM   24  C   UNK N   1      34.187  10.748  14.474  0.00  0.00     0.001 A 
ENDBRANCH   1  15
TORSDOF 9
ENDMDL
MODEL 3
REMARK VINA RESULT:      -6.5      2.409      3.763
REMARK  9 active torsions:
REMARK  status: ('A' for Active; 'I' for Inactive)
REMARK    1  A    between atoms: C_1  and  O_6 
REMARK    2  A    between atoms: C_1  and  C_7 
REMARK    3  A    between atoms: P_2  and  O_3 
REMARK    4  A    between atoms: P_2  and  O_4 
REMARK    5  A    between atoms: P_2  and  O_6 
REMARK    6  A    between atoms: C_7  and  O_8 
REMARK    7  A    between atoms: C_7  and  C_9 
REMARK    8  A    between atoms: C_9  and  O_10 
REMARK    9  A    between atoms: C_9  and  C_11 
ROOT
HETATM    1  C   UNK N   1      35.923  13.906  14.373  0.00  0.00     0.184 C 
ENDROOT
BRANCH   1   2
HETATM    2  C   UNK N   1      35.736  13.514  12.893  0.00  0.00     0.175 C 
BRANCH   2   3
HETATM    3  C   UNK N   1      36.153  14.620  11.925  0.00  0.00     0.215 C 
BRANCH   3   4
HETATM    4  O   UNK N   1      35.917  14.284  10.590  0.00  0.00    -0.294 OA
BRANCH   4   5
HETATM    5  P   UNK N   1      35.350  15.769   9.884  0.00  0.00     0.390 P 
HETATM    6  O   UNK N   1      34.134  15.340  10.748  0.00  0.00    -0.632 OA
BRANCH   5   7
HETATM    7  O   UNK N   1      35.065  17.181  10.852  0.00  0.00    -0.307 OA
HETATM    8  H   UNK N   1      34.311  17.790  10.832  0.00  0.00     0.222 HD
ENDBRANCH   5   7
BRANCH   5   9
HETATM    9  O   UNK N   1      36.704  16.102  10.920  0.00  0.00    -0.307 OA
HETATM   10  H   UNK N   1      36.736  15.915  11.871  0.00  0.00     0.222 HD
ENDBRANCH   5   9
ENDBRANCH   4   5
ENDBRANCH   3   4
ENDBRANCH   2   3
BRANCH   2  11
HETATM   11  O   UNK N   1      34.404  13.166  12.652  0.00  0.00    -0.391 OA
HETATM   12  H   UNK N   1      33.998  12.315  12.426  0.00  0.00     0.210 HD
ENDBRANCH   2  11
ENDBRANCH   1   2
BRANCH   1  13
HETATM   13  O   UNK N   1      37.085  14.672  14.512  0.00  0.00    -0.388 OA
HETATM   14  H   UNK N   1      37.353  15.222  15.265  0.00  0.00     0.210 HD
ENDBRANCH   1  13
BRANCH   1  15
HETATM   15  C   UNK N   1      36.013  12.670  15.245  0.00  0.00     0.001 A 
HETATM   16  C   UNK N   1      35.737  12.561  16.594  0.00  0.00     0.001 A 
HETATM   17  C   UNK N   1      35.982  11.263  16.942  0.00  0.00     0.043 A 
HETATM   18  C   UNK N   1      35.286  13.495  17.527  0.00  0.00     0.014 A 
HETATM   19  N   UNK N   1      36.394  10.545  15.885  0.00  0.00    -0.365 N 
HETATM   20  C   UNK N   1      35.800  10.802  18.245  0.00  0.00     0.030 A 
HETATM   21  C   UNK N   1      36.412  11.400  14.829  0.00  0.00     0.099 A 
HETATM   22  H   UNK N   1      36.635   9.591  15.875  0.00  0.00     0.165 HD
HETATM   23  C   UNK N   1      35.344  11.720  19.209  0.00  0.00     0.002 A 
HETATM   24  C   UNK N   1      35.085  13.062  18.850  0.00  0.00     0.001 A 
ENDBRANCH   1  15
TORSDOF 9
ENDMDL
MODEL 4
REMARK VINA RESULT:      -6.4      3.650      5.562
REMARK  9 active torsions:
REMARK  status: ('A' for Active; 'I' for Inactive)
REMARK    1  A    between atoms: C_1  and  O_6 
REMARK    2  A    between atoms: C_1  and  C_7 
REMARK    3  A    between atoms: P_2  and  O_3 
REMARK    4  A    between atoms: P_2  and  O_4 
REMARK    5  A    between atoms: P_2  and  O_6 
REMARK    6  A    between atoms: C_7  and  O_8 
REMARK    7  A    between atoms: C_7  and  C_9 
REMARK    8  A    between atoms: C_9  and  O_10 
REMARK    9  A    between atoms: C_9  and  C_11 
ROOT
HETATM    1  C   UNK N   1      35.502  12.682  15.296  0.00  0.00     0.184 C 
ENDROOT
BRANCH   1   2
HETATM    2  C   UNK N   1      36.288  13.889  14.745  0.00  0.00     0.175 C 
BRANCH   2   3
HETATM    3  C   UNK N   1      36.260  13.973  13.219  0.00  0.00     0.215 C 
BRANCH   3   4
HETATM    4  O   UNK N   1      35.020  14.389  12.726  0.00  0.00    -0.294 OA
BRANCH   4   5
HETATM    5  P   UNK N   1      35.069  13.931  11.049  0.00  0.00     0.390 P 
HETATM    6  O   UNK N   1      34.982  12.552  11.754  0.00  0.00    -0.632 OA
BRANCH   5   7
HETATM    7  O   UNK N   1      33.701  13.200  10.270  0.00  0.00    -0.307 OA
HETATM    8  H   UNK N   1      33.112  12.506  10.602  0.00  0.00     0.222 HD
ENDBRANCH   5   7
BRANCH   5   9
HETATM    9  O   UNK N   1      33.615  14.831  11.361  0.00  0.00    -0.307 OA
HETATM   10  H   UNK N   1      33.584  15.721  11.744  0.00  0.00     0.222 HD
ENDBRANCH   5   9
ENDBRANCH   4   5
ENDBRANCH   3   4
ENDBRANCH   2   3
BRANCH   2  11
HETATM   11  O   UNK N   1      37.615  13.839  15.180  0.00  0.00    -0.391 OA
HETATM   12  H   UNK N   1      37.995  13.849  16.073  0.00  0.00     0.210 HD
ENDBRANCH   2  11
ENDBRANCH   1   2
BRANCH   1  13
HETATM   13  O   UNK N   1      34.222  12.659  14.734  0.00  0.00    -0.388 OA
HETATM   14  H   UNK N   1      33.965  12.867  13.822  0.00  0.00     0.210 HD
ENDBRANCH   1  13
BRANCH   1  15
HETATM   15  C   UNK N   1      35.399  12.758  16.807  0.00  0.00     0.001 A 
HETATM   16  C   UNK N   1      35.345  11.712  17.707  0.00  0.00     0.001 A 
HETATM   17  C   UNK N   1      35.235  12.268  18.950  0.00  0.00     0.043 A 
HETATM   18  C   UNK N   1      35.392  10.329  17.527  0.00  0.00     0.014 A 
HETATM   19  N   UNK N   1      35.222  13.610  18.884  0.00  0.00    -0.365 N 
HETATM   20  C   UNK N   1      35.160  11.488  20.103  0.00  0.00     0.030 A 
HETATM   21  C   UNK N   1      35.329  13.925  17.566  0.00  0.00     0.099 A 
HETATM   22  H   UNK N   1      35.149  14.239  19.637  0.00  0.00     0.165 HD
HETATM   23  C   UNK N   1      35.207  10.090  19.954  0.00  0.00     0.002 A 
HETATM   24  C   UNK N   1      35.325   9.513  18.670  0.00  0.00     0.001 A 
ENDBRANCH   1  15
TORSDOF 9
ENDMDL
MODEL 5
REMARK VINA RESULT:      -6.1      4.636      7.980
REMARK  9 active torsions:
REMARK  status: ('A' for Active; 'I' for Inactive)
REMARK    1  A    between atoms: C_1  and  O_6 
REMARK    2  A    between atoms: C_1  and  C_7 
REMARK    3  A    between atoms: P_2  and  O_3 
REMARK    4  A    between atoms: P_2  and  O_4 
REMARK    5  A    between atoms: P_2  and  O_6 
REMARK    6  A    between atoms: C_7  and  O_8 
REMARK    7  A    between atoms: C_7  and  C_9 
REMARK    8  A    between atoms: C_9  and  O_10 
REMARK    9  A    between atoms: C_9  and  C_11 
ROOT
HETATM    1  C   UNK N   1      33.205  17.383   8.596  0.00  0.00     0.184 C 
ENDROOT
BRANCH   1   2
HETATM    2  C   UNK N   1      34.719  17.130   8.741  0.00  0.00     0.175 C 
BRANCH   2   3
HETATM    3  C   UNK N   1      35.039  15.790   9.402  0.00  0.00     0.215 C 
BRANCH   3   4
HETATM    4  O   UNK N   1      35.141  15.885  10.792  0.00  0.00    -0.294 OA
BRANCH   4   5
HETATM    5  P   UNK N   1      35.268  14.230  11.311  0.00  0.00     0.390 P 
HETATM    6  O   UNK N   1      36.039  14.977  12.431  0.00  0.00    -0.632 OA
BRANCH   5   7
HETATM    7  O   UNK N   1      34.473  13.668  12.748  0.00  0.00    -0.307 OA
HETATM    8  H   UNK N   1      34.158  14.181  13.508  0.00  0.00     0.222 HD
ENDBRANCH   5   7
BRANCH   5   9
HETATM    9  O   UNK N   1      33.600  14.717  11.335  0.00  0.00    -0.307 OA
HETATM   10  H   UNK N   1      32.909  14.364  10.754  0.00  0.00     0.222 HD
ENDBRANCH   5   9
ENDBRANCH   4   5
ENDBRANCH   3   4
ENDBRANCH   2   3
BRANCH   2  11
HETATM   11  O   UNK N   1      35.312  18.161   9.476  0.00  0.00    -0.391 OA
HETATM   12  H   UNK N   1      35.558  19.065   9.224  0.00  0.00     0.210 HD
ENDBRANCH   2  11
ENDBRANCH   1   2
BRANCH   1  13
HETATM   13  O   UNK N   1      32.495  16.397   9.287  0.00  0.00    -0.388 OA
HETATM   14  H   UNK N   1      31.536  16.253   9.308  0.00  0.00     0.210 HD
ENDBRANCH   1  13
BRANCH   1  15
HETATM   15  C   UNK N   1      32.801  17.380   7.135  0.00  0.00     0.001 A 
HETATM   16  C   UNK N   1      31.527  17.321   6.606  0.00  0.00     0.001 A 
HETATM   17  C   UNK N   1      31.664  17.321   5.247  0.00  0.00     0.043 A 
HETATM   18  C   UNK N   1      30.272  17.277   7.214  0.00  0.00     0.014 A 
HETATM   19  N   UNK N   1      32.957  17.381   4.888  0.00  0.00    -0.365 N 
HETATM   20  C   UNK N   1      30.562  17.273   4.394  0.00  0.00     0.030 A 
HETATM   21  C   UNK N   1      33.669  17.424   6.044  0.00  0.00     0.099 A 
HETATM   22  H   UNK N   1      33.317  17.392   3.972  0.00  0.00     0.165 HD
HETATM   23  C   UNK N   1      29.282  17.230   4.978  0.00  0.00     0.002 A 
HETATM   24  C   UNK N   1      29.138  17.234   6.383  0.00  0.00     0.001 A 
ENDBRANCH   1  15
TORSDOF 9
ENDMDL
MODEL 6
REMARK VINA RESULT:      -6.0      7.057      9.816
REMARK  9 active torsions:
REMARK  status: ('A' for Active; 'I' for Inactive)
REMARK    1  A    between atoms: C_1  and  O_6 
REMARK    2  A    between atoms: C_1  and  C_7 
REMARK    3  A    between atoms: P_2  and  O_3 
REMARK    4  A    between atoms: P_2  and  O_4 
REMARK    5  A    between atoms: P_2  and  O_6 
REMARK    6  A    between atoms: C_7  and  O_8 
REMARK    7  A    between atoms: C_7  and  C_9 
REMARK    8  A    between atoms: C_9  and  O_10 
REMARK    9  A    between atoms: C_9  and  C_11 
ROOT
HETATM    1  C   UNK N   1      29.808  16.833   7.240  0.00  0.00     0.184 C 
ENDROOT
BRANCH   1   2
HETATM    2  C   UNK N   1      30.716  17.716   8.119  0.00  0.00     0.175 C 
BRANCH   2   3
HETATM    3  C   UNK N   1      32.153  17.794   7.604  0.00  0.00     0.215 C 
BRANCH   3   4
HETATM    4  O   UNK N   1      32.913  16.677   7.960  0.00  0.00    -0.294 OA
BRANCH   4   5
HETATM    5  P   UNK N   1      34.548  17.272   7.950  0.00  0.00     0.390 P 
HETATM    6  O   UNK N   1      33.908  18.076   6.787  0.00  0.00    -0.632 OA
BRANCH   5   7
HETATM    7  O   UNK N   1      34.918  18.912   8.384  0.00  0.00    -0.307 OA
HETATM    8  H   UNK N   1      35.702  19.436   8.163  0.00  0.00     0.222 HD
ENDBRANCH   5   7
BRANCH   5   9
HETATM    9  O   UNK N   1      33.782  17.713   9.446  0.00  0.00    -0.307 OA
HETATM   10  H   UNK N   1      34.141  18.339  10.092  0.00  0.00     0.222 HD
ENDBRANCH   5   9
ENDBRANCH   4   5
ENDBRANCH   3   4
ENDBRANCH   2   3
BRANCH   2  11
HETATM   11  O   UNK N   1      30.722  17.243   9.434  0.00  0.00    -0.391 OA
HETATM   12  H   UNK N   1      30.672  17.711  10.282  0.00  0.00     0.210 HD
ENDBRANCH   2  11
ENDBRANCH   1   2
BRANCH   1  13
HETATM   13  O   UNK N   1      30.531  15.730   6.777  0.00  0.00    -0.388 OA
HETATM   14  H   UNK N   1      31.362  15.725   6.278  0.00  0.00     0.210 HD
ENDBRANCH   1  13
BRANCH   1  15
HETATM   15  C   UNK N   1      29.269  17.626   6.065  0.00  0.00     0.001 A 
HETATM   16  C   UNK N   1      28.442  18.731   6.095  0.00  0.00     0.001 A 
HETATM   17  C   UNK N   1      28.209  19.083   4.795  0.00  0.00     0.043 A 
HETATM   18  C   UNK N   1      27.890  19.449   7.157  0.00  0.00     0.014 A 
HETATM   19  N   UNK N   1      28.849  18.262   3.947  0.00  0.00    -0.365 N 
HETATM   20  C   UNK N   1      27.408  20.173   4.459  0.00  0.00     0.030 A 
HETATM   21  C   UNK N   1      29.512  17.361   4.718  0.00  0.00     0.099 A 
HETATM   22  H   UNK N   1      28.840  18.304   2.963  0.00  0.00     0.165 HD
HETATM   23  C   UNK N   1      26.839  20.918   5.508  0.00  0.00     0.002 A 
HETATM   24  C   UNK N   1      27.081  20.559   6.852  0.00  0.00     0.001 A 
ENDBRANCH   1  15
TORSDOF 9
ENDMDL
MODEL 7
REMARK VINA RESULT:      -6.0      3.978      6.588
REMARK  9 active torsions:
REMARK  status: ('A' for Active; 'I' for Inactive)
REMARK    1  A    between atoms: C_1  and  O_6 
REMARK    2  A    between atoms: C_1  and  C_7 
REMARK    3  A    between atoms: P_2  and  O_3 
REMARK    4  A    between atoms: P_2  and  O_4 
REMARK    5  A    between atoms: P_2  and  O_6 
REMARK    6  A    between atoms: C_7  and  O_8 
REMARK    7  A    between atoms: C_7  and  C_9 
REMARK    8  A    between atoms: C_9  and  O_10 
REMARK    9  A    between atoms: C_9  and  C_11 
ROOT
HETATM    1  C   UNK N   1      36.315  13.838  10.586  0.00  0.00     0.184 C 
ENDROOT
BRANCH   1   2
HETATM    2  C   UNK N   1      35.257  12.911  11.219  0.00  0.00     0.175 C 
BRANCH   2   3
HETATM    3  C   UNK N   1      35.525  12.621  12.695  0.00  0.00     0.215 C 
BRANCH   3   4
HETATM    4  O   UNK N   1      35.124  13.667  13.530  0.00  0.00    -0.294 OA
BRANCH   4   5
HETATM    5  P   UNK N   1      36.036  13.404  14.988  0.00  0.00     0.390 P 
HETATM    6  O   UNK N   1      36.192  12.042  14.263  0.00  0.00    -0.632 OA
BRANCH   5   7
HETATM    7  O   UNK N   1      37.759  13.197  14.953  0.00  0.00    -0.307 OA
HETATM    8  H   UNK N   1      38.291  12.637  14.368  0.00  0.00     0.222 HD
ENDBRANCH   5   7
BRANCH   5   9
HETATM    9  O   UNK N   1      36.798  14.649  14.046  0.00  0.00    -0.307 OA
HETATM   10  H   UNK N   1      36.363  15.461  13.741  0.00  0.00     0.222 HD
ENDBRANCH   5   9
ENDBRANCH   4   5
ENDBRANCH   3   4
ENDBRANCH   2   3
BRANCH   2  11
HETATM   11  O   UNK N   1      35.190  11.705  10.516  0.00  0.00    -0.391 OA
HETATM   12  H   UNK N   1      34.846  10.835  10.772  0.00  0.00     0.210 HD
ENDBRANCH   2  11
ENDBRANCH   1   2
BRANCH   1  13
HETATM   13  O   UNK N   1      37.395  13.985  11.461  0.00  0.00    -0.388 OA
HETATM   14  H   UNK N   1      37.992  14.743  11.552  0.00  0.00     0.210 HD
ENDBRANCH   1  13
BRANCH   1  15
HETATM   15  C   UNK N   1      35.716  15.195  10.273  0.00  0.00     0.001 A 
HETATM   16  C   UNK N   1      35.235  15.651   9.061  0.00  0.00     0.001 A 
HETATM   17  C   UNK N   1      34.819  16.937   9.263  0.00  0.00     0.043 A 
HETATM   18  C   UNK N   1      35.125  15.034   7.815  0.00  0.00     0.014 A 
HETATM   19  N   UNK N   1      35.008  17.315  10.537  0.00  0.00    -0.365 N 
HETATM   20  C   UNK N   1      34.268  17.703   8.236  0.00  0.00     0.030 A 
HETATM   21  C   UNK N   1      35.555  16.247  11.173  0.00  0.00     0.099 A 
HETATM   22  H   UNK N   1      34.793  18.191  10.932  0.00  0.00     0.165 HD
HETATM   23  C   UNK N   1      34.143  17.108   6.968  0.00  0.00     0.002 A 
HETATM   24  C   UNK N   1      34.568  15.777   6.758  0.00  0.00     0.001 A 
ENDBRANCH   1  15
TORSDOF 9
ENDMDL
MODEL 8
REMARK VINA RESULT:      -5.9      5.086      8.118
REMARK  9 active torsions:
REMARK  status: ('A' for Active; 'I' for Inactive)
REMARK    1  A    between atoms: C_1  and  O_6 
REMARK    2  A    between atoms: C_1  and  C_7 
REMARK    3  A    between atoms: P_2  and  O_3 
REMARK    4  A    between atoms: P_2  and  O_4 
REMARK    5  A    between atoms: P_2  and  O_6 
REMARK    6  A    between atoms: C_7  and  O_8 
REMARK    7  A    between atoms: C_7  and  C_9 
REMARK    8  A    between atoms: C_9  and  O_10 
REMARK    9  A    between atoms: C_9  and  C_11 
ROOT
HETATM    1  C   UNK N   1      32.777  17.888   7.970  0.00  0.00     0.184 C 
ENDROOT
BRANCH   1   2
HETATM    2  C   UNK N   1      34.276  17.596   7.759  0.00  0.00     0.175 C 
BRANCH   2   3
HETATM    3  C   UNK N   1      34.846  16.622   8.789  0.00  0.00     0.215 C 
BRANCH   3   4
HETATM    4  O   UNK N   1      35.321  17.267   9.934  0.00  0.00    -0.294 OA
BRANCH   4   5
HETATM    5  P   UNK N   1      35.250  16.035  11.161  0.00  0.00     0.390 P 
HETATM    6  O   UNK N   1      34.458  15.377  10.000  0.00  0.00    -0.632 OA
BRANCH   5   7
HETATM    7  O   UNK N   1      36.067  14.517  10.968  0.00  0.00    -0.307 OA
HETATM    8  H   UNK N   1      35.811  13.754  10.427  0.00  0.00     0.222 HD
ENDBRANCH   5   7
BRANCH   5   9
HETATM    9  O   UNK N   1      36.901  16.270  10.673  0.00  0.00    -0.307 OA
HETATM   10  H   UNK N   1      37.674  15.920  11.141  0.00  0.00     0.222 HD
ENDBRANCH   5   9
ENDBRANCH   4   5
ENDBRANCH   3   4
ENDBRANCH   2   3
BRANCH   2  11
HETATM   11  O   UNK N   1      35.008  18.786   7.794  0.00  0.00    -0.391 OA
HETATM   12  H   UNK N   1      34.721  19.712   7.821  0.00  0.00     0.210 HD
ENDBRANCH   2  11
ENDBRANCH   1   2
BRANCH   1  13
HETATM   13  O   UNK N   1      32.417  17.573   9.284  0.00  0.00    -0.388 OA
HETATM   14  H   UNK N   1      32.449  18.144  10.067  0.00  0.00     0.210 HD
ENDBRANCH   1  13
BRANCH   1  15
HETATM   15  C   UNK N   1      31.935  17.084   6.998  0.00  0.00     0.001 A 
HETATM   16  C   UNK N   1      32.082  16.985   5.629  0.00  0.00     0.001 A 
HETATM   17  C   UNK N   1      31.081  16.168   5.184  0.00  0.00     0.043 A 
HETATM   18  C   UNK N   1      33.018  17.538   4.754  0.00  0.00     0.014 A 
HETATM   19  N   UNK N   1      30.312  15.744   6.200  0.00  0.00    -0.365 N 
HETATM   20  C   UNK N   1      30.935  15.848   3.835  0.00  0.00     0.030 A 
HETATM   21  C   UNK N   1      30.832  16.297   7.326  0.00  0.00     0.099 A 
HETATM   22  H   UNK N   1      29.528  15.151   6.141  0.00  0.00     0.165 HD
HETATM   23  C   UNK N   1      31.864  16.389   2.928  0.00  0.00     0.002 A 
HETATM   24  C   UNK N   1      32.903  17.230   3.386  0.00  0.00     0.001 A 
ENDBRANCH   1  15
TORSDOF 9
ENDMDL
MODEL 9
REMARK VINA RESULT:      -5.8     14.113     15.293
REMARK  9 active torsions:
REMARK  status: ('A' for Active; 'I' for Inactive)
REMARK    1  A    between atoms: C_1  and  O_6 
REMARK    2  A    between atoms: C_1  and  C_7 
REMARK    3  A    between atoms: P_2  and  O_3 
REMARK    4  A    between atoms: P_2  and  O_4 
REMARK    5  A    between atoms: P_2  and  O_6 
REMARK    6  A    between atoms: C_7  and  O_8 
REMARK    7  A    between atoms: C_7  and  C_9 
REMARK    8  A    between atoms: C_9  and  O_10 
REMARK    9  A    between atoms: C_9  and  C_11 
ROOT
HETATM    1  C   UNK N   1      21.870  16.333   6.445  0.00  0.00     0.184 C 
ENDROOT
BRANCH   1   2
HETATM    2  C   UNK N   1      21.075  17.572   5.985  0.00  0.00     0.175 C 
BRANCH   2   3
HETATM    3  C   UNK N   1      21.288  17.904   4.509  0.00  0.00     0.215 C 
BRANCH   3   4
HETATM    4  O   UNK N   1      22.122  19.009   4.321  0.00  0.00    -0.294 OA
BRANCH   4   5
HETATM    5  P   UNK N   1      21.432  19.818   2.945  0.00  0.00     0.390 P 
HETATM    6  O   UNK N   1      20.535  20.332   4.102  0.00  0.00    -0.632 OA
BRANCH   5   7
HETATM    7  O   UNK N   1      21.537  21.541   2.760  0.00  0.00    -0.307 OA
HETATM    8  H   UNK N   1      20.983  22.130   2.226  0.00  0.00     0.222 HD
ENDBRANCH   5   7
BRANCH   5   9
HETATM    9  O   UNK N   1      23.060  20.375   3.186  0.00  0.00    -0.307 OA
HETATM   10  H   UNK N   1      23.840  19.803   3.251  0.00  0.00     0.222 HD
ENDBRANCH   5   9
ENDBRANCH   4   5
ENDBRANCH   3   4
ENDBRANCH   2   3
BRANCH   2  11
HETATM   11  O   UNK N   1      21.418  18.681   6.763  0.00  0.00    -0.391 OA
HETATM   12  H   UNK N   1      22.184  19.276   6.725  0.00  0.00     0.210 HD
ENDBRANCH   2  11
ENDBRANCH   1   2
BRANCH   1  13
HETATM   13  O   UNK N   1      21.965  15.419   5.392  0.00  0.00    -0.388 OA
HETATM   14  H   UNK N   1      21.244  15.000   4.895  0.00  0.00     0.210 HD
ENDBRANCH   1  13
BRANCH   1  15
HETATM   15  C   UNK N   1      21.198  15.679   7.636  0.00  0.00     0.001 A 
HETATM   16  C   UNK N   1      21.623  14.576   8.350  0.00  0.00     0.001 A 
HETATM   17  C   UNK N   1      20.684  14.347   9.316  0.00  0.00     0.043 A 
HETATM   18  C   UNK N   1      22.757  13.772   8.228  0.00  0.00     0.014 A 
HETATM   19  N   UNK N   1      19.691  15.250   9.253  0.00  0.00    -0.365 N 
HETATM   20  C   UNK N   1      20.803  13.299  10.227  0.00  0.00     0.030 A 
HETATM   21  C   UNK N   1      20.000  16.081   8.224  0.00  0.00     0.099 A 
HETATM   22  H   UNK N   1      18.899  15.299   9.834  0.00  0.00     0.165 HD
HETATM   23  C   UNK N   1      21.937  12.472  10.130  0.00  0.00     0.002 A 
HETATM   24  C   UNK N   1      22.911  12.709   9.136  0.00  0.00     0.001 A 
ENDBRANCH   1  15
TORSDOF 9
ENDMDL
