REMARK  9 active torsions:
REMARK  status: ('A' for Active; 'I' for Inactive)
REMARK    1  A    between atoms: C_1  and  O_6 
REMARK    2  A    between atoms: C_1  and  C_7 
REMARK    3  A    between atoms: P_2  and  O_3 
REMARK    4  A    between atoms: P_2  and  O_4 
REMARK    5  A    between atoms: P_2  and  O_6 
REMARK    6  A    between atoms: C_7  and  O_8 
REMARK    7  A    between atoms: C_7  and  C_9 
REMARK    8  A    between atoms: C_9  and  O_10 
REMARK    9  A    between atoms: C_9  and  C_11 
ROOT
HETATM    1  C   UNK N   1      -0.488  -0.013  -0.350  0.00  0.00     0.184 C 
ENDROOT
BRANCH   1   2
HETATM    2  C   UNK N   1      -1.369   1.017   0.386  0.00  0.00     0.175 C 
BRANCH   2   3
HETATM    3  C   UNK N   1      -2.740   0.463   0.771  0.00  0.00     0.215 C 
BRANCH   3   4
HETATM    4  O   UNK N   1      -3.459  -0.007  -0.331  0.00  0.00    -0.294 OA
BRANCH   4   5
HETATM    5  P   UNK N   1      -4.946  -0.585   0.363  0.00  0.00     0.390 P 
HETATM    6  O   UNK N   1      -5.460   0.317  -0.790  0.00  0.00    -0.632 OA
BRANCH   5   7
HETATM    7  O   UNK N   1      -5.995  -1.658  -0.509  0.00  0.00    -0.307 OA
HETATM    8  H   UNK N   1      -6.807  -1.451  -0.996  0.00  0.00     0.222 HD
ENDBRANCH   5   7
BRANCH   5   9
HETATM    9  O   UNK N   1      -4.060  -1.923  -0.303  0.00  0.00    -0.307 OA
HETATM   10  H   UNK N   1      -4.459  -2.725  -0.674  0.00  0.00     0.222 HD
ENDBRANCH   5   9
ENDBRANCH   4   5
ENDBRANCH   3   4
ENDBRANCH   2   3
BRANCH   2  11
HETATM   11  O   UNK N   1      -1.536   2.159  -0.402  0.00  0.00    -0.391 OA
HETATM   12  H   UNK N   1      -0.907   2.655  -0.949  0.00  0.00     0.210 HD
ENDBRANCH   2  11
ENDBRANCH   1   2
BRANCH   1  13
HETATM   13  O   UNK N   1      -0.528  -1.235   0.328  0.00  0.00    -0.388 OA
HETATM   14  H   UNK N   1      -1.276  -1.635   0.798  0.00  0.00     0.210 HD
ENDBRANCH   1  13
BRANCH   1  15
HETATM   15  C   UNK N   1       0.943   0.478  -0.443  0.00  0.00     0.001 A 
HETATM   16  C   UNK N   1       2.090  -0.164  -0.019  0.00  0.00     0.001 A 
HETATM   17  C   UNK N   1       3.134   0.674  -0.293  0.00  0.00     0.043 A 
HETATM   18  C   UNK N   1       2.290  -1.412   0.572  0.00  0.00     0.014 A 
HETATM   19  N   UNK N   1       2.708   1.809  -0.871  0.00  0.00    -0.365 N 
HETATM   20  C   UNK N   1       4.452   0.332   0.006  0.00  0.00     0.030 A 
HETATM   21  C   UNK N   1       1.358   1.698  -0.975  0.00  0.00     0.099 A 
HETATM   22  H   UNK N   1       3.262   2.569  -1.161  0.00  0.00     0.165 HD
HETATM   23  C   UNK N   1       4.686  -0.921   0.601  0.00  0.00     0.002 A 
HETATM   24  C   UNK N   1       3.609  -1.791   0.881  0.00  0.00     0.001 A 
ENDBRANCH   1  15
TORSDOF 9
