MODEL 1
REMARK VINA RESULT:      -6.3      0.000      0.000
REMARK  5 active torsions:
REMARK  status: ('A' for Active; 'I' for Inactive)
REMARK    1  A    between atoms: C_2  and  N_1 
REMARK       I    between atoms: N_1  and  C_13 
REMARK    2  A    between atoms: C_2  and  C_3 
REMARK    3  A    between atoms: C_2  and  C_6 
REMARK    4  A    between atoms: C_3  and  O_12 
REMARK    5  A    between atoms: C_5  and  C_6 
REMARK       I    between atoms: C_13  and  N_14 
ROOT
HETATM    1  C   UNK N   1      33.366  17.514   8.695  0.00  0.00     0.188 C 
ENDROOT
BRANCH   1   2
HETATM    2  N   UNK N   1      33.914  16.317   9.306  0.00  0.00    -0.329 N 
HETATM    3  C   UNK N   1      34.822  16.308  10.316  0.00  0.00     0.314 C 
HETATM    4  N   UNK N   1      35.262  15.134  10.804  0.00  0.00    -0.352 N 
HETATM    5  O   UNK N   1      35.250  17.355  10.783  0.00  0.00    -0.248 OA
HETATM    6  H   UNK N   1      36.215  14.919  10.924  0.00  0.00     0.160 HD
HETATM    7  H   UNK N   1      34.595  14.454  11.055  0.00  0.00     0.160 HD
HETATM    8  H   UNK N   1      33.604  15.447   8.965  0.00  0.00     0.165 HD
ENDBRANCH   1   2
BRANCH   1   9
HETATM    9  C   UNK N   1      34.429  18.239   7.887  0.00  0.00     0.163 C 
HETATM   10  O   UNK N   1      34.561  18.012   6.697  0.00  0.00    -0.648 OA
BRANCH   9  11
HETATM   11  O   UNK N   1      35.229  19.154   8.471  0.00  0.00    -0.775 OA
HETATM   12  H   UNK N   1      35.080  19.651   9.251  0.00  0.00     0.167 HD
ENDBRANCH   9  11
ENDBRANCH   1   9
BRANCH   1  13
HETATM   13  C   UNK N   1      32.219  17.040   7.788  0.00  0.00     0.074 C 
BRANCH  13  14
HETATM   14  C   UNK N   1      30.816  17.497   8.072  0.00  0.00    -0.056 A 
HETATM   15  C   UNK N   1      29.730  17.064   7.299  0.00  0.00     0.007 A 
HETATM   16  C   UNK N   1      28.426  17.429   7.645  0.00  0.00     0.001 A 
HETATM   17  C   UNK N   1      28.196  18.210   8.781  0.00  0.00     0.000 A 
HETATM   18  C   UNK N   1      29.273  18.635   9.564  0.00  0.00     0.001 A 
HETATM   19  C   UNK N   1      30.578  18.276   9.211  0.00  0.00     0.007 A 
ENDBRANCH  13  14
ENDBRANCH   1  13
TORSDOF 5
ENDMDL
MODEL 2
REMARK VINA RESULT:      -5.7      4.732      6.545
REMARK  5 active torsions:
REMARK  status: ('A' for Active; 'I' for Inactive)
REMARK    1  A    between atoms: C_2  and  N_1 
REMARK       I    between atoms: N_1  and  C_13 
REMARK    2  A    between atoms: C_2  and  C_3 
REMARK    3  A    between atoms: C_2  and  C_6 
REMARK    4  A    between atoms: C_3  and  O_12 
REMARK    5  A    between atoms: C_5  and  C_6 
REMARK       I    between atoms: C_13  and  N_14 
ROOT
HETATM    1  C   UNK N   1      28.779  18.493   7.458  0.00  0.00     0.188 C 
ENDROOT
BRANCH   1   2
HETATM    2  N   UNK N   1      27.496  18.655   6.799  0.00  0.00    -0.329 N 
HETATM    3  C   UNK N   1      27.053  19.809   6.236  0.00  0.00     0.314 C 
HETATM    4  N   UNK N   1      25.840  19.842   5.654  0.00  0.00    -0.352 N 
HETATM    5  O   UNK N   1      27.741  20.821   6.258  0.00  0.00    -0.248 OA
HETATM    6  H   UNK N   1      25.166  20.533   5.845  0.00  0.00     0.160 HD
HETATM    7  H   UNK N   1      25.617  19.139   5.003  0.00  0.00     0.160 HD
HETATM    8  H   UNK N   1      26.902  17.871   6.757  0.00  0.00     0.165 HD
ENDBRANCH   1   2
BRANCH   1   9
HETATM    9  C   UNK N   1      28.603  18.397   8.963  0.00  0.00     0.163 C 
HETATM   10  O   UNK N   1      29.528  18.663   9.711  0.00  0.00    -0.648 OA
BRANCH   9  11
HETATM   11  O   UNK N   1      27.418  18.032   9.493  0.00  0.00    -0.775 OA
HETATM   12  H   UNK N   1      26.564  18.077   9.108  0.00  0.00     0.167 HD
ENDBRANCH   9  11
ENDBRANCH   1   9
BRANCH   1  13
HETATM   13  C   UNK N   1      29.384  17.197   6.894  0.00  0.00     0.074 C 
BRANCH  13  14
HETATM   14  C   UNK N   1      30.750  17.229   6.268  0.00  0.00    -0.056 A 
HETATM   15  C   UNK N   1      30.923  17.362   4.885  0.00  0.00     0.007 A 
HETATM   16  C   UNK N   1      32.205  17.487   4.341  0.00  0.00     0.001 A 
HETATM   17  C   UNK N   1      33.322  17.503   5.180  0.00  0.00     0.000 A 
HETATM   18  C   UNK N   1      33.156  17.385   6.563  0.00  0.00     0.001 A 
HETATM   19  C   UNK N   1      31.873  17.251   7.104  0.00  0.00     0.007 A 
ENDBRANCH  13  14
ENDBRANCH   1  13
TORSDOF 5
ENDMDL
MODEL 3
REMARK VINA RESULT:      -5.6      2.959      4.634
REMARK  5 active torsions:
REMARK  status: ('A' for Active; 'I' for Inactive)
REMARK    1  A    between atoms: C_2  and  N_1 
REMARK       I    between atoms: N_1  and  C_13 
REMARK    2  A    between atoms: C_2  and  C_3 
REMARK    3  A    between atoms: C_2  and  C_6 
REMARK    4  A    between atoms: C_3  and  O_12 
REMARK    5  A    between atoms: C_5  and  C_6 
REMARK       I    between atoms: C_13  and  N_14 
ROOT
HETATM    1  C   UNK N   1      33.646  17.632   8.012  0.00  0.00     0.188 C 
ENDROOT
BRANCH   1   2
HETATM    2  N   UNK N   1      32.626  17.112   8.905  0.00  0.00    -0.329 N 
HETATM    3  C   UNK N   1      31.287  17.229   8.705  0.00  0.00     0.314 C 
HETATM    4  N   UNK N   1      30.432  16.709   9.605  0.00  0.00    -0.352 N 
HETATM    5  O   UNK N   1      30.850  17.808   7.720  0.00  0.00    -0.248 OA
HETATM    6  H   UNK N   1      29.680  17.212   9.992  0.00  0.00     0.160 HD
HETATM    7  H   UNK N   1      30.567  15.777   9.890  0.00  0.00     0.160 HD
HETATM    8  H   UNK N   1      32.925  16.640   9.716  0.00  0.00     0.165 HD
ENDBRANCH   1   2
BRANCH   1   9
HETATM    9  C   UNK N   1      34.823  18.179   8.802  0.00  0.00     0.163 C 
HETATM   10  O   UNK N   1      35.285  17.548   9.736  0.00  0.00    -0.648 OA
BRANCH   9  11
HETATM   11  O   UNK N   1      35.381  19.360   8.470  0.00  0.00    -0.775 OA
HETATM   12  H   UNK N   1      35.693  20.041   9.034  0.00  0.00     0.167 HD
ENDBRANCH   9  11
ENDBRANCH   1   9
BRANCH   1  13
HETATM   13  C   UNK N   1      34.080  16.449   7.132  0.00  0.00     0.074 C 
BRANCH  13  14
HETATM   14  C   UNK N   1      33.644  16.397   5.695  0.00  0.00    -0.056 A 
HETATM   15  C   UNK N   1      33.018  17.487   5.076  0.00  0.00     0.007 A 
HETATM   16  C   UNK N   1      32.712  17.446   3.713  0.00  0.00     0.001 A 
HETATM   17  C   UNK N   1      33.050  16.323   2.954  0.00  0.00     0.000 A 
HETATM   18  C   UNK N   1      33.686  15.236   3.561  0.00  0.00     0.001 A 
HETATM   19  C   UNK N   1      33.984  15.276   4.928  0.00  0.00     0.007 A 
ENDBRANCH  13  14
ENDBRANCH   1  13
TORSDOF 5
ENDMDL
MODEL 4
REMARK VINA RESULT:      -5.6     12.164     13.801
REMARK  5 active torsions:
REMARK  status: ('A' for Active; 'I' for Inactive)
REMARK    1  A    between atoms: C_2  and  N_1 
REMARK       I    between atoms: N_1  and  C_13 
REMARK    2  A    between atoms: C_2  and  C_3 
REMARK    3  A    between atoms: C_2  and  C_6 
REMARK    4  A    between atoms: C_3  and  O_12 
REMARK    5  A    between atoms: C_5  and  C_6 
REMARK       I    between atoms: C_13  and  N_14 
ROOT
HETATM    1  C   UNK N   1      20.778  18.798   1.782  0.00  0.00     0.188 C 
ENDROOT
BRANCH   1   2
HETATM    2  N   UNK N   1      19.621  18.148   1.193  0.00  0.00    -0.329 N 
HETATM    3  C   UNK N   1      19.655  16.977   0.506  0.00  0.00     0.314 C 
HETATM    4  N   UNK N   1      18.516  16.468   0.002  0.00  0.00    -0.352 N 
HETATM    5  O   UNK N   1      20.711  16.383   0.334  0.00  0.00    -0.248 OA
HETATM    6  H   UNK N   1      18.422  16.169  -0.931  0.00  0.00     0.160 HD
HETATM    7  H   UNK N   1      17.736  16.392   0.598  0.00  0.00     0.160 HD
HETATM    8  H   UNK N   1      18.746  18.587   1.301  0.00  0.00     0.165 HD
ENDBRANCH   1   2
BRANCH   1   9
HETATM    9  C   UNK N   1      20.931  20.211   1.245  0.00  0.00     0.163 C 
HETATM   10  O   UNK N   1      21.360  21.099   1.961  0.00  0.00    -0.648 OA
BRANCH   9  11
HETATM   11  O   UNK N   1      20.611  20.498  -0.033  0.00  0.00    -0.775 OA
HETATM   12  H   UNK N   1      21.181  20.688  -0.752  0.00  0.00     0.167 HD
ENDBRANCH   9  11
ENDBRANCH   1   9
BRANCH   1  13
HETATM   13  C   UNK N   1      20.530  18.813   3.298  0.00  0.00     0.074 C 
BRANCH  13  14
HETATM   14  C   UNK N   1      21.359  17.932   4.192  0.00  0.00    -0.056 A 
HETATM   15  C   UNK N   1      21.220  17.959   5.585  0.00  0.00     0.007 A 
HETATM   16  C   UNK N   1      21.933  17.061   6.384  0.00  0.00     0.001 A 
HETATM   17  C   UNK N   1      22.774  16.114   5.793  0.00  0.00     0.000 A 
HETATM   18  C   UNK N   1      22.907  16.072   4.402  0.00  0.00     0.001 A 
HETATM   19  C   UNK N   1      22.199  16.978   3.605  0.00  0.00     0.007 A 
ENDBRANCH  13  14
ENDBRANCH   1  13
TORSDOF 5
ENDMDL
MODEL 5
REMARK VINA RESULT:      -5.6      5.697      8.768
REMARK  5 active torsions:
REMARK  status: ('A' for Active; 'I' for Inactive)
REMARK    1  A    between atoms: C_2  and  N_1 
REMARK       I    between atoms: N_1  and  C_13 
REMARK    2  A    between atoms: C_2  and  C_3 
REMARK    3  A    between atoms: C_2  and  C_6 
REMARK    4  A    between atoms: C_3  and  O_12 
REMARK    5  A    between atoms: C_5  and  C_6 
REMARK       I    between atoms: C_13  and  N_14 
ROOT
HETATM    1  C   UNK N   1      36.075  13.857  13.027  0.00  0.00     0.188 C 
ENDROOT
BRANCH   1   2
HETATM    2  N   UNK N   1      36.060  15.181  12.430  0.00  0.00    -0.329 N 
HETATM    3  C   UNK N   1      35.096  15.642  11.592  0.00  0.00     0.314 C 
HETATM    4  N   UNK N   1      35.187  16.890  11.096  0.00  0.00    -0.352 N 
HETATM    5  O   UNK N   1      34.149  14.934  11.277  0.00  0.00    -0.248 OA
HETATM    6  H   UNK N   1      35.095  17.101  10.139  0.00  0.00     0.160 HD
HETATM    7  H   UNK N   1      35.354  17.629  11.724  0.00  0.00     0.160 HD
HETATM    8  H   UNK N   1      36.801  15.789  12.650  0.00  0.00     0.165 HD
ENDBRANCH   1   2
BRANCH   1   9
HETATM    9  C   UNK N   1      36.927  12.907  12.203  0.00  0.00     0.163 C 
HETATM   10  O   UNK N   1      36.600  11.740  12.075  0.00  0.00    -0.648 OA
BRANCH   9  11
HETATM   11  O   UNK N   1      38.046  13.344  11.590  0.00  0.00    -0.775 OA
HETATM   12  H   UNK N   1      38.696  12.848  11.133  0.00  0.00     0.167 HD
ENDBRANCH   9  11
ENDBRANCH   1   9
BRANCH   1  13
HETATM   13  C   UNK N   1      36.661  14.035  14.437  0.00  0.00     0.074 C 
BRANCH  13  14
HETATM   14  C   UNK N   1      36.164  13.168  15.559  0.00  0.00    -0.056 A 
HETATM   15  C   UNK N   1      36.427  11.792  15.598  0.00  0.00     0.007 A 
HETATM   16  C   UNK N   1      36.036  11.029  16.702  0.00  0.00     0.001 A 
HETATM   17  C   UNK N   1      35.400  11.641  17.785  0.00  0.00     0.000 A 
HETATM   18  C   UNK N   1      35.147  13.015  17.760  0.00  0.00     0.001 A 
HETATM   19  C   UNK N   1      35.531  13.776  16.650  0.00  0.00     0.007 A 
ENDBRANCH  13  14
ENDBRANCH   1  13
TORSDOF 5
ENDMDL
MODEL 6
REMARK VINA RESULT:      -5.6     11.352     12.857
REMARK  5 active torsions:
REMARK  status: ('A' for Active; 'I' for Inactive)
REMARK    1  A    between atoms: C_2  and  N_1 
REMARK       I    between atoms: N_1  and  C_13 
REMARK    2  A    between atoms: C_2  and  C_3 
REMARK    3  A    between atoms: C_2  and  C_6 
REMARK    4  A    between atoms: C_3  and  O_12 
REMARK    5  A    between atoms: C_5  and  C_6 
REMARK       I    between atoms: C_13  and  N_14 
ROOT
HETATM    1  C   UNK N   1      20.290  16.283   8.465  0.00  0.00     0.188 C 
ENDROOT
BRANCH   1   2
HETATM    2  N   UNK N   1      20.689  16.548   7.094  0.00  0.00    -0.329 N 
HETATM    3  C   UNK N   1      21.076  17.760   6.620  0.00  0.00     0.314 C 
HETATM    4  N   UNK N   1      21.423  17.888   5.326  0.00  0.00    -0.352 N 
HETATM    5  O   UNK N   1      21.105  18.739   7.353  0.00  0.00    -0.248 OA
HETATM    6  H   UNK N   1      21.062  18.586   4.734  0.00  0.00     0.160 HD
HETATM    7  H   UNK N   1      22.072  17.249   4.953  0.00  0.00     0.160 HD
HETATM    8  H   UNK N   1      20.680  15.793   6.462  0.00  0.00     0.165 HD
ENDBRANCH   1   2
BRANCH   1   9
HETATM    9  C   UNK N   1      19.011  17.030   8.806  0.00  0.00     0.163 C 
HETATM   10  O   UNK N   1      17.926  16.497   8.649  0.00  0.00    -0.648 OA
BRANCH   9  11
HETATM   11  O   UNK N   1      19.060  18.283   9.300  0.00  0.00    -0.775 OA
HETATM   12  H   UNK N   1      19.811  18.813   9.483  0.00  0.00     0.167 HD
ENDBRANCH   9  11
ENDBRANCH   1   9
BRANCH   1  13
HETATM   13  C   UNK N   1      20.077  14.764   8.558  0.00  0.00     0.074 C 
BRANCH  13  14
HETATM   14  C   UNK N   1      20.956  13.949   9.465  0.00  0.00    -0.056 A 
HETATM   15  C   UNK N   1      20.421  13.128  10.466  0.00  0.00     0.007 A 
HETATM   16  C   UNK N   1      21.256  12.308  11.230  0.00  0.00     0.001 A 
HETATM   17  C   UNK N   1      22.631  12.285  10.981  0.00  0.00     0.000 A 
HETATM   18  C   UNK N   1      23.171  13.090   9.974  0.00  0.00     0.001 A 
HETATM   19  C   UNK N   1      22.334  13.917   9.217  0.00  0.00     0.007 A 
ENDBRANCH  13  14
ENDBRANCH   1  13
TORSDOF 5
ENDMDL
MODEL 7
REMARK VINA RESULT:      -5.6      7.808     10.104
REMARK  5 active torsions:
REMARK  status: ('A' for Active; 'I' for Inactive)
REMARK    1  A    between atoms: C_2  and  N_1 
REMARK       I    between atoms: N_1  and  C_13 
REMARK    2  A    between atoms: C_2  and  C_3 
REMARK    3  A    between atoms: C_2  and  C_6 
REMARK    4  A    between atoms: C_3  and  O_12 
REMARK    5  A    between atoms: C_5  and  C_6 
REMARK       I    between atoms: C_13  and  N_14 
ROOT
HETATM    1  C   UNK N   1      35.782  12.887  14.647  0.00  0.00     0.188 C 
ENDROOT
BRANCH   1   2
HETATM    2  N   UNK N   1      35.001  12.681  13.441  0.00  0.00    -0.329 N 
HETATM    3  C   UNK N   1      34.957  11.522  12.734  0.00  0.00     0.314 C 
HETATM    4  N   UNK N   1      34.197  11.447  11.626  0.00  0.00    -0.352 N 
HETATM    5  O   UNK N   1      35.606  10.548  13.088  0.00  0.00    -0.248 OA
HETATM    6  H   UNK N   1      34.528  11.108  10.763  0.00  0.00     0.160 HD
HETATM    7  H   UNK N   1      33.261  11.747  11.682  0.00  0.00     0.160 HD
HETATM    8  H   UNK N   1      34.462  13.436  13.111  0.00  0.00     0.165 HD
ENDBRANCH   1   2
BRANCH   1   9
HETATM    9  C   UNK N   1      36.606  14.160  14.542  0.00  0.00     0.163 C 
HETATM   10  O   UNK N   1      36.404  14.952  13.638  0.00  0.00    -0.648 OA
BRANCH   9  11
HETATM   11  O   UNK N   1      37.558  14.437  15.455  0.00  0.00    -0.775 OA
HETATM   12  H   UNK N   1      38.375  14.881  15.335  0.00  0.00     0.167 HD
ENDBRANCH   9  11
ENDBRANCH   1   9
BRANCH   1  13
HETATM   13  C   UNK N   1      34.768  12.985  15.797  0.00  0.00     0.074 C 
BRANCH  13  14
HETATM   14  C   UNK N   1      35.139  12.465  17.157  0.00  0.00    -0.056 A 
HETATM   15  C   UNK N   1      35.088  13.279  18.296  0.00  0.00     0.007 A 
HETATM   16  C   UNK N   1      35.345  12.743  19.561  0.00  0.00     0.001 A 
HETATM   17  C   UNK N   1      35.633  11.382  19.698  0.00  0.00     0.000 A 
HETATM   18  C   UNK N   1      35.673  10.561  18.568  0.00  0.00     0.001 A 
HETATM   19  C   UNK N   1      35.424  11.102  17.302  0.00  0.00     0.007 A 
ENDBRANCH  13  14
ENDBRANCH   1  13
TORSDOF 5
ENDMDL
MODEL 8
REMARK VINA RESULT:      -5.6      7.783     10.240
REMARK  5 active torsions:
REMARK  status: ('A' for Active; 'I' for Inactive)
REMARK    1  A    between atoms: C_2  and  N_1 
REMARK       I    between atoms: N_1  and  C_13 
REMARK    2  A    between atoms: C_2  and  C_3 
REMARK    3  A    between atoms: C_2  and  C_6 
REMARK    4  A    between atoms: C_3  and  O_12 
REMARK    5  A    between atoms: C_5  and  C_6 
REMARK       I    between atoms: C_13  and  N_14 
ROOT
HETATM    1  C   UNK N   1      35.942  13.130  14.993  0.00  0.00     0.188 C 
ENDROOT
BRANCH   1   2
HETATM    2  N   UNK N   1      35.124  12.960  13.806  0.00  0.00    -0.329 N 
HETATM    3  C   UNK N   1      35.272  11.960  12.898  0.00  0.00     0.314 C 
HETATM    4  N   UNK N   1      34.455  11.904  11.831  0.00  0.00    -0.352 N 
HETATM    5  O   UNK N   1      36.145  11.113  13.037  0.00  0.00    -0.248 OA
HETATM    6  H   UNK N   1      34.777  11.802  10.906  0.00  0.00     0.160 HD
HETATM    7  H   UNK N   1      33.485  11.968  11.983  0.00  0.00     0.160 HD
HETATM    8  H   UNK N   1      34.409  13.617  13.646  0.00  0.00     0.165 HD
ENDBRANCH   1   2
BRANCH   1   9
HETATM    9  C   UNK N   1      36.787  14.388  14.888  0.00  0.00     0.163 C 
HETATM   10  O   UNK N   1      37.469  14.753  15.830  0.00  0.00    -0.648 OA
BRANCH   9  11
HETATM   11  O   UNK N   1      36.806  15.108  13.749  0.00  0.00    -0.775 OA
HETATM   12  H   UNK N   1      36.175  15.727  13.435  0.00  0.00     0.167 HD
ENDBRANCH   9  11
ENDBRANCH   1   9
BRANCH   1  13
HETATM   13  C   UNK N   1      34.962  13.225  16.172  0.00  0.00     0.074 C 
BRANCH  13  14
HETATM   14  C   UNK N   1      35.215  12.415  17.413  0.00  0.00    -0.056 A 
HETATM   15  C   UNK N   1      35.645  11.084  17.347  0.00  0.00     0.007 A 
HETATM   16  C   UNK N   1      35.966  10.386  18.515  0.00  0.00     0.001 A 
HETATM   17  C   UNK N   1      35.882  11.023  19.756  0.00  0.00     0.000 A 
HETATM   18  C   UNK N   1      35.466  12.356  19.828  0.00  0.00     0.001 A 
HETATM   19  C   UNK N   1      35.137  13.050  18.659  0.00  0.00     0.007 A 
ENDBRANCH  13  14
ENDBRANCH   1  13
TORSDOF 5
ENDMDL
MODEL 9
REMARK VINA RESULT:      -5.5      2.192      3.389
REMARK  5 active torsions:
REMARK  status: ('A' for Active; 'I' for Inactive)
REMARK    1  A    between atoms: C_2  and  N_1 
REMARK       I    between atoms: N_1  and  C_13 
REMARK    2  A    between atoms: C_2  and  C_3 
REMARK    3  A    between atoms: C_2  and  C_6 
REMARK    4  A    between atoms: C_3  and  O_12 
REMARK    5  A    between atoms: C_5  and  C_6 
REMARK       I    between atoms: C_13  and  N_14 
ROOT
HETATM    1  C   UNK N   1      32.543  16.288   8.495  0.00  0.00     0.188 C 
ENDROOT
BRANCH   1   2
HETATM    2  N   UNK N   1      33.434  17.342   8.945  0.00  0.00    -0.329 N 
HETATM    3  C   UNK N   1      34.288  18.030   8.145  0.00  0.00     0.314 C 
HETATM    4  N   UNK N   1      35.071  18.988   8.675  0.00  0.00    -0.352 N 
HETATM    5  O   UNK N   1      34.360  17.785   6.948  0.00  0.00    -0.248 OA
HETATM    6  H   UNK N   1      36.042  19.041   8.523  0.00  0.00     0.160 HD
HETATM    7  H   UNK N   1      34.650  19.671   9.245  0.00  0.00     0.160 HD
HETATM    8  H   UNK N   1      33.417  17.577   9.901  0.00  0.00     0.165 HD
ENDBRANCH   1   2
BRANCH   1   9
HETATM    9  C   UNK N   1      32.682  15.056   9.372  0.00  0.00     0.163 C 
HETATM   10  O   UNK N   1      32.904  13.966   8.873  0.00  0.00    -0.648 OA
BRANCH   9  11
HETATM   11  O   UNK N   1      32.578  15.153  10.713  0.00  0.00    -0.775 OA
HETATM   12  H   UNK N   1      31.947  15.627  11.219  0.00  0.00     0.167 HD
ENDBRANCH   9  11
ENDBRANCH   1   9
BRANCH   1  13
HETATM   13  C   UNK N   1      31.122  16.867   8.586  0.00  0.00     0.074 C 
BRANCH  13  14
HETATM   14  C   UNK N   1      30.380  17.208   7.324  0.00  0.00    -0.056 A 
HETATM   15  C   UNK N   1      29.131  17.842   7.352  0.00  0.00     0.007 A 
HETATM   16  C   UNK N   1      28.510  18.234   6.163  0.00  0.00     0.001 A 
HETATM   17  C   UNK N   1      29.145  18.016   4.937  0.00  0.00     0.000 A 
HETATM   18  C   UNK N   1      30.397  17.397   4.902  0.00  0.00     0.001 A 
HETATM   19  C   UNK N   1      31.013  16.997   6.093  0.00  0.00     0.007 A 
ENDBRANCH  13  14
ENDBRANCH   1  13
TORSDOF 5
ENDMDL
