MODEL 1
REMARK VINA RESULT:      -7.1      0.000      0.000
REMARK  6 active torsions:
REMARK  status: ('A' for Active; 'I' for Inactive)
REMARK    1  A    between atoms: S_1  and  N_4 
REMARK    2  A    between atoms: S_1  and  C_5 
REMARK    3  A    between atoms: C_11  and  C_16 
REMARK    4  A    between atoms: N_12  and  C_24 
REMARK    5  A    between atoms: C_16  and  N_22 
REMARK    6  A    between atoms: C_28  and  O_29 
ROOT
HETATM    1  C   UNK N   1      22.338  13.206   9.230  0.00  0.00     0.122 A 
HETATM    2  C   UNK N   1      22.856  13.108   7.930  0.00  0.00     0.046 A 
HETATM    3  C   UNK N   1      22.361  14.139   7.083  0.00  0.00    -0.002 A 
HETATM    4  C   UNK N   1      21.496  15.002   7.712  0.00  0.00     0.132 A 
HETATM    5  S   UNK N   1      21.332  14.524   9.281  0.00  0.00    -0.062 SA
HETATM    6  C   UNK N   1      22.755  14.313   5.674  0.00  0.00     0.041 A 
HETATM    7  C   UNK N   1      22.367  15.307   4.829  0.00  0.00     0.057 A 
HETATM    8  N   UNK N   1      21.442  16.370   5.217  0.00  0.00    -0.238 N 
HETATM    9  S   UNK N   1      20.825  16.380   6.878  0.00  0.00     0.277 S 
HETATM   10  O   UNK N   1      19.293  16.401   6.765  0.00  0.00    -0.199 OA
HETATM   11  O   UNK N   1      21.224  17.743   7.463  0.00  0.00    -0.199 OA
ENDROOT
BRANCH   8  12
HETATM   12  C   UNK N   1      20.989  17.409   4.317  0.00  0.00     0.053 A 
HETATM   13  C   UNK N   1      21.710  18.602   4.128  0.00  0.00     0.067 A 
HETATM   14  C   UNK N   1      21.272  19.587   3.237  0.00  0.00     0.070 A 
HETATM   15  C   UNK N   1      20.084  19.386   2.517  0.00  0.00     0.037 A 
HETATM   16  C   UNK N   1      19.350  18.215   2.694  0.00  0.00     0.005 A 
HETATM   17  C   UNK N   1      19.800  17.239   3.583  0.00  0.00     0.031 A 
BRANCH  14  18
HETATM   18  O   UNK N   1      22.012  20.710   3.085  0.00  0.00    -0.356 OA
HETATM   19  C   UNK N   1      23.363  20.693   2.821  0.00  0.00     0.210 C 
ENDBRANCH  14  18
ENDBRANCH   8  12
BRANCH   7  20
HETATM   20  C   UNK N   1      22.920  15.199   3.428  0.00  0.00     0.330 C 
BRANCH  20  21
HETATM   21  N   UNK N   1      23.204  13.817   3.021  0.00  0.00     0.098 N 
HETATM   22  C   UNK N   1      24.329  13.845   2.072  0.00  0.00     0.299 C 
HETATM   23  C   UNK N   1      23.882  14.163   0.631  0.00  0.00     0.198 C 
HETATM   24  O   UNK N   1      22.561  14.638   0.613  0.00  0.00    -0.388 OA
HETATM   25  C   UNK N   1      21.765  13.543   0.978  0.00  0.00     0.198 C 
HETATM   26  C   UNK N   1      22.024  13.144   2.443  0.00  0.00     0.299 C 
ENDBRANCH  20  21
ENDBRANCH   7  20
BRANCH   1  27
HETATM   27  S   UNK N   1      22.800  12.202  10.630  0.00  0.00     0.263 S 
HETATM   28  O   UNK N   1      21.754  12.149  11.753  0.00  0.00    -0.200 OA
HETATM   29  O   UNK N   1      22.972  10.723  10.254  0.00  0.00    -0.200 OA
BRANCH  27  30
HETATM   30  N   UNK N   1      24.320  12.628  11.417  0.00  0.00    -0.324 N 
HETATM   31  H   UNK N   1      25.275  12.273  11.353  0.00  0.00     0.169 HD
HETATM   32  H   UNK N   1      24.223  13.395  12.081  0.00  0.00     0.169 HD
ENDBRANCH  27  30
ENDBRANCH   1  27
TORSDOF 6
ENDMDL
MODEL 2
REMARK VINA RESULT:      -6.9     10.337     11.861
REMARK  6 active torsions:
REMARK  status: ('A' for Active; 'I' for Inactive)
REMARK    1  A    between atoms: S_1  and  N_4 
REMARK    2  A    between atoms: S_1  and  C_5 
REMARK    3  A    between atoms: C_11  and  C_16 
REMARK    4  A    between atoms: N_12  and  C_24 
REMARK    5  A    between atoms: C_16  and  N_22 
REMARK    6  A    between atoms: C_28  and  O_29 
ROOT
HETATM    1  C   UNK N   1      35.247  14.376  11.165  0.00  0.00     0.122 A 
HETATM    2  C   UNK N   1      34.139  15.225  11.036  0.00  0.00     0.046 A 
HETATM    3  C   UNK N   1      33.805  15.459   9.673  0.00  0.00    -0.002 A 
HETATM    4  C   UNK N   1      34.626  14.807   8.784  0.00  0.00     0.132 A 
HETATM    5  S   UNK N   1      35.746  13.953   9.640  0.00  0.00    -0.062 SA
HETATM    6  C   UNK N   1      32.667  16.282   9.229  0.00  0.00     0.041 A 
HETATM    7  C   UNK N   1      32.258  16.498   7.950  0.00  0.00     0.057 A 
HETATM    8  N   UNK N   1      32.942  15.937   6.786  0.00  0.00    -0.238 N 
HETATM    9  S   UNK N   1      34.352  14.899   7.064  0.00  0.00     0.277 S 
HETATM   10  O   UNK N   1      35.500  15.510   6.245  0.00  0.00    -0.199 OA
HETATM   11  O   UNK N   1      34.021  13.557   6.392  0.00  0.00    -0.199 OA
ENDROOT
BRANCH   8  12
HETATM   12  C   UNK N   1      32.544  16.191   5.419  0.00  0.00     0.053 A 
HETATM   13  C   UNK N   1      31.666  15.338   4.724  0.00  0.00     0.067 A 
HETATM   14  C   UNK N   1      31.271  15.610   3.411  0.00  0.00     0.070 A 
HETATM   15  C   UNK N   1      31.763  16.756   2.765  0.00  0.00     0.037 A 
HETATM   16  C   UNK N   1      32.639  17.609   3.432  0.00  0.00     0.005 A 
HETATM   17  C   UNK N   1      33.022  17.329   4.743  0.00  0.00     0.031 A 
BRANCH  14  18
HETATM   18  O   UNK N   1      30.414  14.762   2.794  0.00  0.00    -0.356 OA
HETATM   19  C   UNK N   1      29.070  15.023   2.647  0.00  0.00     0.210 C 
ENDBRANCH  14  18
ENDBRANCH   8  12
BRANCH   7  20
HETATM   20  C   UNK N   1      31.067  17.417   7.810  0.00  0.00     0.330 C 
BRANCH  20  21
HETATM   21  N   UNK N   1      29.783  16.741   8.039  0.00  0.00     0.098 N 
HETATM   22  C   UNK N   1      28.991  16.842   6.802  0.00  0.00     0.299 C 
HETATM   23  C   UNK N   1      28.247  18.188   6.681  0.00  0.00     0.198 C 
HETATM   24  O   UNK N   1      28.728  19.108   7.625  0.00  0.00    -0.388 OA
HETATM   25  C   UNK N   1      28.324  18.610   8.873  0.00  0.00     0.198 C 
HETATM   26  C   UNK N   1      29.052  17.293   9.196  0.00  0.00     0.299 C 
ENDBRANCH  20  21
ENDBRANCH   7  20
BRANCH   1  27
HETATM   27  S   UNK N   1      35.908  13.723  12.687  0.00  0.00     0.263 S 
HETATM   28  O   UNK N   1      34.882  13.001  13.573  0.00  0.00    -0.200 OA
HETATM   29  O   UNK N   1      36.969  12.640  12.444  0.00  0.00    -0.200 OA
BRANCH  27  30
HETATM   30  N   UNK N   1      36.710  14.885  13.743  0.00  0.00    -0.324 N 
HETATM   31  H   UNK N   1      37.550  15.460  13.656  0.00  0.00     0.169 HD
HETATM   32  H   UNK N   1      36.232  15.011  14.634  0.00  0.00     0.169 HD
ENDBRANCH  27  30
ENDBRANCH   1  27
TORSDOF 6
ENDMDL
MODEL 3
REMARK VINA RESULT:      -6.7     14.865     15.903
REMARK  6 active torsions:
REMARK  status: ('A' for Active; 'I' for Inactive)
REMARK    1  A    between atoms: S_1  and  N_4 
REMARK    2  A    between atoms: S_1  and  C_5 
REMARK    3  A    between atoms: C_11  and  C_16 
REMARK    4  A    between atoms: N_12  and  C_24 
REMARK    5  A    between atoms: C_16  and  N_22 
REMARK    6  A    between atoms: C_28  and  O_29 
ROOT
HETATM    1  C   UNK N   1      32.876  20.187  -4.653  0.00  0.00     0.122 A 
HETATM    2  C   UNK N   1      31.698  20.214  -5.413  0.00  0.00     0.046 A 
HETATM    3  C   UNK N   1      30.917  21.372  -5.140  0.00  0.00    -0.002 A 
HETATM    4  C   UNK N   1      31.479  22.209  -4.207  0.00  0.00     0.132 A 
HETATM    5  S   UNK N   1      32.910  21.555  -3.715  0.00  0.00    -0.062 SA
HETATM    6  C   UNK N   1      29.645  21.689  -5.812  0.00  0.00     0.041 A 
HETATM    7  C   UNK N   1      28.882  22.802  -5.643  0.00  0.00     0.057 A 
HETATM    8  N   UNK N   1      29.224  23.872  -4.706  0.00  0.00    -0.238 N 
HETATM    9  S   UNK N   1      30.724  23.721  -3.774  0.00  0.00     0.277 S 
HETATM   10  O   UNK N   1      30.325  23.861  -2.297  0.00  0.00    -0.199 OA
HETATM   11  O   UNK N   1      31.550  24.972  -4.110  0.00  0.00    -0.199 OA
ENDROOT
BRANCH   8  12
HETATM   12  C   UNK N   1      28.401  25.041  -4.486  0.00  0.00     0.053 A 
HETATM   13  C   UNK N   1      28.667  26.273  -5.112  0.00  0.00     0.067 A 
HETATM   14  C   UNK N   1      27.849  27.388  -4.908  0.00  0.00     0.070 A 
HETATM   15  C   UNK N   1      26.738  27.282  -4.055  0.00  0.00     0.037 A 
HETATM   16  C   UNK N   1      26.461  26.074  -3.419  0.00  0.00     0.005 A 
HETATM   17  C   UNK N   1      27.282  24.968  -3.635  0.00  0.00     0.031 A 
BRANCH  14  18
HETATM   18  O   UNK N   1      28.145  28.545  -5.546  0.00  0.00    -0.356 OA
HETATM   19  C   UNK N   1      27.965  28.727  -6.899  0.00  0.00     0.210 C 
ENDBRANCH  14  18
ENDBRANCH   8  12
BRANCH   7  20
HETATM   20  C   UNK N   1      27.609  22.829  -6.456  0.00  0.00     0.330 C 
BRANCH  20  21
HETATM   21  N   UNK N   1      27.830  23.176  -7.867  0.00  0.00     0.098 N 
HETATM   22  C   UNK N   1      27.423  24.577  -8.058  0.00  0.00     0.299 C 
HETATM   23  C   UNK N   1      25.903  24.730  -8.272  0.00  0.00     0.198 C 
HETATM   24  O   UNK N   1      25.232  23.542  -7.944  0.00  0.00    -0.388 OA
HETATM   25  C   UNK N   1      25.619  22.612  -8.920  0.00  0.00     0.198 C 
HETATM   26  C   UNK N   1      27.115  22.273  -8.790  0.00  0.00     0.299 C 
ENDBRANCH  20  21
ENDBRANCH   7  20
BRANCH   1  27
HETATM   27  S   UNK N   1      34.192  18.991  -4.785  0.00  0.00     0.263 S 
HETATM   28  O   UNK N   1      35.564  19.492  -4.311  0.00  0.00    -0.200 OA
HETATM   29  O   UNK N   1      33.953  17.761  -3.897  0.00  0.00    -0.200 OA
BRANCH  27  30
HETATM   30  N   UNK N   1      34.464  18.316  -6.392  0.00  0.00    -0.324 N 
HETATM   31  H   UNK N   1      33.849  18.037  -7.158  0.00  0.00     0.169 HD
HETATM   32  H   UNK N   1      35.451  18.173  -6.603  0.00  0.00     0.169 HD
ENDBRANCH  27  30
ENDBRANCH   1  27
TORSDOF 6
ENDMDL
MODEL 4
REMARK VINA RESULT:      -6.7      5.495      8.367
REMARK  6 active torsions:
REMARK  status: ('A' for Active; 'I' for Inactive)
REMARK    1  A    between atoms: S_1  and  N_4 
REMARK    2  A    between atoms: S_1  and  C_5 
REMARK    3  A    between atoms: C_11  and  C_16 
REMARK    4  A    between atoms: N_12  and  C_24 
REMARK    5  A    between atoms: C_16  and  N_22 
REMARK    6  A    between atoms: C_28  and  O_29 
ROOT
HETATM    1  C   UNK N   1      22.506  19.552   3.180  0.00  0.00     0.122 A 
HETATM    2  C   UNK N   1      22.803  18.230   3.543  0.00  0.00     0.046 A 
HETATM    3  C   UNK N   1      24.141  18.096   4.011  0.00  0.00    -0.002 A 
HETATM    4  C   UNK N   1      24.845  19.276   4.012  0.00  0.00     0.132 A 
HETATM    5  S   UNK N   1      23.859  20.473   3.453  0.00  0.00    -0.062 SA
HETATM    6  C   UNK N   1      24.726  16.834   4.494  0.00  0.00     0.041 A 
HETATM    7  C   UNK N   1      25.972  16.649   5.008  0.00  0.00     0.057 A 
HETATM    8  N   UNK N   1      26.954  17.725   5.129  0.00  0.00    -0.238 N 
HETATM    9  S   UNK N   1      26.482  19.353   4.611  0.00  0.00     0.277 S 
HETATM   10  O   UNK N   1      27.539  19.800   3.590  0.00  0.00    -0.199 OA
HETATM   11  O   UNK N   1      26.674  20.254   5.841  0.00  0.00    -0.199 OA
ENDROOT
BRANCH   8  12
HETATM   12  C   UNK N   1      28.297  17.535   5.634  0.00  0.00     0.053 A 
HETATM   13  C   UNK N   1      28.599  17.619   7.006  0.00  0.00     0.067 A 
HETATM   14  C   UNK N   1      29.897  17.409   7.482  0.00  0.00     0.070 A 
HETATM   15  C   UNK N   1      30.925  17.113   6.573  0.00  0.00     0.037 A 
HETATM   16  C   UNK N   1      30.650  17.033   5.210  0.00  0.00     0.005 A 
HETATM   17  C   UNK N   1      29.350  17.240   4.749  0.00  0.00     0.031 A 
BRANCH  14  18
HETATM   18  O   UNK N   1      30.128  17.490   8.813  0.00  0.00    -0.356 OA
HETATM   19  C   UNK N   1      29.920  18.636   9.547  0.00  0.00     0.210 C 
ENDBRANCH  14  18
ENDBRANCH   8  12
BRANCH   7  20
HETATM   20  C   UNK N   1      26.294  15.225   5.394  0.00  0.00     0.330 C 
BRANCH  20  21
HETATM   21  N   UNK N   1      26.102  14.269   4.296  0.00  0.00     0.098 N 
HETATM   22  C   UNK N   1      26.227  12.911   4.849  0.00  0.00     0.299 C 
HETATM   23  C   UNK N   1      27.695  12.453   4.974  0.00  0.00     0.198 C 
HETATM   24  O   UNK N   1      28.570  13.538   4.808  0.00  0.00    -0.388 OA
HETATM   25  C   UNK N   1      28.447  13.916   3.463  0.00  0.00     0.198 C 
HETATM   26  C   UNK N   1      27.046  14.489   3.183  0.00  0.00     0.299 C 
ENDBRANCH  20  21
ENDBRANCH   7  20
BRANCH   1  27
HETATM   27  S   UNK N   1      20.914  20.177   2.675  0.00  0.00     0.263 S 
HETATM   28  O   UNK N   1      20.109  20.857   3.792  0.00  0.00    -0.200 OA
HETATM   29  O   UNK N   1      21.032  21.284   1.617  0.00  0.00    -0.200 OA
BRANCH  27  30
HETATM   30  N   UNK N   1      19.817  19.001   1.950  0.00  0.00    -0.324 N 
HETATM   31  H   UNK N   1      19.848  17.989   1.819  0.00  0.00     0.169 HD
HETATM   32  H   UNK N   1      18.966  19.424   1.581  0.00  0.00     0.169 HD
ENDBRANCH  27  30
ENDBRANCH   1  27
TORSDOF 6
ENDMDL
MODEL 5
REMARK VINA RESULT:      -6.7     13.719     17.329
REMARK  6 active torsions:
REMARK  status: ('A' for Active; 'I' for Inactive)
REMARK    1  A    between atoms: S_1  and  N_4 
REMARK    2  A    between atoms: S_1  and  C_5 
REMARK    3  A    between atoms: C_11  and  C_16 
REMARK    4  A    between atoms: N_12  and  C_24 
REMARK    5  A    between atoms: C_16  and  N_22 
REMARK    6  A    between atoms: C_28  and  O_29 
ROOT
HETATM    1  C   UNK N   1      34.603  16.324   8.815  0.00  0.00     0.122 A 
HETATM    2  C   UNK N   1      34.505  16.020  10.180  0.00  0.00     0.046 A 
HETATM    3  C   UNK N   1      34.924  14.688  10.458  0.00  0.00    -0.002 A 
HETATM    4  C   UNK N   1      35.335  13.996   9.344  0.00  0.00     0.132 A 
HETATM    5  S   UNK N   1      35.194  14.986   8.034  0.00  0.00    -0.062 SA
HETATM    6  C   UNK N   1      34.965  14.098  11.807  0.00  0.00     0.041 A 
HETATM    7  C   UNK N   1      35.409  12.859  12.149  0.00  0.00     0.057 A 
HETATM    8  N   UNK N   1      35.903  11.889  11.172  0.00  0.00    -0.238 N 
HETATM    9  S   UNK N   1      35.956  12.370   9.467  0.00  0.00     0.277 S 
HETATM   10  O   UNK N   1      35.164  11.302   8.697  0.00  0.00    -0.199 OA
HETATM   11  O   UNK N   1      37.420  12.206   9.033  0.00  0.00    -0.199 OA
ENDROOT
BRANCH   8  12
HETATM   12  C   UNK N   1      36.339  10.553  11.516  0.00  0.00     0.053 A 
HETATM   13  C   UNK N   1      35.435   9.481  11.646  0.00  0.00     0.067 A 
HETATM   14  C   UNK N   1      35.874   8.190  11.956  0.00  0.00     0.070 A 
HETATM   15  C   UNK N   1      37.245   7.954  12.146  0.00  0.00     0.037 A 
HETATM   16  C   UNK N   1      38.156   9.002  12.029  0.00  0.00     0.005 A 
HETATM   17  C   UNK N   1      37.706  10.285  11.716  0.00  0.00     0.031 A 
BRANCH  14  18
HETATM   18  O   UNK N   1      34.962   7.195  12.056  0.00  0.00    -0.356 OA
HETATM   19  C   UNK N   1      34.066   6.889  11.056  0.00  0.00     0.210 C 
ENDBRANCH  14  18
ENDBRANCH   8  12
BRANCH   7  20
HETATM   20  C   UNK N   1      35.300  12.528  13.618  0.00  0.00     0.330 C 
BRANCH  20  21
HETATM   21  N   UNK N   1      36.562  12.704  14.348  0.00  0.00     0.098 N 
HETATM   22  C   UNK N   1      36.854  11.449  15.059  0.00  0.00     0.299 C 
HETATM   23  C   UNK N   1      36.106  11.340  16.404  0.00  0.00     0.198 C 
HETATM   24  O   UNK N   1      35.105  12.320  16.497  0.00  0.00    -0.388 OA
HETATM   25  C   UNK N   1      35.786  13.543  16.587  0.00  0.00     0.198 C 
HETATM   26  C   UNK N   1      36.525  13.854  15.273  0.00  0.00     0.299 C 
ENDBRANCH  20  21
ENDBRANCH   7  20
BRANCH   1  27
HETATM   27  S   UNK N   1      34.309  17.915   8.063  0.00  0.00     0.263 S 
HETATM   28  O   UNK N   1      35.254  19.030   8.533  0.00  0.00    -0.200 OA
HETATM   29  O   UNK N   1      34.538  17.892   6.545  0.00  0.00    -0.200 OA
BRANCH  27  30
HETATM   30  N   UNK N   1      32.680  18.566   8.245  0.00  0.00    -0.324 N 
HETATM   31  H   UNK N   1      32.196  19.383   7.868  0.00  0.00     0.169 HD
HETATM   32  H   UNK N   1      32.093  18.005   8.861  0.00  0.00     0.169 HD
ENDBRANCH  27  30
ENDBRANCH   1  27
TORSDOF 6
ENDMDL
MODEL 6
REMARK VINA RESULT:      -6.7      7.137      7.831
REMARK  6 active torsions:
REMARK  status: ('A' for Active; 'I' for Inactive)
REMARK    1  A    between atoms: S_1  and  N_4 
REMARK    2  A    between atoms: S_1  and  C_5 
REMARK    3  A    between atoms: C_11  and  C_16 
REMARK    4  A    between atoms: N_12  and  C_24 
REMARK    5  A    between atoms: C_16  and  N_22 
REMARK    6  A    between atoms: C_28  and  O_29 
ROOT
HETATM    1  C   UNK N   1      32.513  17.059   7.583  0.00  0.00     0.122 A 
HETATM    2  C   UNK N   1      32.071  16.423   6.413  0.00  0.00     0.046 A 
HETATM    3  C   UNK N   1      30.659  16.519   6.260  0.00  0.00    -0.002 A 
HETATM    4  C   UNK N   1      30.039  17.208   7.274  0.00  0.00     0.132 A 
HETATM    5  S   UNK N   1      31.189  17.701   8.348  0.00  0.00    -0.062 SA
HETATM    6  C   UNK N   1      29.913  15.976   5.111  0.00  0.00     0.041 A 
HETATM    7  C   UNK N   1      28.578  16.084   4.874  0.00  0.00     0.057 A 
HETATM    8  N   UNK N   1      27.655  16.760   5.785  0.00  0.00    -0.238 N 
HETATM    9  S   UNK N   1      28.320  17.504   7.250  0.00  0.00     0.277 S 
HETATM   10  O   UNK N   1      27.531  16.908   8.426  0.00  0.00    -0.199 OA
HETATM   11  O   UNK N   1      27.923  18.986   7.182  0.00  0.00    -0.199 OA
ENDROOT
BRANCH   8  12
HETATM   12  C   UNK N   1      26.228  16.845   5.566  0.00  0.00     0.053 A 
HETATM   13  C   UNK N   1      25.640  17.920   4.872  0.00  0.00     0.067 A 
HETATM   14  C   UNK N   1      24.261  17.977   4.648  0.00  0.00     0.070 A 
HETATM   15  C   UNK N   1      23.441  16.944   5.128  0.00  0.00     0.037 A 
HETATM   16  C   UNK N   1      24.001  15.875   5.824  0.00  0.00     0.005 A 
HETATM   17  C   UNK N   1      25.378  15.828   6.038  0.00  0.00     0.031 A 
BRANCH  14  18
HETATM   18  O   UNK N   1      23.751  19.027   3.963  0.00  0.00    -0.356 OA
HETATM   19  C   UNK N   1      24.531  20.024   3.420  0.00  0.00     0.210 C 
ENDBRANCH  14  18
ENDBRANCH   8  12
BRANCH   7  20
HETATM   20  C   UNK N   1      28.100  15.395   3.618  0.00  0.00     0.330 C 
BRANCH  20  21
HETATM   21  N   UNK N   1      28.438  13.966   3.575  0.00  0.00     0.098 N 
HETATM   22  C   UNK N   1      28.113  13.463   2.230  0.00  0.00     0.299 C 
HETATM   23  C   UNK N   1      26.622  13.102   2.075  0.00  0.00     0.198 C 
HETATM   24  O   UNK N   1      25.873  13.609   3.148  0.00  0.00    -0.388 OA
HETATM   25  C   UNK N   1      26.282  12.875   4.270  0.00  0.00     0.198 C 
HETATM   26  C   UNK N   1      27.747  13.191   4.624  0.00  0.00     0.299 C 
ENDBRANCH  20  21
ENDBRANCH   7  20
BRANCH   1  27
HETATM   27  S   UNK N   1      34.210  17.290   8.082  0.00  0.00     0.263 S 
HETATM   28  O   UNK N   1      35.206  16.317   7.436  0.00  0.00    -0.200 OA
HETATM   29  O   UNK N   1      34.757  18.663   7.666  0.00  0.00    -0.200 OA
BRANCH  27  30
HETATM   30  N   UNK N   1      34.523  17.207   9.816  0.00  0.00    -0.324 N 
HETATM   31  H   UNK N   1      34.975  17.831  10.486  0.00  0.00     0.169 HD
HETATM   32  H   UNK N   1      34.177  16.349  10.243  0.00  0.00     0.169 HD
ENDBRANCH  27  30
ENDBRANCH   1  27
TORSDOF 6
ENDMDL
MODEL 7
REMARK VINA RESULT:      -6.7     13.878     17.488
REMARK  6 active torsions:
REMARK  status: ('A' for Active; 'I' for Inactive)
REMARK    1  A    between atoms: S_1  and  N_4 
REMARK    2  A    between atoms: S_1  and  C_5 
REMARK    3  A    between atoms: C_11  and  C_16 
REMARK    4  A    between atoms: N_12  and  C_24 
REMARK    5  A    between atoms: C_16  and  N_22 
REMARK    6  A    between atoms: C_28  and  O_29 
ROOT
HETATM    1  C   UNK N   1      34.650  16.351   9.100  0.00  0.00     0.122 A 
HETATM    2  C   UNK N   1      34.826  16.204  10.484  0.00  0.00     0.046 A 
HETATM    3  C   UNK N   1      35.144  14.862  10.838  0.00  0.00    -0.002 A 
HETATM    4  C   UNK N   1      35.215  14.010   9.762  0.00  0.00     0.132 A 
HETATM    5  S   UNK N   1      34.897  14.871   8.393  0.00  0.00    -0.062 SA
HETATM    6  C   UNK N   1      35.419  14.412  12.214  0.00  0.00     0.041 A 
HETATM    7  C   UNK N   1      35.786  13.165  12.612  0.00  0.00     0.057 A 
HETATM    8  N   UNK N   1      35.937  12.042  11.688  0.00  0.00    -0.238 N 
HETATM    9  S   UNK N   1      35.660  12.335   9.962  0.00  0.00     0.277 S 
HETATM   10  O   UNK N   1      34.602  11.313   9.519  0.00  0.00    -0.199 OA
HETATM   11  O   UNK N   1      36.963  11.927   9.256  0.00  0.00    -0.199 OA
ENDROOT
BRANCH   8  12
HETATM   12  C   UNK N   1      36.285  10.700  12.103  0.00  0.00     0.053 A 
HETATM   13  C   UNK N   1      37.573  10.371  12.565  0.00  0.00     0.067 A 
HETATM   14  C   UNK N   1      37.889   9.075  12.985  0.00  0.00     0.070 A 
HETATM   15  C   UNK N   1      36.903   8.076  12.941  0.00  0.00     0.037 A 
HETATM   16  C   UNK N   1      35.624   8.379  12.480  0.00  0.00     0.005 A 
HETATM   17  C   UNK N   1      35.321   9.676  12.067  0.00  0.00     0.031 A 
BRANCH  14  18
HETATM   18  O   UNK N   1      39.140   8.817  13.433  0.00  0.00    -0.356 OA
HETATM   19  C   UNK N   1      39.434   8.592  14.759  0.00  0.00     0.210 C 
ENDBRANCH  14  18
ENDBRANCH   8  12
BRANCH   7  20
HETATM   20  C   UNK N   1      35.970  13.003  14.102  0.00  0.00     0.330 C 
BRANCH  20  21
HETATM   21  N   UNK N   1      34.702  12.912  14.837  0.00  0.00     0.098 N 
HETATM   22  C   UNK N   1      34.971  13.230  16.249  0.00  0.00     0.299 C 
HETATM   23  C   UNK N   1      35.502  12.018  17.041  0.00  0.00     0.198 C 
HETATM   24  O   UNK N   1      35.880  10.983  16.171  0.00  0.00    -0.388 OA
HETATM   25  C   UNK N   1      34.685  10.517  15.602  0.00  0.00     0.198 C 
HETATM   26  C   UNK N   1      34.059  11.591  14.693  0.00  0.00     0.299 C 
ENDBRANCH  20  21
ENDBRANCH   7  20
BRANCH   1  27
HETATM   27  S   UNK N   1      34.376  17.882   8.228  0.00  0.00     0.263 S 
HETATM   28  O   UNK N   1      35.312  19.029   8.636  0.00  0.00    -0.200 OA
HETATM   29  O   UNK N   1      34.640  17.748   6.721  0.00  0.00    -0.200 OA
BRANCH  27  30
HETATM   30  N   UNK N   1      32.744  18.545   8.323  0.00  0.00    -0.324 N 
HETATM   31  H   UNK N   1      32.354  19.484   8.232  0.00  0.00     0.169 HD
HETATM   32  H   UNK N   1      32.037  17.837   8.511  0.00  0.00     0.169 HD
ENDBRANCH  27  30
ENDBRANCH   1  27
TORSDOF 6
ENDMDL
MODEL 8
REMARK VINA RESULT:      -6.6      7.251      8.199
REMARK  6 active torsions:
REMARK  status: ('A' for Active; 'I' for Inactive)
REMARK    1  A    between atoms: S_1  and  N_4 
REMARK    2  A    between atoms: S_1  and  C_5 
REMARK    3  A    between atoms: C_11  and  C_16 
REMARK    4  A    between atoms: N_12  and  C_24 
REMARK    5  A    between atoms: C_16  and  N_22 
REMARK    6  A    between atoms: C_28  and  O_29 
ROOT
HETATM    1  C   UNK N   1      32.566  17.058   8.021  0.00  0.00     0.122 A 
HETATM    2  C   UNK N   1      32.148  16.108   7.078  0.00  0.00     0.046 A 
HETATM    3  C   UNK N   1      30.739  16.145   6.878  0.00  0.00    -0.002 A 
HETATM    4  C   UNK N   1      30.098  17.094   7.637  0.00  0.00     0.132 A 
HETATM    5  S   UNK N   1      31.226  17.885   8.543  0.00  0.00    -0.062 SA
HETATM    6  C   UNK N   1      30.017  15.287   5.922  0.00  0.00     0.041 A 
HETATM    7  C   UNK N   1      28.687  15.312   5.639  0.00  0.00     0.057 A 
HETATM    8  N   UNK N   1      27.746  16.216   6.297  0.00  0.00    -0.238 N 
HETATM    9  S   UNK N   1      28.380  17.357   7.496  0.00  0.00     0.277 S 
HETATM   10  O   UNK N   1      27.569  17.122   8.780  0.00  0.00    -0.199 OA
HETATM   11  O   UNK N   1      27.982  18.753   6.994  0.00  0.00    -0.199 OA
ENDROOT
BRANCH   8  12
HETATM   12  C   UNK N   1      26.323  16.224   6.037  0.00  0.00     0.053 A 
HETATM   13  C   UNK N   1      25.432  15.372   6.718  0.00  0.00     0.067 A 
HETATM   14  C   UNK N   1      24.056  15.407   6.472  0.00  0.00     0.070 A 
HETATM   15  C   UNK N   1      23.548  16.308   5.523  0.00  0.00     0.037 A 
HETATM   16  C   UNK N   1      24.412  17.155   4.832  0.00  0.00     0.005 A 
HETATM   17  C   UNK N   1      25.782  17.112   5.089  0.00  0.00     0.031 A 
BRANCH  14  18
HETATM   18  O   UNK N   1      23.245  14.574   7.165  0.00  0.00    -0.356 OA
HETATM   19  C   UNK N   1      21.946  14.890   7.496  0.00  0.00     0.210 C 
ENDBRANCH  14  18
ENDBRANCH   8  12
BRANCH   7  20
HETATM   20  C   UNK N   1      28.235  14.285   4.628  0.00  0.00     0.330 C 
BRANCH  20  21
HETATM   21  N   UNK N   1      28.818  14.488   3.295  0.00  0.00     0.098 N 
HETATM   22  C   UNK N   1      28.057  15.556   2.625  0.00  0.00     0.299 C 
HETATM   23  C   UNK N   1      26.762  15.040   1.966  0.00  0.00     0.198 C 
HETATM   24  O   UNK N   1      26.464  13.741   2.405  0.00  0.00    -0.388 OA
HETATM   25  C   UNK N   1      27.467  12.923   1.864  0.00  0.00     0.198 C 
HETATM   26  C   UNK N   1      28.835  13.250   2.491  0.00  0.00     0.299 C 
ENDBRANCH  20  21
ENDBRANCH   7  20
BRANCH   1  27
HETATM   27  S   UNK N   1      34.252  17.437   8.464  0.00  0.00     0.263 S 
HETATM   28  O   UNK N   1      35.313  16.697   7.636  0.00  0.00    -0.200 OA
HETATM   29  O   UNK N   1      34.600  18.913   8.221  0.00  0.00    -0.200 OA
BRANCH  27  30
HETATM   30  N   UNK N   1      34.689  17.161  10.150  0.00  0.00    -0.324 N 
HETATM   31  H   UNK N   1      34.328  17.504  11.041  0.00  0.00     0.169 HD
HETATM   32  H   UNK N   1      35.473  16.519  10.259  0.00  0.00     0.169 HD
ENDBRANCH  27  30
ENDBRANCH   1  27
TORSDOF 6
ENDMDL
MODEL 9
REMARK VINA RESULT:      -6.6      6.342      8.821
REMARK  6 active torsions:
REMARK  status: ('A' for Active; 'I' for Inactive)
REMARK    1  A    between atoms: S_1  and  N_4 
REMARK    2  A    between atoms: S_1  and  C_5 
REMARK    3  A    between atoms: C_11  and  C_16 
REMARK    4  A    between atoms: N_12  and  C_24 
REMARK    5  A    between atoms: C_16  and  N_22 
REMARK    6  A    between atoms: C_28  and  O_29 
ROOT
HETATM    1  C   UNK N   1      23.483  19.099   3.747  0.00  0.00     0.122 A 
HETATM    2  C   UNK N   1      23.938  17.776   3.843  0.00  0.00     0.046 A 
HETATM    3  C   UNK N   1      25.283  17.710   4.306  0.00  0.00    -0.002 A 
HETATM    4  C   UNK N   1      25.839  18.941   4.561  0.00  0.00     0.132 A 
HETATM    5  S   UNK N   1      24.715  20.100   4.231  0.00  0.00    -0.062 SA
HETATM    6  C   UNK N   1      26.017  16.454   4.539  0.00  0.00     0.041 A 
HETATM    7  C   UNK N   1      27.276  16.319   5.034  0.00  0.00     0.057 A 
HETATM    8  N   UNK N   1      28.122  17.457   5.392  0.00  0.00    -0.238 N 
HETATM    9  S   UNK N   1      27.455  19.088   5.202  0.00  0.00     0.277 S 
HETATM   10  O   UNK N   1      28.449  19.855   4.317  0.00  0.00    -0.199 OA
HETATM   11  O   UNK N   1      27.538  19.737   6.592  0.00  0.00    -0.199 OA
ENDROOT
BRANCH   8  12
HETATM   12  C   UNK N   1      29.478  17.329   5.880  0.00  0.00     0.053 A 
HETATM   13  C   UNK N   1      30.587  17.326   5.014  0.00  0.00     0.067 A 
HETATM   14  C   UNK N   1      31.894  17.225   5.502  0.00  0.00     0.070 A 
HETATM   15  C   UNK N   1      32.107  17.120   6.886  0.00  0.00     0.037 A 
HETATM   16  C   UNK N   1      31.023  17.113   7.760  0.00  0.00     0.005 A 
HETATM   17  C   UNK N   1      29.725  17.218   7.261  0.00  0.00     0.031 A 
BRANCH  14  18
HETATM   18  O   UNK N   1      32.925  17.240   4.625  0.00  0.00    -0.356 OA
HETATM   19  C   UNK N   1      32.782  16.937   3.289  0.00  0.00     0.210 C 
ENDBRANCH  14  18
ENDBRANCH   8  12
BRANCH   7  20
HETATM   20  C   UNK N   1      27.769  14.895   5.133  0.00  0.00     0.330 C 
BRANCH  20  21
HETATM   21  N   UNK N   1      27.923  14.242   3.826  0.00  0.00     0.098 N 
HETATM   22  C   UNK N   1      27.690  12.800   4.009  0.00  0.00     0.299 C 
HETATM   23  C   UNK N   1      28.942  12.055   4.514  0.00  0.00     0.198 C 
HETATM   24  O   UNK N   1      29.916  12.963   4.958  0.00  0.00    -0.388 OA
HETATM   25  C   UNK N   1      30.360  13.629   3.806  0.00  0.00     0.198 C 
HETATM   26  C   UNK N   1      29.241  14.504   3.215  0.00  0.00     0.299 C 
ENDBRANCH  20  21
ENDBRANCH   7  20
BRANCH   1  27
HETATM   27  S   UNK N   1      21.826  19.620   3.340  0.00  0.00     0.263 S 
HETATM   28  O   UNK N   1      20.890  19.775   4.547  0.00  0.00    -0.200 OA
HETATM   29  O   UNK N   1      21.795  21.017   2.703  0.00  0.00    -0.200 OA
BRANCH  27  30
HETATM   30  N   UNK N   1      20.956  18.602   2.193  0.00  0.00    -0.324 N 
HETATM   31  H   UNK N   1      20.210  17.911   2.282  0.00  0.00     0.169 HD
HETATM   32  H   UNK N   1      21.265  18.732   1.231  0.00  0.00     0.169 HD
ENDBRANCH  27  30
ENDBRANCH   1  27
TORSDOF 6
ENDMDL
