REMARK  6 active torsions:
REMARK  status: ('A' for Active; 'I' for Inactive)
REMARK    1  A    between atoms: S_1  and  N_4 
REMARK    2  A    between atoms: S_1  and  C_5 
REMARK    3  A    between atoms: C_11  and  C_16 
REMARK    4  A    between atoms: N_12  and  C_24 
REMARK    5  A    between atoms: C_16  and  N_22 
REMARK    6  A    between atoms: C_28  and  O_29 
ROOT
HETATM    1  C   UNK N   1      -5.064   0.373   0.004  0.00  0.00     0.122 A 
HETATM    2  C   UNK N   1      -4.069  -0.608  -0.119  0.00  0.00     0.046 A 
HETATM    3  C   UNK N   1      -2.764  -0.040  -0.138  0.00  0.00    -0.002 A 
HETATM    4  C   UNK N   1      -2.757   1.330  -0.028  0.00  0.00     0.132 A 
HETATM    5  S   UNK N   1      -4.316   1.851   0.093  0.00  0.00    -0.062 SA
HETATM    6  C   UNK N   1      -1.521  -0.826  -0.223  0.00  0.00     0.041 A 
HETATM    7  C   UNK N   1      -0.246  -0.353  -0.186  0.00  0.00     0.057 A 
HETATM    8  N   UNK N   1       0.077   1.069  -0.080  0.00  0.00    -0.238 N 
HETATM    9  S   UNK N   1      -1.261   2.225   0.040  0.00  0.00     0.277 S 
HETATM   10  O   UNK N   1      -1.049   3.243  -1.091  0.00  0.00    -0.199 OA
HETATM   11  O   UNK N   1      -1.031   2.994   1.350  0.00  0.00    -0.199 OA
ENDROOT
BRANCH   8  12
HETATM   12  C   UNK N   1       1.427   1.589  -0.082  0.00  0.00     0.053 A 
HETATM   13  C   UNK N   1       2.552   0.750  -0.193  0.00  0.00     0.067 A 
HETATM   14  C   UNK N   1       3.850   1.269  -0.217  0.00  0.00     0.070 A 
HETATM   15  C   UNK N   1       4.040   2.657  -0.124  0.00  0.00     0.037 A 
HETATM   16  C   UNK N   1       2.941   3.505  -0.006  0.00  0.00     0.005 A 
HETATM   17  C   UNK N   1       1.651   2.975   0.013  0.00  0.00     0.031 A 
BRANCH  14  18
HETATM   18  O   UNK N   1       4.895   0.417  -0.338  0.00  0.00    -0.356 OA
HETATM   19  C   UNK N   1       6.205   0.836  -0.410  0.00  0.00     0.210 C 
ENDBRANCH  14  18
ENDBRANCH   8  12
BRANCH   7  20
HETATM   20  C   UNK N   1       0.826  -1.408  -0.324  0.00  0.00     0.330 C 
BRANCH  20  21
HETATM   21  N   UNK N   1       1.056  -2.166   0.913  0.00  0.00     0.098 N 
HETATM   22  C   UNK N   1       2.216  -3.046   0.697  0.00  0.00     0.299 C 
HETATM   23  C   UNK N   1       1.841  -4.358  -0.022  0.00  0.00     0.198 C 
HETATM   24  O   UNK N   1       0.547  -4.278  -0.560  0.00  0.00    -0.388 OA
HETATM   25  C   UNK N   1      -0.316  -4.240   0.545  0.00  0.00     0.198 C 
HETATM   26  C   UNK N   1      -0.133  -2.932   1.336  0.00  0.00     0.299 C 
ENDBRANCH  20  21
ENDBRANCH   7  20
BRANCH   1  27
HETATM   27  S   UNK N   1      -6.813   0.085   0.202  0.00  0.00     0.263 S 
HETATM   28  O   UNK N   1      -7.619   0.113  -1.105  0.00  0.00    -0.200 OA
HETATM   29  O   UNK N   1      -7.113  -1.315   0.757  0.00  0.00    -0.200 OA
BRANCH  27  30
HETATM   30  N   UNK N   1      -7.656   1.176   1.302  0.00  0.00    -0.324 N 
HETATM   31  H   UNK N   1      -7.353   1.914   1.939  0.00  0.00     0.169 HD
HETATM   32  H   UNK N   1      -8.666   1.040   1.302  0.00  0.00     0.169 HD
ENDBRANCH  27  30
ENDBRANCH   1  27
TORSDOF 6
