MODEL 1
REMARK VINA RESULT:      -7.5      0.000      0.000
REMARK  5 active torsions:
REMARK  status: ('A' for Active; 'I' for Inactive)
REMARK    1  A    between atoms: C_3  and  S_11 
REMARK    2  A    between atoms: C_6  and  C_7 
REMARK       I    between atoms: C_7  and  N_9 
REMARK    3  A    between atoms: N_9  and  C_10 
REMARK    4  A    between atoms: C_10  and  C_15 
REMARK    5  A    between atoms: S_11  and  N_12 
ROOT
HETATM    1  C   UNK N   1      28.188  17.987   8.682  0.00  0.00     0.251 C 
HETATM    2  O   UNK N   1      27.656  17.191   9.438  0.00  0.00    -0.268 OA
HETATM    3  N   UNK N   1      27.454  19.054   8.258  0.00  0.00    -0.353 N 
HETATM    4  H   UNK N   1      26.512  19.093   8.543  0.00  0.00     0.163 HD
ENDROOT
BRANCH   1   5
HETATM    5  C   UNK N   1      29.609  17.747   8.280  0.00  0.00     0.032 A 
HETATM    6  C   UNK N   1      29.952  16.991   7.149  0.00  0.00     0.018 A 
HETATM    7  C   UNK N   1      31.287  16.815   6.784  0.00  0.00     0.026 A 
HETATM    8  C   UNK N   1      32.301  17.393   7.548  0.00  0.00     0.079 A 
HETATM    9  C   UNK N   1      31.979  18.135   8.687  0.00  0.00     0.026 A 
HETATM   10  C   UNK N   1      30.641  18.304   9.056  0.00  0.00     0.018 A 
BRANCH   8  11
HETATM   11  S   UNK N   1      33.998  17.266   7.011  0.00  0.00     0.256 S 
HETATM   12  O   UNK N   1      34.185  17.562   5.515  0.00  0.00    -0.201 OA
HETATM   13  O   UNK N   1      34.882  18.340   7.663  0.00  0.00    -0.201 OA
BRANCH  11  14
HETATM   14  N   UNK N   1      34.851  15.748   7.292  0.00  0.00    -0.324 N 
HETATM   15  H   UNK N   1      35.604  15.182   6.899  0.00  0.00     0.169 HD
HETATM   16  H   UNK N   1      34.467  15.285   8.116  0.00  0.00     0.169 HD
ENDBRANCH  11  14
ENDBRANCH   8  11
ENDBRANCH   1   5
BRANCH   3  17
HETATM   17  C   UNK N   1      27.933  20.134   7.428  0.00  0.00     0.164 C 
BRANCH  17  18
HETATM   18  C   UNK N   1      27.297  20.081   6.078  0.00  0.00    -0.002 A 
HETATM   19  C   UNK N   1      26.322  21.018   5.696  0.00  0.00     0.127 A 
HETATM   20  C   UNK N   1      25.739  20.938   4.427  0.00  0.00     0.085 A 
HETATM   21  F   UNK N   1      25.931  21.996   6.551  0.00  0.00    -0.205 F 
HETATM   22  C   UNK N   1      26.129  19.933   3.537  0.00  0.00     0.119 A 
HETATM   23  C   UNK N   1      27.104  19.006   3.913  0.00  0.00     0.043 A 
HETATM   24  F   UNK N   1      25.561  19.860   2.311  0.00  0.00    -0.206 F 
HETATM   25  C   UNK N   1      27.685  19.079   5.182  0.00  0.00     0.015 A 
ENDBRANCH  17  18
ENDBRANCH   3  17
TORSDOF 5
ENDMDL
MODEL 2
REMARK VINA RESULT:      -7.2      8.167     11.350
REMARK  5 active torsions:
REMARK  status: ('A' for Active; 'I' for Inactive)
REMARK    1  A    between atoms: C_3  and  S_11 
REMARK    2  A    between atoms: C_6  and  C_7 
REMARK       I    between atoms: C_7  and  N_9 
REMARK    3  A    between atoms: N_9  and  C_10 
REMARK    4  A    between atoms: C_10  and  C_15 
REMARK    5  A    between atoms: S_11  and  N_12 
ROOT
HETATM    1  C   UNK N   1      37.141  13.321  11.047  0.00  0.00     0.251 C 
HETATM    2  O   UNK N   1      38.307  13.141  10.738  0.00  0.00    -0.268 OA
HETATM    3  N   UNK N   1      36.595  12.501  11.990  0.00  0.00    -0.353 N 
HETATM    4  H   UNK N   1      37.160  11.770  12.329  0.00  0.00     0.163 HD
ENDROOT
BRANCH   1   5
HETATM    5  C   UNK N   1      36.391  14.432  10.382  0.00  0.00     0.032 A 
HETATM    6  C   UNK N   1      36.155  15.662  11.014  0.00  0.00     0.018 A 
HETATM    7  C   UNK N   1      35.482  16.689  10.352  0.00  0.00     0.026 A 
HETATM    8  C   UNK N   1      35.031  16.499   9.045  0.00  0.00     0.079 A 
HETATM    9  C   UNK N   1      35.243  15.274   8.406  0.00  0.00     0.026 A 
HETATM   10  C   UNK N   1      35.911  14.244   9.074  0.00  0.00     0.018 A 
BRANCH   8  11
HETATM   11  S   UNK N   1      34.278  17.853   8.161  0.00  0.00     0.256 S 
HETATM   12  O   UNK N   1      34.959  19.204   8.425  0.00  0.00    -0.201 OA
HETATM   13  O   UNK N   1      34.443  17.701   6.641  0.00  0.00    -0.201 OA
BRANCH  11  14
HETATM   14  N   UNK N   1      32.556  18.151   8.400  0.00  0.00    -0.324 N 
HETATM   15  H   UNK N   1      31.887  18.919   8.443  0.00  0.00     0.169 HD
HETATM   16  H   UNK N   1      32.070  17.264   8.539  0.00  0.00     0.169 HD
ENDBRANCH  11  14
ENDBRANCH   8  11
ENDBRANCH   1   5
BRANCH   3  17
HETATM   17  C   UNK N   1      35.263  12.609  12.535  0.00  0.00     0.164 C 
BRANCH  17  18
HETATM   18  C   UNK N   1      35.317  12.842  14.010  0.00  0.00    -0.002 A 
HETATM   19  C   UNK N   1      34.462  12.152  14.887  0.00  0.00     0.127 A 
HETATM   20  C   UNK N   1      34.531  12.396  16.262  0.00  0.00     0.085 A 
HETATM   21  F   UNK N   1      33.562  11.255  14.412  0.00  0.00    -0.205 F 
HETATM   22  C   UNK N   1      35.451  13.320  16.766  0.00  0.00     0.119 A 
HETATM   23  C   UNK N   1      36.306  14.001  15.896  0.00  0.00     0.043 A 
HETATM   24  F   UNK N   1      35.513  13.554  18.098  0.00  0.00    -0.206 F 
HETATM   25  C   UNK N   1      36.237  13.763  14.521  0.00  0.00     0.015 A 
ENDBRANCH  17  18
ENDBRANCH   3  17
TORSDOF 5
ENDMDL
MODEL 3
REMARK VINA RESULT:      -6.9     11.913     14.024
REMARK  5 active torsions:
REMARK  status: ('A' for Active; 'I' for Inactive)
REMARK    1  A    between atoms: C_3  and  S_11 
REMARK    2  A    between atoms: C_6  and  C_7 
REMARK       I    between atoms: C_7  and  N_9 
REMARK    3  A    between atoms: N_9  and  C_10 
REMARK    4  A    between atoms: C_10  and  C_15 
REMARK    5  A    between atoms: S_11  and  N_12 
ROOT
HETATM    1  C   UNK N   1      25.866  23.804  -6.457  0.00  0.00     0.251 C 
HETATM    2  O   UNK N   1      24.949  23.011  -6.319  0.00  0.00    -0.268 OA
HETATM    3  N   UNK N   1      25.667  24.876  -7.275  0.00  0.00    -0.353 N 
HETATM    4  H   UNK N   1      24.808  24.921  -7.755  0.00  0.00     0.163 HD
ENDROOT
BRANCH   1   5
HETATM    5  C   UNK N   1      27.141  23.554  -5.715  0.00  0.00     0.032 A 
HETATM    6  C   UNK N   1      27.371  24.057  -4.426  0.00  0.00     0.018 A 
HETATM    7  C   UNK N   1      28.557  23.777  -3.749  0.00  0.00     0.026 A 
HETATM    8  C   UNK N   1      29.536  22.988  -4.355  0.00  0.00     0.079 A 
HETATM    9  C   UNK N   1      29.332  22.492  -5.645  0.00  0.00     0.026 A 
HETATM   10  C   UNK N   1      28.145  22.780  -6.324  0.00  0.00     0.018 A 
BRANCH   8  11
HETATM   11  S   UNK N   1      31.000  22.533  -3.440  0.00  0.00     0.256 S 
HETATM   12  O   UNK N   1      32.270  23.238  -3.938  0.00  0.00    -0.201 OA
HETATM   13  O   UNK N   1      30.924  23.000  -1.979  0.00  0.00    -0.201 OA
BRANCH  11  14
HETATM   14  N   UNK N   1      31.427  20.824  -3.347  0.00  0.00    -0.324 N 
HETATM   15  H   UNK N   1      30.990  19.904  -3.294  0.00  0.00     0.169 HD
HETATM   16  H   UNK N   1      32.443  20.723  -3.346  0.00  0.00     0.169 HD
ENDBRANCH  11  14
ENDBRANCH   8  11
ENDBRANCH   1   5
BRANCH   3  17
HETATM   17  C   UNK N   1      26.602  25.952  -7.500  0.00  0.00     0.164 C 
BRANCH  17  18
HETATM   18  C   UNK N   1      26.462  26.999  -6.444  0.00  0.00    -0.002 A 
HETATM   19  C   UNK N   1      27.373  28.066  -6.352  0.00  0.00     0.127 A 
HETATM   20  C   UNK N   1      27.221  29.027  -5.348  0.00  0.00     0.085 A 
HETATM   21  F   UNK N   1      28.407  28.168  -7.224  0.00  0.00    -0.205 F 
HETATM   22  C   UNK N   1      26.162  28.933  -4.440  0.00  0.00     0.119 A 
HETATM   23  C   UNK N   1      25.252  27.877  -4.535  0.00  0.00     0.043 A 
HETATM   24  F   UNK N   1      26.019  29.865  -3.470  0.00  0.00    -0.206 F 
HETATM   25  C   UNK N   1      25.403  26.912  -5.535  0.00  0.00     0.015 A 
ENDBRANCH  17  18
ENDBRANCH   3  17
TORSDOF 5
ENDMDL
MODEL 4
REMARK VINA RESULT:      -6.7      2.502      3.211
REMARK  5 active torsions:
REMARK  status: ('A' for Active; 'I' for Inactive)
REMARK    1  A    between atoms: C_3  and  S_11 
REMARK    2  A    between atoms: C_6  and  C_7 
REMARK       I    between atoms: C_7  and  N_9 
REMARK    3  A    between atoms: N_9  and  C_10 
REMARK    4  A    between atoms: C_10  and  C_15 
REMARK    5  A    between atoms: S_11  and  N_12 
ROOT
HETATM    1  C   UNK N   1      28.086  17.447   8.144  0.00  0.00     0.251 C 
HETATM    2  O   UNK N   1      27.512  16.951   9.099  0.00  0.00    -0.268 OA
HETATM    3  N   UNK N   1      27.328  17.877   7.095  0.00  0.00    -0.353 N 
HETATM    4  H   UNK N   1      26.359  17.711   7.144  0.00  0.00     0.163 HD
ENDROOT
BRANCH   1   5
HETATM    5  C   UNK N   1      29.577  17.561   8.189  0.00  0.00     0.032 A 
HETATM    6  C   UNK N   1      30.230  18.634   8.812  0.00  0.00     0.018 A 
HETATM    7  C   UNK N   1      31.623  18.692   8.867  0.00  0.00     0.026 A 
HETATM    8  C   UNK N   1      32.385  17.673   8.294  0.00  0.00     0.079 A 
HETATM    9  C   UNK N   1      31.752  16.604   7.654  0.00  0.00     0.026 A 
HETATM   10  C   UNK N   1      30.357  16.552   7.595  0.00  0.00     0.018 A 
BRANCH   8  11
HETATM   11  S   UNK N   1      34.161  17.689   8.469  0.00  0.00     0.256 S 
HETATM   12  O   UNK N   1      34.884  16.863   7.395  0.00  0.00    -0.201 OA
HETATM   13  O   UNK N   1      34.742  19.093   8.240  0.00  0.00    -0.201 OA
BRANCH  11  14
HETATM   14  N   UNK N   1      34.853  17.159  10.002  0.00  0.00    -0.324 N 
HETATM   15  H   UNK N   1      35.491  16.458  10.379  0.00  0.00     0.169 HD
HETATM   16  H   UNK N   1      34.499  17.744  10.760  0.00  0.00     0.169 HD
ENDBRANCH  11  14
ENDBRANCH   8  11
ENDBRANCH   1   5
BRANCH   3  17
HETATM   17  C   UNK N   1      27.820  18.553   5.919  0.00  0.00     0.164 C 
BRANCH  17  18
HETATM   18  C   UNK N   1      28.001  17.587   4.794  0.00  0.00    -0.002 A 
HETATM   19  C   UNK N   1      29.268  17.351   4.234  0.00  0.00     0.127 A 
HETATM   20  C   UNK N   1      29.405  16.446   3.177  0.00  0.00     0.085 A 
HETATM   21  F   UNK N   1      30.363  18.000   4.704  0.00  0.00    -0.205 F 
HETATM   22  C   UNK N   1      28.285  15.772   2.681  0.00  0.00     0.119 A 
HETATM   23  C   UNK N   1      27.026  16.000   3.241  0.00  0.00     0.043 A 
HETATM   24  F   UNK N   1      28.422  14.897   1.657  0.00  0.00    -0.206 F 
HETATM   25  C   UNK N   1      26.885  16.907   4.295  0.00  0.00     0.015 A 
ENDBRANCH  17  18
ENDBRANCH   3  17
TORSDOF 5
ENDMDL
MODEL 5
REMARK VINA RESULT:      -6.7      3.243      5.045
REMARK  5 active torsions:
REMARK  status: ('A' for Active; 'I' for Inactive)
REMARK    1  A    between atoms: C_3  and  S_11 
REMARK    2  A    between atoms: C_6  and  C_7 
REMARK       I    between atoms: C_7  and  N_9 
REMARK    3  A    between atoms: N_9  and  C_10 
REMARK    4  A    between atoms: C_10  and  C_15 
REMARK    5  A    between atoms: S_11  and  N_12 
ROOT
HETATM    1  C   UNK N   1      33.720  17.913   7.768  0.00  0.00     0.251 C 
HETATM    2  O   UNK N   1      34.541  18.800   7.928  0.00  0.00    -0.268 OA
HETATM    3  N   UNK N   1      32.751  17.761   8.715  0.00  0.00    -0.353 N 
HETATM    4  H   UNK N   1      32.802  18.343   9.507  0.00  0.00     0.163 HD
ENDROOT
BRANCH   1   5
HETATM    5  C   UNK N   1      33.823  17.059   6.544  0.00  0.00     0.032 A 
HETATM    6  C   UNK N   1      34.509  15.835   6.536  0.00  0.00     0.018 A 
HETATM    7  C   UNK N   1      34.556  15.048   5.386  0.00  0.00     0.026 A 
HETATM    8  C   UNK N   1      33.918  15.476   4.221  0.00  0.00     0.079 A 
HETATM    9  C   UNK N   1      33.244  16.700   4.205  0.00  0.00     0.026 A 
HETATM   10  C   UNK N   1      33.204  17.490   5.357  0.00  0.00     0.018 A 
BRANCH   8  11
HETATM   11  S   UNK N   1      33.880  14.412   2.789  0.00  0.00     0.256 S 
HETATM   12  O   UNK N   1      32.457  14.117   2.290  0.00  0.00    -0.201 OA
HETATM   13  O   UNK N   1      34.517  15.085   1.564  0.00  0.00    -0.201 OA
BRANCH  11  14
HETATM   14  N   UNK N   1      34.666  12.837   2.898  0.00  0.00    -0.324 N 
HETATM   15  H   UNK N   1      34.731  12.029   3.518  0.00  0.00     0.169 HD
HETATM   16  H   UNK N   1      35.243  12.682   2.071  0.00  0.00     0.169 HD
ENDBRANCH  11  14
ENDBRANCH   8  11
ENDBRANCH   1   5
BRANCH   3  17
HETATM   17  C   UNK N   1      31.656  16.822   8.660  0.00  0.00     0.164 C 
BRANCH  17  18
HETATM   18  C   UNK N   1      30.449  17.456   8.051  0.00  0.00    -0.002 A 
HETATM   19  C   UNK N   1      29.684  18.396   8.763  0.00  0.00     0.127 A 
HETATM   20  C   UNK N   1      28.555  18.968   8.168  0.00  0.00     0.085 A 
HETATM   21  F   UNK N   1      30.024  18.749  10.028  0.00  0.00    -0.205 F 
HETATM   22  C   UNK N   1      28.190  18.612   6.866  0.00  0.00     0.119 A 
HETATM   23  C   UNK N   1      28.955  17.684   6.155  0.00  0.00     0.043 A 
HETATM   24  F   UNK N   1      27.096  19.168   6.295  0.00  0.00    -0.206 F 
HETATM   25  C   UNK N   1      30.081  17.106   6.748  0.00  0.00     0.015 A 
ENDBRANCH  17  18
ENDBRANCH   3  17
TORSDOF 5
ENDMDL
MODEL 6
REMARK VINA RESULT:      -6.7     11.808     13.254
REMARK  5 active torsions:
REMARK  status: ('A' for Active; 'I' for Inactive)
REMARK    1  A    between atoms: C_3  and  S_11 
REMARK    2  A    between atoms: C_6  and  C_7 
REMARK       I    between atoms: C_7  and  N_9 
REMARK    3  A    between atoms: N_9  and  C_10 
REMARK    4  A    between atoms: C_10  and  C_15 
REMARK    5  A    between atoms: S_11  and  N_12 
ROOT
HETATM    1  C   UNK N   1      27.512  23.178  -7.349  0.00  0.00     0.251 C 
HETATM    2  O   UNK N   1      27.682  23.172  -8.556  0.00  0.00    -0.268 OA
HETATM    3  N   UNK N   1      26.312  23.617  -6.875  0.00  0.00    -0.353 N 
HETATM    4  H   UNK N   1      25.666  23.960  -7.535  0.00  0.00     0.163 HD
ENDROOT
BRANCH   1   5
HETATM    5  C   UNK N   1      28.623  22.695  -6.470  0.00  0.00     0.032 A 
HETATM    6  C   UNK N   1      29.144  21.396  -6.565  0.00  0.00     0.018 A 
HETATM    7  C   UNK N   1      30.204  20.989  -5.753  0.00  0.00     0.026 A 
HETATM    8  C   UNK N   1      30.756  21.878  -4.830  0.00  0.00     0.079 A 
HETATM    9  C   UNK N   1      30.238  23.170  -4.711  0.00  0.00     0.026 A 
HETATM   10  C   UNK N   1      29.172  23.573  -5.520  0.00  0.00     0.018 A 
BRANCH   8  11
HETATM   11  S   UNK N   1      32.186  21.394  -3.880  0.00  0.00     0.256 S 
HETATM   12  O   UNK N   1      33.467  22.135  -4.290  0.00  0.00    -0.201 OA
HETATM   13  O   UNK N   1      32.046  21.788  -2.402  0.00  0.00    -0.201 OA
BRANCH  11  14
HETATM   14  N   UNK N   1      32.631  19.687  -3.851  0.00  0.00    -0.324 N 
HETATM   15  H   UNK N   1      33.362  19.068  -3.501  0.00  0.00     0.169 HD
HETATM   16  H   UNK N   1      31.925  19.140  -4.346  0.00  0.00     0.169 HD
ENDBRANCH  11  14
ENDBRANCH   8  11
ENDBRANCH   1   5
BRANCH   3  17
HETATM   17  C   UNK N   1      25.902  23.626  -5.491  0.00  0.00     0.164 C 
BRANCH  17  18
HETATM   18  C   UNK N   1      25.849  25.024  -4.967  0.00  0.00    -0.002 A 
HETATM   19  C   UNK N   1      26.428  25.361  -3.732  0.00  0.00     0.127 A 
HETATM   20  C   UNK N   1      26.357  26.677  -3.265  0.00  0.00     0.085 A 
HETATM   21  F   UNK N   1      27.050  24.418  -2.980  0.00  0.00    -0.205 F 
HETATM   22  C   UNK N   1      25.717  27.658  -4.026  0.00  0.00     0.119 A 
HETATM   23  C   UNK N   1      25.147  27.327  -5.258  0.00  0.00     0.043 A 
HETATM   24  F   UNK N   1      25.649  28.931  -3.570  0.00  0.00    -0.206 F 
HETATM   25  C   UNK N   1      25.212  26.011  -5.726  0.00  0.00     0.015 A 
ENDBRANCH  17  18
ENDBRANCH   3  17
TORSDOF 5
ENDMDL
MODEL 7
REMARK VINA RESULT:      -6.6      3.130      4.579
REMARK  5 active torsions:
REMARK  status: ('A' for Active; 'I' for Inactive)
REMARK    1  A    between atoms: C_3  and  S_11 
REMARK    2  A    between atoms: C_6  and  C_7 
REMARK       I    between atoms: C_7  and  N_9 
REMARK    3  A    between atoms: N_9  and  C_10 
REMARK    4  A    between atoms: C_10  and  C_15 
REMARK    5  A    between atoms: S_11  and  N_12 
ROOT
HETATM    1  C   UNK N   1      32.402  17.037   4.596  0.00  0.00     0.251 C 
HETATM    2  O   UNK N   1      33.038  17.389   3.617  0.00  0.00    -0.268 OA
HETATM    3  N   UNK N   1      31.064  16.826   4.449  0.00  0.00    -0.353 N 
HETATM    4  H   UNK N   1      30.673  17.024   3.567  0.00  0.00     0.163 HD
ENDROOT
BRANCH   1   5
HETATM    5  C   UNK N   1      33.133  16.850   5.889  0.00  0.00     0.032 A 
HETATM    6  C   UNK N   1      33.175  17.843   6.879  0.00  0.00     0.018 A 
HETATM    7  C   UNK N   1      33.836  17.623   8.087  0.00  0.00     0.026 A 
HETATM    8  C   UNK N   1      34.471  16.403   8.322  0.00  0.00     0.079 A 
HETATM    9  C   UNK N   1      34.453  15.408   7.341  0.00  0.00     0.026 A 
HETATM   10  C   UNK N   1      33.796  15.634   6.129  0.00  0.00     0.018 A 
BRANCH   8  11
HETATM   11  S   UNK N   1      35.213  16.081   9.913  0.00  0.00     0.256 S 
HETATM   12  O   UNK N   1      36.392  15.099   9.845  0.00  0.00    -0.201 OA
HETATM   13  O   UNK N   1      35.875  17.339  10.495  0.00  0.00    -0.201 OA
BRANCH  11  14
HETATM   14  N   UNK N   1      34.180  15.474  11.207  0.00  0.00    -0.324 N 
HETATM   15  H   UNK N   1      33.315  15.701  11.698  0.00  0.00     0.169 HD
HETATM   16  H   UNK N   1      34.577  14.615  11.590  0.00  0.00     0.169 HD
ENDBRANCH  11  14
ENDBRANCH   8  11
ENDBRANCH   1   5
BRANCH   3  17
HETATM   17  C   UNK N   1      30.168  16.337   5.469  0.00  0.00     0.164 C 
BRANCH  17  18
HETATM   18  C   UNK N   1      29.350  17.454   6.030  0.00  0.00    -0.002 A 
HETATM   19  C   UNK N   1      29.293  17.689   7.415  0.00  0.00     0.127 A 
HETATM   20  C   UNK N   1      28.513  18.739   7.910  0.00  0.00     0.085 A 
HETATM   21  F   UNK N   1      29.980  16.901   8.279  0.00  0.00    -0.205 F 
HETATM   22  C   UNK N   1      27.797  19.557   7.032  0.00  0.00     0.119 A 
HETATM   23  C   UNK N   1      27.859  19.329   5.655  0.00  0.00     0.043 A 
HETATM   24  F   UNK N   1      27.043  20.572   7.517  0.00  0.00    -0.206 F 
HETATM   25  C   UNK N   1      28.634  18.278   5.156  0.00  0.00     0.015 A 
ENDBRANCH  17  18
ENDBRANCH   3  17
TORSDOF 5
ENDMDL
MODEL 8
REMARK VINA RESULT:      -6.5      4.164      5.652
REMARK  5 active torsions:
REMARK  status: ('A' for Active; 'I' for Inactive)
REMARK    1  A    between atoms: C_3  and  S_11 
REMARK    2  A    between atoms: C_6  and  C_7 
REMARK       I    between atoms: C_7  and  N_9 
REMARK    3  A    between atoms: N_9  and  C_10 
REMARK    4  A    between atoms: C_10  and  C_15 
REMARK    5  A    between atoms: S_11  and  N_12 
ROOT
HETATM    1  C   UNK N   1      34.049  17.715   8.234  0.00  0.00     0.251 C 
HETATM    2  O   UNK N   1      34.878  18.313   7.567  0.00  0.00    -0.268 OA
HETATM    3  N   UNK N   1      32.732  17.974   7.999  0.00  0.00    -0.353 N 
HETATM    4  H   UNK N   1      32.523  18.674   7.338  0.00  0.00     0.163 HD
ENDROOT
BRANCH   1   5
HETATM    5  C   UNK N   1      34.531  16.734   9.256  0.00  0.00     0.032 A 
HETATM    6  C   UNK N   1      35.232  17.128  10.404  0.00  0.00     0.018 A 
HETATM    7  C   UNK N   1      35.637  16.190  11.354  0.00  0.00     0.026 A 
HETATM    8  C   UNK N   1      35.348  14.838  11.165  0.00  0.00     0.079 A 
HETATM    9  C   UNK N   1      34.665  14.424  10.019  0.00  0.00     0.026 A 
HETATM   10  C   UNK N   1      34.266  15.366   9.066  0.00  0.00     0.018 A 
BRANCH   8  11
HETATM   11  S   UNK N   1      35.762  13.657  12.438  0.00  0.00     0.256 S 
HETATM   12  O   UNK N   1      34.530  13.069  13.143  0.00  0.00    -0.201 OA
HETATM   13  O   UNK N   1      36.426  12.401  11.852  0.00  0.00    -0.201 OA
BRANCH  11  14
HETATM   14  N   UNK N   1      36.837  14.172  13.737  0.00  0.00    -0.324 N 
HETATM   15  H   UNK N   1      37.825  14.177  13.988  0.00  0.00     0.169 HD
HETATM   16  H   UNK N   1      36.291  14.609  14.482  0.00  0.00     0.169 HD
ENDBRANCH  11  14
ENDBRANCH   8  11
ENDBRANCH   1   5
BRANCH   3  17
HETATM   17  C   UNK N   1      31.615  17.313   8.631  0.00  0.00     0.164 C 
BRANCH  17  18
HETATM   18  C   UNK N   1      30.332  17.709   7.976  0.00  0.00    -0.002 A 
HETATM   19  C   UNK N   1      29.394  18.516   8.642  0.00  0.00     0.127 A 
HETATM   20  C   UNK N   1      28.199  18.864   8.006  0.00  0.00     0.085 A 
HETATM   21  F   UNK N   1      29.632  18.956   9.903  0.00  0.00    -0.205 F 
HETATM   22  C   UNK N   1      27.938  18.416   6.708  0.00  0.00     0.119 A 
HETATM   23  C   UNK N   1      28.873  17.620   6.042  0.00  0.00     0.043 A 
HETATM   24  F   UNK N   1      26.779  18.755   6.096  0.00  0.00    -0.206 F 
HETATM   25  C   UNK N   1      30.067  17.266   6.676  0.00  0.00     0.015 A 
ENDBRANCH  17  18
ENDBRANCH   3  17
TORSDOF 5
ENDMDL
MODEL 9
REMARK VINA RESULT:      -6.5      9.565     11.369
REMARK  5 active torsions:
REMARK  status: ('A' for Active; 'I' for Inactive)
REMARK    1  A    between atoms: C_3  and  S_11 
REMARK    2  A    between atoms: C_6  and  C_7 
REMARK       I    between atoms: C_7  and  N_9 
REMARK    3  A    between atoms: N_9  and  C_10 
REMARK    4  A    between atoms: C_10  and  C_15 
REMARK    5  A    between atoms: S_11  and  N_12 
ROOT
HETATM    1  C   UNK N   1      20.440  16.462   8.181  0.00  0.00     0.251 C 
HETATM    2  O   UNK N   1      20.312  17.589   8.628  0.00  0.00    -0.268 OA
HETATM    3  N   UNK N   1      20.596  15.436   9.064  0.00  0.00    -0.353 N 
HETATM    4  H   UNK N   1      20.654  15.671  10.019  0.00  0.00     0.163 HD
ENDROOT
BRANCH   1   5
HETATM    5  C   UNK N   1      20.407  16.277   6.696  0.00  0.00     0.032 A 
HETATM    6  C   UNK N   1      19.213  16.062   5.992  0.00  0.00     0.018 A 
HETATM    7  C   UNK N   1      19.214  15.928   4.604  0.00  0.00     0.026 A 
HETATM    8  C   UNK N   1      20.415  16.005   3.897  0.00  0.00     0.079 A 
HETATM    9  C   UNK N   1      21.616  16.203   4.583  0.00  0.00     0.026 A 
HETATM   10  C   UNK N   1      21.613  16.330   5.974  0.00  0.00     0.018 A 
BRANCH   8  11
HETATM   11  S   UNK N   1      20.399  15.953   2.113  0.00  0.00     0.256 S 
HETATM   12  O   UNK N   1      20.256  17.340   1.467  0.00  0.00    -0.201 OA
HETATM   13  O   UNK N   1      21.743  15.472   1.547  0.00  0.00    -0.201 OA
BRANCH  11  14
HETATM   14  N   UNK N   1      19.188  14.947   1.318  0.00  0.00    -0.324 N 
HETATM   15  H   UNK N   1      19.095  14.286   0.548  0.00  0.00     0.169 HD
HETATM   16  H   UNK N   1      18.286  15.064   1.782  0.00  0.00     0.169 HD
ENDBRANCH  11  14
ENDBRANCH   8  11
ENDBRANCH   1   5
BRANCH   3  17
HETATM   17  C   UNK N   1      20.685  14.036   8.727  0.00  0.00     0.164 C 
BRANCH  17  18
HETATM   18  C   UNK N   1      21.762  13.371   9.522  0.00  0.00    -0.002 A 
HETATM   19  C   UNK N   1      21.465  12.662  10.698  0.00  0.00     0.127 A 
HETATM   20  C   UNK N   1      22.495  12.056  11.424  0.00  0.00     0.085 A 
HETATM   21  F   UNK N   1      20.187  12.565  11.143  0.00  0.00    -0.205 F 
HETATM   22  C   UNK N   1      23.817  12.150  10.980  0.00  0.00     0.119 A 
HETATM   23  C   UNK N   1      24.113  12.849   9.807  0.00  0.00     0.043 A 
HETATM   24  F   UNK N   1      24.811  11.563  11.687  0.00  0.00    -0.206 F 
HETATM   25  C   UNK N   1      23.086  13.459   9.080  0.00  0.00     0.015 A 
ENDBRANCH  17  18
ENDBRANCH   3  17
TORSDOF 5
ENDMDL
