REMARK  5 active torsions:
REMARK  status: ('A' for Active; 'I' for Inactive)
REMARK    1  A    between atoms: C_3  and  S_11 
REMARK    2  A    between atoms: C_6  and  C_7 
REMARK       I    between atoms: C_7  and  N_9 
REMARK    3  A    between atoms: N_9  and  C_10 
REMARK    4  A    between atoms: C_10  and  C_15 
REMARK    5  A    between atoms: S_11  and  N_12 
ROOT
HETATM    1  C   UNK N   1      -2.339  -1.259  -0.457  0.00  0.00     0.251 C 
HETATM    2  O   UNK N   1      -3.027  -1.881  -1.249  0.00  0.00    -0.268 OA
HETATM    3  N   UNK N   1      -2.921  -0.236   0.230  0.00  0.00    -0.353 N 
HETATM    4  H   UNK N   1      -3.855  -0.019   0.006  0.00  0.00     0.163 HD
ENDROOT
BRANCH   1   5
HETATM    5  C   UNK N   1      -0.909  -1.665  -0.284  0.00  0.00     0.032 A 
HETATM    6  C   UNK N   1      -0.024  -0.963   0.547  0.00  0.00     0.018 A 
HETATM    7  C   UNK N   1       1.294  -1.389   0.712  0.00  0.00     0.026 A 
HETATM    8  C   UNK N   1       1.748  -2.526   0.043  0.00  0.00     0.079 A 
HETATM    9  C   UNK N   1       0.885  -3.229  -0.802  0.00  0.00     0.026 A 
HETATM   10  C   UNK N   1      -0.433  -2.796  -0.971  0.00  0.00     0.018 A 
BRANCH   8  11
HETATM   11  S   UNK N   1       3.397  -3.136   0.349  0.00  0.00     0.256 S 
HETATM   12  O   UNK N   1       4.375  -2.041   0.801  0.00  0.00    -0.201 OA
HETATM   13  O   UNK N   1       3.431  -4.108   1.538  0.00  0.00    -0.201 OA
BRANCH  11  14
HETATM   14  N   UNK N   1       4.227  -3.987  -0.954  0.00  0.00    -0.324 N 
HETATM   15  H   UNK N   1       4.041  -4.648  -1.708  0.00  0.00     0.169 HD
HETATM   16  H   UNK N   1       5.216  -3.735  -0.954  0.00  0.00     0.169 HD
ENDBRANCH  11  14
ENDBRANCH   8  11
ENDBRANCH   1   5
BRANCH   3  17
HETATM   17  C   UNK N   1      -2.291   0.559   1.257  0.00  0.00     0.164 C 
BRANCH  17  18
HETATM   18  C   UNK N   1      -1.876   1.887   0.713  0.00  0.00    -0.002 A 
HETATM   19  C   UNK N   1      -2.807   2.748   0.107  0.00  0.00     0.127 A 
HETATM   20  C   UNK N   1      -2.387   3.982  -0.399  0.00  0.00     0.085 A 
HETATM   21  F   UNK N   1      -4.111   2.390  -0.001  0.00  0.00    -0.205 F 
HETATM   22  C   UNK N   1      -1.046   4.363  -0.298  0.00  0.00     0.119 A 
HETATM   23  C   UNK N   1      -0.121   3.511   0.311  0.00  0.00     0.043 A 
HETATM   24  F   UNK N   1      -0.644   5.558  -0.790  0.00  0.00    -0.206 F 
HETATM   25  C   UNK N   1      -0.536   2.275   0.814  0.00  0.00     0.015 A 
ENDBRANCH  17  18
ENDBRANCH   3  17
TORSDOF 5
