REMARK  6 active torsions:
REMARK  status: ('A' for Active; 'I' for Inactive)
REMARK    1  A    between atoms: N_1  and  C_2 
REMARK       I    between atoms: N_1  and  C_5 
REMARK    2  A    between atoms: N_1  and  C_14 
REMARK    3  A    between atoms: C_5  and  C_7 
REMARK    4  A    between atoms: C_15  and  C_19 
REMARK    5  A    between atoms: C_17  and  C_22 
REMARK    6  A    between atoms: C_19  and  O_20 
ROOT
HETATM    1  C   UNK N   1       0.804  -0.866   0.048  0.00  0.00     0.063 A 
HETATM    2  C   UNK N   1       2.011  -1.664   0.071  0.00  0.00     0.106 A 
HETATM    3  S   UNK N   1       1.508  -3.257   0.036  0.00  0.00    -0.081 SA
HETATM    4  C   UNK N   1      -0.125  -3.055   0.008  0.00  0.00     0.018 A 
HETATM    5  C   UNK N   1      -0.367  -1.691   0.015  0.00  0.00     0.051 A 
ENDROOT
BRANCH   1   6
HETATM    6  N   UNK N   1       0.692   0.592   0.016  0.00  0.00    -0.308 N 
HETATM    7  C   UNK N   1      -0.564   1.217   0.082  0.00  0.00     0.258 C 
HETATM    8  O   UNK N   1      -1.565   0.529   0.222  0.00  0.00    -0.267 OA
BRANCH   6   9
HETATM    9  C   UNK N   1       1.919   1.348  -0.115  0.00  0.00     0.085 C 
HETATM   10  C   UNK N   1       2.117   1.985  -1.481  0.00  0.00     0.032 C 
HETATM   11  C   UNK N   1       2.244   2.231   1.084  0.00  0.00     0.032 C 
ENDBRANCH   6   9
BRANCH   7  12
HETATM   12  C   UNK N   1      -0.828   2.704   0.012  0.00  0.00     0.032 A 
HETATM   13  C   UNK N   1      -2.159   3.136   0.179  0.00  0.00     0.017 A 
HETATM   14  C   UNK N   1      -2.494   4.491   0.137  0.00  0.00     0.007 A 
HETATM   15  C   UNK N   1      -1.502   5.444  -0.079  0.00  0.00    -0.062 A 
HETATM   16  C   UNK N   1      -0.178   5.040  -0.259  0.00  0.00     0.007 A 
HETATM   17  C   UNK N   1      -1.853   6.887  -0.115  0.00  0.00     0.048 C 
HETATM   18  C   UNK N   1       0.151   3.682  -0.214  0.00  0.00     0.017 A 
ENDBRANCH   7  12
ENDBRANCH   1   6
BRANCH   2  19
HETATM   19  C   UNK N   1       3.477  -1.367   0.130  0.00  0.00     0.185 C 
HETATM   20  O   UNK N   1       4.269  -2.293   0.049  0.00  0.00    -0.646 OA
BRANCH  19  21
HETATM   21  O   UNK N   1       3.966  -0.133   0.318  0.00  0.00    -0.772 OA
HETATM   22  H   UNK N   1       4.884   0.002   0.449  0.00  0.00     0.167 HD
ENDBRANCH  19  21
ENDBRANCH   2  19
BRANCH   4  23
HETATM   23  C   UNK N   1      -1.164  -4.097  -0.012  0.00  0.00    -0.019 A 
HETATM   24  C   UNK N   1      -0.818  -5.455  -0.023  0.00  0.00     0.013 A 
HETATM   25  C   UNK N   1      -1.818  -6.434  -0.036  0.00  0.00     0.001 A 
HETATM   26  C   UNK N   1      -3.166  -6.060  -0.036  0.00  0.00     0.000 A 
HETATM   27  C   UNK N   1      -3.516  -4.708  -0.025  0.00  0.00     0.001 A 
HETATM   28  C   UNK N   1      -2.518  -3.730  -0.013  0.00  0.00     0.013 A 
ENDBRANCH   4  23
TORSDOF 6
