MODEL 1
REMARK VINA RESULT:      -7.3      0.000      0.000
REMARK  6 active torsions:
REMARK  status: ('A' for Active; 'I' for Inactive)
REMARK    1  A    between atoms: N_1  and  C_2 
REMARK       I    between atoms: N_1  and  C_5 
REMARK    2  A    between atoms: N_1  and  C_14 
REMARK    3  A    between atoms: C_5  and  C_7 
REMARK    4  A    between atoms: C_15  and  C_19 
REMARK    5  A    between atoms: C_17  and  C_22 
REMARK    6  A    between atoms: C_19  and  O_20 
ROOT
HETATM    1  C   UNK N   1      20.599  15.891   7.078  0.00  0.00     0.063 A 
HETATM    2  C   UNK N   1      19.572  16.063   8.083  0.00  0.00     0.106 A 
HETATM    3  S   UNK N   1      20.053  15.143   9.392  0.00  0.00    -0.081 SA
HETATM    4  C   UNK N   1      21.460  14.512   8.814  0.00  0.00     0.018 A 
HETATM    5  C   UNK N   1      21.634  15.012   7.534  0.00  0.00     0.051 A 
ENDROOT
BRANCH   1   6
HETATM    6  N   UNK N   1      20.681  16.522   5.761  0.00  0.00    -0.308 N 
HETATM    7  C   UNK N   1      21.029  17.877   5.635  0.00  0.00     0.258 C 
HETATM    8  O   UNK N   1      21.316  18.514   6.638  0.00  0.00    -0.267 OA
BRANCH   6   9
HETATM    9  C   UNK N   1      20.363  15.702   4.612  0.00  0.00     0.085 C 
HETATM   10  C   UNK N   1      21.562  15.002   3.993  0.00  0.00     0.032 C 
HETATM   11  C   UNK N   1      19.108  14.852   4.776  0.00  0.00     0.032 C 
ENDBRANCH   6   9
BRANCH   7  12
HETATM   12  C   UNK N   1      21.105  18.665   4.346  0.00  0.00     0.032 A 
HETATM   13  C   UNK N   1      19.935  18.746   3.565  0.00  0.00     0.017 A 
HETATM   14  C   UNK N   1      19.911  19.459   2.364  0.00  0.00     0.007 A 
HETATM   15  C   UNK N   1      21.062  20.102   1.916  0.00  0.00    -0.062 A 
HETATM   16  C   UNK N   1      22.237  20.026   2.667  0.00  0.00     0.007 A 
HETATM   17  C   UNK N   1      21.039  20.868   0.644  0.00  0.00     0.048 C 
HETATM   18  C   UNK N   1      22.253  19.312   3.869  0.00  0.00     0.017 A 
ENDBRANCH   7  12
ENDBRANCH   1   6
BRANCH   2  19
HETATM   19  C   UNK N   1      18.282  16.819   8.162  0.00  0.00     0.185 C 
HETATM   20  O   UNK N   1      17.387  16.539   7.380  0.00  0.00    -0.646 OA
BRANCH  19  21
HETATM   21  O   UNK N   1      18.077  17.827   9.021  0.00  0.00    -0.772 OA
HETATM   22  H   UNK N   1      18.793  18.203   9.496  0.00  0.00     0.167 HD
ENDBRANCH  19  21
ENDBRANCH   2  19
BRANCH   4  23
HETATM   23  C   UNK N   1      22.380  13.585   9.492  0.00  0.00    -0.019 A 
HETATM   24  C   UNK N   1      21.950  12.817  10.583  0.00  0.00     0.013 A 
HETATM   25  C   UNK N   1      22.835  11.935  11.213  0.00  0.00     0.001 A 
HETATM   26  C   UNK N   1      24.152  11.816  10.754  0.00  0.00     0.000 A 
HETATM   27  C   UNK N   1      24.585  12.579   9.668  0.00  0.00     0.001 A 
HETATM   28  C   UNK N   1      23.701  13.461   9.039  0.00  0.00     0.013 A 
ENDBRANCH   4  23
TORSDOF 6
ENDMDL
MODEL 2
REMARK VINA RESULT:      -7.2     12.928     17.745
REMARK  6 active torsions:
REMARK  status: ('A' for Active; 'I' for Inactive)
REMARK    1  A    between atoms: N_1  and  C_2 
REMARK       I    between atoms: N_1  and  C_5 
REMARK    2  A    between atoms: N_1  and  C_14 
REMARK    3  A    between atoms: C_5  and  C_7 
REMARK    4  A    between atoms: C_15  and  C_19 
REMARK    5  A    between atoms: C_17  and  C_22 
REMARK    6  A    between atoms: C_19  and  O_20 
ROOT
HETATM    1  C   UNK N   1      35.583  13.331  11.791  0.00  0.00     0.063 A 
HETATM    2  C   UNK N   1      36.724  13.378  10.903  0.00  0.00     0.106 A 
HETATM    3  S   UNK N   1      36.312  14.443   9.683  0.00  0.00    -0.081 SA
HETATM    4  C   UNK N   1      34.791  14.862  10.152  0.00  0.00     0.018 A 
HETATM    5  C   UNK N   1      34.524  14.177  11.327  0.00  0.00     0.051 A 
ENDROOT
BRANCH   1   6
HETATM    6  N   UNK N   1      35.449  12.584  13.042  0.00  0.00    -0.308 N 
HETATM    7  C   UNK N   1      35.891  13.134  14.256  0.00  0.00     0.258 C 
HETATM    8  O   UNK N   1      36.342  14.270  14.267  0.00  0.00    -0.267 OA
BRANCH   6   9
HETATM    9  C   UNK N   1      34.874  11.259  12.963  0.00  0.00     0.085 C 
HETATM   10  C   UNK N   1      33.675  11.044  13.873  0.00  0.00     0.032 C 
HETATM   11  C   UNK N   1      34.739  10.715  11.546  0.00  0.00     0.032 C 
ENDBRANCH   6   9
BRANCH   7  12
HETATM   12  C   UNK N   1      35.858  12.458  15.608  0.00  0.00     0.032 A 
HETATM   13  C   UNK N   1      35.176  13.120  16.649  0.00  0.00     0.017 A 
HETATM   14  C   UNK N   1      35.087  12.567  17.928  0.00  0.00     0.007 A 
HETATM   15  C   UNK N   1      35.686  11.338  18.194  0.00  0.00    -0.062 A 
HETATM   16  C   UNK N   1      36.377  10.668  17.183  0.00  0.00     0.007 A 
HETATM   17  C   UNK N   1      35.586  10.741  19.551  0.00  0.00     0.048 C 
HETATM   18  C   UNK N   1      36.460  11.227  15.904  0.00  0.00     0.017 A 
ENDBRANCH   7  12
ENDBRANCH   1   6
BRANCH   2  19
HETATM   19  C   UNK N   1      38.064  12.712  10.862  0.00  0.00     0.185 C 
HETATM   20  O   UNK N   1      38.123  11.499  10.992  0.00  0.00    -0.646 OA
BRANCH  19  21
HETATM   21  O   UNK N   1      39.214  13.390  10.739  0.00  0.00    -0.772 OA
HETATM   22  H   UNK N   1      39.912  13.262  11.351  0.00  0.00     0.167 HD
ENDBRANCH  19  21
ENDBRANCH   2  19
BRANCH   4  23
HETATM   23  C   UNK N   1      33.857  15.777   9.477  0.00  0.00    -0.019 A 
HETATM   24  C   UNK N   1      34.280  17.039   9.039  0.00  0.00     0.013 A 
HETATM   25  C   UNK N   1      33.381  17.895   8.393  0.00  0.00     0.001 A 
HETATM   26  C   UNK N   1      32.058  17.494   8.182  0.00  0.00     0.000 A 
HETATM   27  C   UNK N   1      31.631  16.237   8.616  0.00  0.00     0.001 A 
HETATM   28  C   UNK N   1      32.528  15.381   9.262  0.00  0.00     0.013 A 
ENDBRANCH   4  23
TORSDOF 6
ENDMDL
MODEL 3
REMARK VINA RESULT:      -7.1      7.254      8.606
REMARK  6 active torsions:
REMARK  status: ('A' for Active; 'I' for Inactive)
REMARK    1  A    between atoms: N_1  and  C_2 
REMARK       I    between atoms: N_1  and  C_5 
REMARK    2  A    between atoms: N_1  and  C_14 
REMARK    3  A    between atoms: C_5  and  C_7 
REMARK    4  A    between atoms: C_15  and  C_19 
REMARK    5  A    between atoms: C_17  and  C_22 
REMARK    6  A    between atoms: C_19  and  O_20 
ROOT
HETATM    1  C   UNK N   1      28.940  17.285   6.338  0.00  0.00     0.063 A 
HETATM    2  C   UNK N   1      29.036  17.415   7.776  0.00  0.00     0.106 A 
HETATM    3  S   UNK N   1      30.603  16.990   8.171  0.00  0.00    -0.081 SA
HETATM    4  C   UNK N   1      31.201  16.631   6.680  0.00  0.00     0.018 A 
HETATM    5  C   UNK N   1      30.179  16.841   5.770  0.00  0.00     0.051 A 
ENDROOT
BRANCH   1   6
HETATM    6  N   UNK N   1      27.792  17.585   5.484  0.00  0.00    -0.308 N 
HETATM    7  C   UNK N   1      27.306  18.898   5.369  0.00  0.00     0.258 C 
HETATM    8  O   UNK N   1      27.890  19.802   5.950  0.00  0.00    -0.267 OA
BRANCH   6   9
HETATM    9  C   UNK N   1      27.170  16.474   4.795  0.00  0.00     0.085 C 
HETATM   10  C   UNK N   1      27.664  16.265   3.373  0.00  0.00     0.032 C 
HETATM   11  C   UNK N   1      27.023  15.214   5.640  0.00  0.00     0.032 C 
ENDBRANCH   6   9
BRANCH   7  12
HETATM   12  C   UNK N   1      26.105  19.340   4.564  0.00  0.00     0.032 A 
HETATM   13  C   UNK N   1      24.844  18.849   4.956  0.00  0.00     0.017 A 
HETATM   14  C   UNK N   1      23.679  19.211   4.275  0.00  0.00     0.007 A 
HETATM   15  C   UNK N   1      23.754  20.070   3.181  0.00  0.00    -0.062 A 
HETATM   16  C   UNK N   1      24.994  20.560   2.766  0.00  0.00     0.007 A 
HETATM   17  C   UNK N   1      22.517  20.464   2.460  0.00  0.00     0.048 C 
HETATM   18  C   UNK N   1      26.155  20.195   3.453  0.00  0.00     0.017 A 
ENDBRANCH   7  12
ENDBRANCH   1   6
BRANCH   2  19
HETATM   19  C   UNK N   1      28.092  17.803   8.870  0.00  0.00     0.185 C 
HETATM   20  O   UNK N   1      27.909  17.025   9.794  0.00  0.00    -0.646 OA
BRANCH  19  21
HETATM   21  O   UNK N   1      27.394  18.948   8.862  0.00  0.00    -0.772 OA
HETATM   22  H   UNK N   1      27.818  19.764   8.680  0.00  0.00     0.167 HD
ENDBRANCH  19  21
ENDBRANCH   2  19
BRANCH   4  23
HETATM   23  C   UNK N   1      32.554  16.165   6.338  0.00  0.00    -0.019 A 
HETATM   24  C   UNK N   1      33.559  16.100   7.313  0.00  0.00     0.013 A 
HETATM   25  C   UNK N   1      34.839  15.649   6.973  0.00  0.00     0.001 A 
HETATM   26  C   UNK N   1      35.120  15.259   5.659  0.00  0.00     0.000 A 
HETATM   27  C   UNK N   1      34.122  15.322   4.684  0.00  0.00     0.001 A 
HETATM   28  C   UNK N   1      32.844  15.773   5.023  0.00  0.00     0.013 A 
ENDBRANCH   4  23
TORSDOF 6
ENDMDL
MODEL 4
REMARK VINA RESULT:      -6.9     11.056     13.394
REMARK  6 active torsions:
REMARK  status: ('A' for Active; 'I' for Inactive)
REMARK    1  A    between atoms: N_1  and  C_2 
REMARK       I    between atoms: N_1  and  C_5 
REMARK    2  A    between atoms: N_1  and  C_14 
REMARK    3  A    between atoms: C_5  and  C_7 
REMARK    4  A    between atoms: C_15  and  C_19 
REMARK    5  A    between atoms: C_17  and  C_22 
REMARK    6  A    between atoms: C_19  and  O_20 
ROOT
HETATM    1  C   UNK N   1      34.273  15.556   8.757  0.00  0.00     0.063 A 
HETATM    2  C   UNK N   1      35.110  14.740   7.905  0.00  0.00     0.106 A 
HETATM    3  S   UNK N   1      36.050  13.817   8.933  0.00  0.00    -0.081 SA
HETATM    4  C   UNK N   1      35.516  14.357  10.393  0.00  0.00     0.018 A 
HETATM    5  C   UNK N   1      34.539  15.307  10.143  0.00  0.00     0.051 A 
ENDROOT
BRANCH   1   6
HETATM    6  N   UNK N   1      33.235  16.505   8.355  0.00  0.00    -0.308 N 
HETATM    7  C   UNK N   1      31.877  16.215   8.565  0.00  0.00     0.258 C 
HETATM    8  O   UNK N   1      31.571  15.181   9.141  0.00  0.00    -0.267 OA
BRANCH   6   9
HETATM    9  C   UNK N   1      33.668  17.726   7.711  0.00  0.00     0.085 C 
HETATM   10  C   UNK N   1      34.850  18.403   8.386  0.00  0.00     0.032 C 
HETATM   11  C   UNK N   1      33.726  17.648   6.190  0.00  0.00     0.032 C 
ENDBRANCH   6   9
BRANCH   7  12
HETATM   12  C   UNK N   1      30.705  17.079   8.158  0.00  0.00     0.032 A 
HETATM   13  C   UNK N   1      30.230  18.015   9.098  0.00  0.00     0.017 A 
HETATM   14  C   UNK N   1      29.157  18.859   8.806  0.00  0.00     0.007 A 
HETATM   15  C   UNK N   1      28.531  18.780   7.564  0.00  0.00    -0.062 A 
HETATM   16  C   UNK N   1      28.976  17.852   6.620  0.00  0.00     0.007 A 
HETATM   17  C   UNK N   1      27.395  19.682   7.245  0.00  0.00     0.048 C 
HETATM   18  C   UNK N   1      30.052  17.012   6.919  0.00  0.00     0.017 A 
ENDBRANCH   7  12
ENDBRANCH   1   6
BRANCH   2  19
HETATM   19  C   UNK N   1      35.289  14.589   6.426  0.00  0.00     0.185 C 
HETATM   20  O   UNK N   1      36.196  15.194   5.878  0.00  0.00    -0.646 OA
BRANCH  19  21
HETATM   21  O   UNK N   1      34.466  13.856   5.661  0.00  0.00    -0.772 OA
HETATM   22  H   UNK N   1      34.776  13.461   4.870  0.00  0.00     0.167 HD
ENDBRANCH  19  21
ENDBRANCH   2  19
BRANCH   4  23
HETATM   23  C   UNK N   1      35.969  13.942  11.730  0.00  0.00    -0.019 A 
HETATM   24  C   UNK N   1      36.011  14.858  12.789  0.00  0.00     0.013 A 
HETATM   25  C   UNK N   1      36.439  14.447  14.057  0.00  0.00     0.001 A 
HETATM   26  C   UNK N   1      36.823  13.119  14.271  0.00  0.00     0.000 A 
HETATM   27  C   UNK N   1      36.782  12.202  13.218  0.00  0.00     0.001 A 
HETATM   28  C   UNK N   1      36.357  12.612  11.952  0.00  0.00     0.013 A 
ENDBRANCH   4  23
TORSDOF 6
ENDMDL
MODEL 5
REMARK VINA RESULT:      -6.8     14.728     17.208
REMARK  6 active torsions:
REMARK  status: ('A' for Active; 'I' for Inactive)
REMARK    1  A    between atoms: N_1  and  C_2 
REMARK       I    between atoms: N_1  and  C_5 
REMARK    2  A    between atoms: N_1  and  C_14 
REMARK    3  A    between atoms: C_5  and  C_7 
REMARK    4  A    between atoms: C_15  and  C_19 
REMARK    5  A    between atoms: C_17  and  C_22 
REMARK    6  A    between atoms: C_19  and  O_20 
ROOT
HETATM    1  C   UNK N   1      29.269  23.304  -5.177  0.00  0.00     0.063 A 
HETATM    2  C   UNK N   1      30.215  22.667  -4.287  0.00  0.00     0.106 A 
HETATM    3  S   UNK N   1      30.761  21.309  -5.093  0.00  0.00    -0.081 SA
HETATM    4  C   UNK N   1      29.899  21.423  -6.490  0.00  0.00     0.018 A 
HETATM    5  C   UNK N   1      29.124  22.568  -6.398  0.00  0.00     0.051 A 
ENDROOT
BRANCH   1   6
HETATM    6  N   UNK N   1      28.541  24.555  -4.968  0.00  0.00    -0.308 N 
HETATM    7  C   UNK N   1      29.150  25.793  -5.232  0.00  0.00     0.258 C 
HETATM    8  O   UNK N   1      30.283  25.813  -5.691  0.00  0.00    -0.267 OA
BRANCH   6   9
HETATM    9  C   UNK N   1      27.191  24.458  -4.456  0.00  0.00     0.085 C 
HETATM   10  C   UNK N   1      26.196  23.848  -5.430  0.00  0.00     0.032 C 
HETATM   11  C   UNK N   1      27.099  23.967  -3.016  0.00  0.00     0.032 C 
ENDBRANCH   6   9
BRANCH   7  12
HETATM   12  C   UNK N   1      28.534  27.157  -5.017  0.00  0.00     0.032 A 
HETATM   13  C   UNK N   1      28.811  27.810  -3.799  0.00  0.00     0.017 A 
HETATM   14  C   UNK N   1      28.291  29.075  -3.518  0.00  0.00     0.007 A 
HETATM   15  C   UNK N   1      27.477  29.712  -4.450  0.00  0.00    -0.062 A 
HETATM   16  C   UNK N   1      27.179  29.081  -5.659  0.00  0.00     0.007 A 
HETATM   17  C   UNK N   1      26.929  31.062  -4.159  0.00  0.00     0.048 C 
HETATM   18  C   UNK N   1      27.704  27.815  -5.935  0.00  0.00     0.017 A 
ENDBRANCH   7  12
ENDBRANCH   1   6
BRANCH   2  19
HETATM   19  C   UNK N   1      30.735  22.953  -2.912  0.00  0.00     0.185 C 
HETATM   20  O   UNK N   1      30.449  24.017  -2.384  0.00  0.00    -0.646 OA
BRANCH  19  21
HETATM   21  O   UNK N   1      31.545  22.117  -2.248  0.00  0.00    -0.772 OA
HETATM   22  H   UNK N   1      31.255  21.694  -1.464  0.00  0.00     0.167 HD
ENDBRANCH  19  21
ENDBRANCH   2  19
BRANCH   4  23
HETATM   23  C   UNK N   1      29.912  20.502  -7.637  0.00  0.00    -0.019 A 
HETATM   24  C   UNK N   1      29.904  19.114  -7.443  0.00  0.00     0.013 A 
HETATM   25  C   UNK N   1      29.911  18.251  -8.545  0.00  0.00     0.001 A 
HETATM   26  C   UNK N   1      29.923  18.771  -9.844  0.00  0.00     0.000 A 
HETATM   27  C   UNK N   1      29.931  20.154 -10.042  0.00  0.00     0.001 A 
HETATM   28  C   UNK N   1      29.925  21.016  -8.942  0.00  0.00     0.013 A 
ENDBRANCH   4  23
TORSDOF 6
ENDMDL
MODEL 6
REMARK VINA RESULT:      -6.7     10.840     14.962
REMARK  6 active torsions:
REMARK  status: ('A' for Active; 'I' for Inactive)
REMARK    1  A    between atoms: N_1  and  C_2 
REMARK       I    between atoms: N_1  and  C_5 
REMARK    2  A    between atoms: N_1  and  C_14 
REMARK    3  A    between atoms: C_5  and  C_7 
REMARK    4  A    between atoms: C_15  and  C_19 
REMARK    5  A    between atoms: C_17  and  C_22 
REMARK    6  A    between atoms: C_19  and  O_20 
ROOT
HETATM    1  C   UNK N   1      33.466  15.701   8.650  0.00  0.00     0.063 A 
HETATM    2  C   UNK N   1      33.781  17.112   8.713  0.00  0.00     0.106 A 
HETATM    3  S   UNK N   1      32.436  17.908   8.121  0.00  0.00    -0.081 SA
HETATM    4  C   UNK N   1      31.463  16.630   7.765  0.00  0.00     0.018 A 
HETATM    5  C   UNK N   1      32.157  15.481   8.110  0.00  0.00     0.051 A 
ENDROOT
BRANCH   1   6
HETATM    6  N   UNK N   1      34.289  14.576   9.094  0.00  0.00    -0.308 N 
HETATM    7  C   UNK N   1      34.410  14.271  10.460  0.00  0.00     0.258 C 
HETATM    8  O   UNK N   1      33.774  14.924  11.275  0.00  0.00    -0.267 OA
BRANCH   6   9
HETATM    9  C   UNK N   1      34.987  13.822   8.075  0.00  0.00     0.085 C 
HETATM   10  C   UNK N   1      34.228  12.607   7.568  0.00  0.00     0.032 C 
HETATM   11  C   UNK N   1      35.658  14.680   7.008  0.00  0.00     0.032 C 
ENDBRANCH   6   9
BRANCH   7  12
HETATM   12  C   UNK N   1      35.259  13.173  11.059  0.00  0.00     0.032 A 
HETATM   13  C   UNK N   1      36.566  13.511  11.464  0.00  0.00     0.017 A 
HETATM   14  C   UNK N   1      37.419  12.563  12.034  0.00  0.00     0.007 A 
HETATM   15  C   UNK N   1      36.981  11.252  12.207  0.00  0.00    -0.062 A 
HETATM   16  C   UNK N   1      35.695  10.891  11.803  0.00  0.00     0.007 A 
HETATM   17  C   UNK N   1      37.881  10.243  12.822  0.00  0.00     0.048 C 
HETATM   18  C   UNK N   1      34.846  11.845  11.234  0.00  0.00     0.017 A 
ENDBRANCH   7  12
ENDBRANCH   1   6
BRANCH   2  19
HETATM   19  C   UNK N   1      34.967  17.915   9.148  0.00  0.00     0.185 C 
HETATM   20  O   UNK N   1      35.617  17.531  10.107  0.00  0.00    -0.646 OA
BRANCH  19  21
HETATM   21  O   UNK N   1      35.323  19.067   8.564  0.00  0.00    -0.772 OA
HETATM   22  H   UNK N   1      36.223  19.249   8.375  0.00  0.00     0.167 HD
ENDBRANCH  19  21
ENDBRANCH   2  19
BRANCH   4  23
HETATM   23  C   UNK N   1      30.112  16.657   7.183  0.00  0.00    -0.019 A 
HETATM   24  C   UNK N   1      29.832  15.982   5.987  0.00  0.00     0.013 A 
HETATM   25  C   UNK N   1      28.540  16.013   5.449  0.00  0.00     0.001 A 
HETATM   26  C   UNK N   1      27.524  16.716   6.105  0.00  0.00     0.000 A 
HETATM   27  C   UNK N   1      27.798  17.391   7.297  0.00  0.00     0.001 A 
HETATM   28  C   UNK N   1      29.088  17.361   7.834  0.00  0.00     0.013 A 
ENDBRANCH   4  23
TORSDOF 6
ENDMDL
MODEL 7
REMARK VINA RESULT:      -6.7     10.334     12.504
REMARK  6 active torsions:
REMARK  status: ('A' for Active; 'I' for Inactive)
REMARK    1  A    between atoms: N_1  and  C_2 
REMARK       I    between atoms: N_1  and  C_5 
REMARK    2  A    between atoms: N_1  and  C_14 
REMARK    3  A    between atoms: C_5  and  C_7 
REMARK    4  A    between atoms: C_15  and  C_19 
REMARK    5  A    between atoms: C_17  and  C_22 
REMARK    6  A    between atoms: C_19  and  O_20 
ROOT
HETATM    1  C   UNK N   1      33.625  16.063   8.772  0.00  0.00     0.063 A 
HETATM    2  C   UNK N   1      34.619  17.075   9.055  0.00  0.00     0.106 A 
HETATM    3  S   UNK N   1      35.486  16.512  10.368  0.00  0.00    -0.081 SA
HETATM    4  C   UNK N   1      34.715  15.085  10.646  0.00  0.00     0.018 A 
HETATM    5  C   UNK N   1      33.717  14.968   9.692  0.00  0.00     0.051 A 
ENDROOT
BRANCH   1   6
HETATM    6  N   UNK N   1      32.643  16.047   7.689  0.00  0.00    -0.308 N 
HETATM    7  C   UNK N   1      31.516  16.885   7.729  0.00  0.00     0.258 C 
HETATM    8  O   UNK N   1      31.391  17.671   8.657  0.00  0.00    -0.267 OA
BRANCH   6   9
HETATM    9  C   UNK N   1      32.869  15.118   6.603  0.00  0.00     0.085 C 
HETATM   10  C   UNK N   1      34.152  15.367   5.825  0.00  0.00     0.032 C 
HETATM   11  C   UNK N   1      32.572  13.664   6.948  0.00  0.00     0.032 C 
ENDBRANCH   6   9
BRANCH   7  12
HETATM   12  C   UNK N   1      30.404  16.938   6.706  0.00  0.00     0.032 A 
HETATM   13  C   UNK N   1      29.099  16.642   7.150  0.00  0.00     0.017 A 
HETATM   14  C   UNK N   1      28.010  16.674   6.277  0.00  0.00     0.007 A 
HETATM   15  C   UNK N   1      28.205  16.998   4.937  0.00  0.00    -0.062 A 
HETATM   16  C   UNK N   1      29.490  17.283   4.471  0.00  0.00     0.007 A 
HETATM   17  C   UNK N   1      27.047  17.042   4.007  0.00  0.00     0.048 C 
HETATM   18  C   UNK N   1      30.576  17.252   5.351  0.00  0.00     0.017 A 
ENDBRANCH   7  12
ENDBRANCH   1   6
BRANCH   2  19
HETATM   19  C   UNK N   1      34.975  18.405   8.467  0.00  0.00     0.185 C 
HETATM   20  O   UNK N   1      34.591  18.672   7.339  0.00  0.00    -0.646 OA
BRANCH  19  21
HETATM   21  O   UNK N   1      35.742  19.303   9.101  0.00  0.00    -0.772 OA
HETATM   22  H   UNK N   1      35.846  19.270  10.032  0.00  0.00     0.167 HD
ENDBRANCH  19  21
ENDBRANCH   2  19
BRANCH   4  23
HETATM   23  C   UNK N   1      34.995  14.098  11.701  0.00  0.00    -0.019 A 
HETATM   24  C   UNK N   1      34.675  12.745  11.521  0.00  0.00     0.013 A 
HETATM   25  C   UNK N   1      34.953  11.817  12.531  0.00  0.00     0.001 A 
HETATM   26  C   UNK N   1      35.552  12.237  13.723  0.00  0.00     0.000 A 
HETATM   27  C   UNK N   1      35.873  13.584  13.908  0.00  0.00     0.001 A 
HETATM   28  C   UNK N   1      35.595  14.511  12.900  0.00  0.00     0.013 A 
ENDBRANCH   4  23
TORSDOF 6
ENDMDL
MODEL 8
REMARK VINA RESULT:      -6.7     14.958     17.234
REMARK  6 active torsions:
REMARK  status: ('A' for Active; 'I' for Inactive)
REMARK    1  A    between atoms: N_1  and  C_2 
REMARK       I    between atoms: N_1  and  C_5 
REMARK    2  A    between atoms: N_1  and  C_14 
REMARK    3  A    between atoms: C_5  and  C_7 
REMARK    4  A    between atoms: C_15  and  C_19 
REMARK    5  A    between atoms: C_17  and  C_22 
REMARK    6  A    between atoms: C_19  and  O_20 
ROOT
HETATM    1  C   UNK N   1      27.494  22.905  -6.818  0.00  0.00     0.063 A 
HETATM    2  C   UNK N   1      26.452  22.160  -7.490  0.00  0.00     0.106 A 
HETATM    3  S   UNK N   1      27.208  20.845  -8.191  0.00  0.00    -0.081 SA
HETATM    4  C   UNK N   1      28.766  21.120  -7.740  0.00  0.00     0.018 A 
HETATM    5  C   UNK N   1      28.774  22.284  -6.989  0.00  0.00     0.051 A 
ENDROOT
BRANCH   1   6
HETATM    6  N   UNK N   1      27.354  24.117  -6.010  0.00  0.00    -0.308 N 
HETATM    7  C   UNK N   1      26.861  25.303  -6.577  0.00  0.00     0.258 C 
HETATM    8  O   UNK N   1      26.496  25.300  -7.744  0.00  0.00    -0.267 OA
BRANCH   6   9
HETATM    9  C   UNK N   1      27.771  24.042  -4.626  0.00  0.00     0.085 C 
HETATM   10  C   UNK N   1      29.003  24.871  -4.300  0.00  0.00     0.032 C 
HETATM   11  C   UNK N   1      26.628  24.125  -3.621  0.00  0.00     0.032 C 
ENDBRANCH   6   9
BRANCH   7  12
HETATM   12  C   UNK N   1      26.709  26.634  -5.875  0.00  0.00     0.032 A 
HETATM   13  C   UNK N   1      27.699  27.608  -6.109  0.00  0.00     0.017 A 
HETATM   14  C   UNK N   1      27.636  28.868  -5.508  0.00  0.00     0.007 A 
HETATM   15  C   UNK N   1      26.580  29.177  -4.655  0.00  0.00    -0.062 A 
HETATM   16  C   UNK N   1      25.592  28.224  -4.399  0.00  0.00     0.007 A 
HETATM   17  C   UNK N   1      26.504  30.519  -4.022  0.00  0.00     0.048 C 
HETATM   18  C   UNK N   1      25.661  26.966  -5.004  0.00  0.00     0.017 A 
ENDBRANCH   7  12
ENDBRANCH   1   6
BRANCH   2  19
HETATM   19  C   UNK N   1      24.976  22.332  -7.673  0.00  0.00     0.185 C 
HETATM   20  O   UNK N   1      24.217  21.624  -7.031  0.00  0.00    -0.646 OA
BRANCH  19  21
HETATM   21  O   UNK N   1      24.444  23.195  -8.550  0.00  0.00    -0.772 OA
HETATM   22  H   UNK N   1      24.784  23.262  -9.420  0.00  0.00     0.167 HD
ENDBRANCH  19  21
ENDBRANCH   2  19
BRANCH   4  23
HETATM   23  C   UNK N   1      29.955  20.314  -8.061  0.00  0.00    -0.019 A 
HETATM   24  C   UNK N   1      31.238  20.754  -7.706  0.00  0.00     0.013 A 
HETATM   25  C   UNK N   1      32.358  19.973  -8.013  0.00  0.00     0.001 A 
HETATM   26  C   UNK N   1      32.200  18.750  -8.673  0.00  0.00     0.000 A 
HETATM   27  C   UNK N   1      30.925  18.307  -9.029  0.00  0.00     0.001 A 
HETATM   28  C   UNK N   1      29.806  19.087  -8.724  0.00  0.00     0.013 A 
ENDBRANCH   4  23
TORSDOF 6
ENDMDL
MODEL 9
REMARK VINA RESULT:      -6.7      7.006      9.425
REMARK  6 active torsions:
REMARK  status: ('A' for Active; 'I' for Inactive)
REMARK    1  A    between atoms: N_1  and  C_2 
REMARK       I    between atoms: N_1  and  C_5 
REMARK    2  A    between atoms: N_1  and  C_14 
REMARK    3  A    between atoms: C_5  and  C_7 
REMARK    4  A    between atoms: C_15  and  C_19 
REMARK    5  A    between atoms: C_17  and  C_22 
REMARK    6  A    between atoms: C_19  and  O_20 
ROOT
HETATM    1  C   UNK N   1      27.098  16.789   5.069  0.00  0.00     0.063 A 
HETATM    2  C   UNK N   1      26.898  16.110   3.807  0.00  0.00     0.106 A 
HETATM    3  S   UNK N   1      25.273  15.728   3.743  0.00  0.00    -0.081 SA
HETATM    4  C   UNK N   1      24.767  16.331   5.189  0.00  0.00     0.018 A 
HETATM    5  C   UNK N   1      25.874  16.886   5.809  0.00  0.00     0.051 A 
ENDROOT
BRANCH   1   6
HETATM    6  N   UNK N   1      28.334  17.372   5.590  0.00  0.00    -0.308 N 
HETATM    7  C   UNK N   1      29.400  16.552   5.994  0.00  0.00     0.258 C 
HETATM    8  O   UNK N   1      29.305  15.341   5.856  0.00  0.00    -0.267 OA
BRANCH   6   9
HETATM    9  C   UNK N   1      28.393  18.814   5.694  0.00  0.00     0.085 C 
HETATM   10  C   UNK N   1      27.904  19.551   4.457  0.00  0.00     0.032 C 
HETATM   11  C   UNK N   1      27.914  19.368   7.031  0.00  0.00     0.032 C 
ENDBRANCH   6   9
BRANCH   7  12
HETATM   12  C   UNK N   1      30.709  17.016   6.592  0.00  0.00     0.032 A 
HETATM   13  C   UNK N   1      31.823  17.094   5.733  0.00  0.00     0.017 A 
HETATM   14  C   UNK N   1      33.070  17.519   6.196  0.00  0.00     0.007 A 
HETATM   15  C   UNK N   1      33.229  17.872   7.534  0.00  0.00    -0.062 A 
HETATM   16  C   UNK N   1      32.143  17.792   8.407  0.00  0.00     0.007 A 
HETATM   17  C   UNK N   1      34.551  18.334   8.028  0.00  0.00     0.048 C 
HETATM   18  C   UNK N   1      30.897  17.367   7.936  0.00  0.00     0.017 A 
ENDBRANCH   7  12
ENDBRANCH   1   6
BRANCH   2  19
HETATM   19  C   UNK N   1      27.783  15.711   2.667  0.00  0.00     0.185 C 
HETATM   20  O   UNK N   1      27.300  15.076   1.742  0.00  0.00    -0.646 OA
BRANCH  19  21
HETATM   21  O   UNK N   1      29.097  15.974   2.634  0.00  0.00    -0.772 OA
HETATM   22  H   UNK N   1      29.421  16.736   2.197  0.00  0.00     0.167 HD
ENDBRANCH  19  21
ENDBRANCH   2  19
BRANCH   4  23
HETATM   23  C   UNK N   1      23.409  16.298   5.756  0.00  0.00    -0.019 A 
HETATM   24  C   UNK N   1      22.562  17.410   5.654  0.00  0.00     0.013 A 
HETATM   25  C   UNK N   1      21.272  17.361   6.193  0.00  0.00     0.001 A 
HETATM   26  C   UNK N   1      20.823  16.201   6.833  0.00  0.00     0.000 A 
HETATM   27  C   UNK N   1      21.663  15.090   6.937  0.00  0.00     0.001 A 
HETATM   28  C   UNK N   1      22.952  15.139   6.400  0.00  0.00     0.013 A 
ENDBRANCH   4  23
TORSDOF 6
ENDMDL
