MODEL 1
REMARK VINA RESULT:      -5.6      0.000      0.000
REMARK  5 active torsions:
REMARK  status: ('A' for Active; 'I' for Inactive)
REMARK    1  A    between atoms: P_1  and  O_2 
REMARK    2  A    between atoms: P_1  and  C_4 
REMARK    3  A    between atoms: C_4  and  N_5 
REMARK       I    between atoms: N_5  and  C_6 
REMARK    4  A    between atoms: C_6  and  C_8 
REMARK    5  A    between atoms: C_8  and  C_9 
ROOT
HETATM    1  N   UNK N   1      36.719  13.953  12.071  0.00  0.00    -0.352 N 
HETATM    2  C   UNK N   1      35.927  13.787  13.159  0.00  0.00     0.222 C 
HETATM    3  O   UNK N   1      34.752  13.480  13.030  0.00  0.00    -0.273 OA
HETATM    4  H   UNK N   1      37.669  14.184  12.191  0.00  0.00     0.163 HD
ENDROOT
BRANCH   2   5
HETATM    5  C   UNK N   1      36.477  14.096  14.521  0.00  0.00     0.141 C 
BRANCH   5   6
HETATM    6  C   UNK N   1      36.124  13.148  15.634  0.00  0.00    -0.049 A 
HETATM    7  C   UNK N   1      36.538  11.817  15.516  0.00  0.00     0.009 A 
HETATM    8  C   UNK N   1      36.268  10.898  16.533  0.00  0.00     0.019 A 
HETATM    9  C   UNK N   1      35.584  11.306  17.679  0.00  0.00     0.006 A 
HETATM   10  I   UNK N   1      35.197   9.916  19.211  0.00  0.00    -0.045 I 
HETATM   11  C   UNK N   1      35.163  12.633  17.808  0.00  0.00     0.019 A 
HETATM   12  C   UNK N   1      35.432  13.555  16.788  0.00  0.00     0.009 A 
ENDBRANCH   5   6
ENDBRANCH   2   5
BRANCH   1  13
HETATM   13  C   UNK N   1      36.189  13.796  10.738  0.00  0.00     0.213 C 
BRANCH  13  14
HETATM   14  P   UNK N   1      35.632  15.446  10.055  0.00  0.00     0.107 P 
HETATM   15  O   UNK N   1      36.552  16.415  10.846  0.00  0.00    -0.675 OA
HETATM   16  H   UNK N   1      35.520  16.055   8.739  0.00  0.00     0.122 HD
BRANCH  14  17
HETATM   17  O   UNK N   1      34.206  15.742  10.998  0.00  0.00    -0.350 OA
HETATM   18  H   UNK N   1      33.888  16.311  11.716  0.00  0.00     0.217 HD
ENDBRANCH  14  17
ENDBRANCH  13  14
ENDBRANCH   1  13
TORSDOF 5
ENDMDL
MODEL 2
REMARK VINA RESULT:      -5.4      6.556      9.105
REMARK  5 active torsions:
REMARK  status: ('A' for Active; 'I' for Inactive)
REMARK    1  A    between atoms: P_1  and  O_2 
REMARK    2  A    between atoms: P_1  and  C_4 
REMARK    3  A    between atoms: C_4  and  N_5 
REMARK       I    between atoms: N_5  and  C_6 
REMARK    4  A    between atoms: C_6  and  C_8 
REMARK    5  A    between atoms: C_8  and  C_9 
ROOT
HETATM    1  N   UNK N   1      34.192  15.938   9.520  0.00  0.00    -0.352 N 
HETATM    2  C   UNK N   1      34.638  17.184   9.222  0.00  0.00     0.222 C 
HETATM    3  O   UNK N   1      35.385  17.774   9.986  0.00  0.00    -0.273 OA
HETATM    4  H   UNK N   1      33.604  15.467   8.887  0.00  0.00     0.163 HD
ENDROOT
BRANCH   2   5
HETATM    5  C   UNK N   1      34.112  17.877   7.999  0.00  0.00     0.141 C 
BRANCH   5   6
HETATM    6  C   UNK N   1      32.651  17.702   7.688  0.00  0.00    -0.049 A 
HETATM    7  C   UNK N   1      32.308  17.132   6.457  0.00  0.00     0.009 A 
HETATM    8  C   UNK N   1      30.969  16.912   6.126  0.00  0.00     0.019 A 
HETATM    9  C   UNK N   1      29.961  17.260   7.027  0.00  0.00     0.006 A 
HETATM   10  I   UNK N   1      27.948  16.911   6.523  0.00  0.00    -0.045 I 
HETATM   11  C   UNK N   1      30.291  17.833   8.259  0.00  0.00     0.019 A 
HETATM   12  C   UNK N   1      31.634  18.054   8.591  0.00  0.00     0.009 A 
ENDBRANCH   5   6
ENDBRANCH   2   5
BRANCH   1  13
HETATM   13  C   UNK N   1      34.570  15.292  10.755  0.00  0.00     0.213 C 
BRANCH  13  14
HETATM   14  P   UNK N   1      36.211  14.416  10.561  0.00  0.00     0.107 P 
HETATM   15  O   UNK N   1      36.444  13.909  12.010  0.00  0.00    -0.675 OA
HETATM   16  H   UNK N   1      36.743  13.355   9.722  0.00  0.00     0.122 HD
BRANCH  14  17
HETATM   17  O   UNK N   1      37.321  15.746  10.656  0.00  0.00    -0.350 OA
HETATM   18  H   UNK N   1      37.465  16.567  11.152  0.00  0.00     0.217 HD
ENDBRANCH  14  17
ENDBRANCH  13  14
ENDBRANCH   1  13
TORSDOF 5
ENDMDL
MODEL 3
REMARK VINA RESULT:      -5.3     25.457     26.278
REMARK  5 active torsions:
REMARK  status: ('A' for Active; 'I' for Inactive)
REMARK    1  A    between atoms: P_1  and  O_2 
REMARK    2  A    between atoms: P_1  and  C_4 
REMARK    3  A    between atoms: C_4  and  N_5 
REMARK       I    between atoms: N_5  and  C_6 
REMARK    4  A    between atoms: C_6  and  C_8 
REMARK    5  A    between atoms: C_8  and  C_9 
ROOT
HETATM    1  N   UNK N   1      26.274  24.432  -7.074  0.00  0.00    -0.352 N 
HETATM    2  C   UNK N   1      25.588  25.147  -6.147  0.00  0.00     0.222 C 
HETATM    3  O   UNK N   1      25.178  24.610  -5.130  0.00  0.00    -0.273 OA
HETATM    4  H   UNK N   1      26.613  24.882  -7.881  0.00  0.00     0.163 HD
ENDROOT
BRANCH   2   5
HETATM    5  C   UNK N   1      25.236  26.577  -6.438  0.00  0.00     0.141 C 
BRANCH   5   6
HETATM    6  C   UNK N   1      25.981  27.635  -5.672  0.00  0.00    -0.049 A 
HETATM    7  C   UNK N   1      25.500  27.987  -4.407  0.00  0.00     0.009 A 
HETATM    8  C   UNK N   1      26.170  28.939  -3.633  0.00  0.00     0.019 A 
HETATM    9  C   UNK N   1      27.330  29.544  -4.121  0.00  0.00     0.006 A 
HETATM   10  I   UNK N   1      28.338  30.964  -2.941  0.00  0.00    -0.045 I 
HETATM   11  C   UNK N   1      27.819  29.201  -5.385  0.00  0.00     0.019 A 
HETATM   12  C   UNK N   1      27.147  28.248  -6.161  0.00  0.00     0.009 A 
ENDBRANCH   5   6
ENDBRANCH   2   5
BRANCH   1  13
HETATM   13  C   UNK N   1      26.515  23.021  -6.891  0.00  0.00     0.213 C 
BRANCH  13  14
HETATM   14  P   UNK N   1      25.337  22.014  -7.938  0.00  0.00     0.107 P 
HETATM   15  O   UNK N   1      24.501  23.141  -8.603  0.00  0.00    -0.675 OA
HETATM   16  H   UNK N   1      25.457  21.000  -8.974  0.00  0.00     0.122 HD
BRANCH  14  17
HETATM   17  O   UNK N   1      24.138  21.566  -6.768  0.00  0.00    -0.350 OA
HETATM   18  H   UNK N   1      23.902  20.830  -6.181  0.00  0.00     0.217 HD
ENDBRANCH  14  17
ENDBRANCH  13  14
ENDBRANCH   1  13
TORSDOF 5
ENDMDL
MODEL 4
REMARK VINA RESULT:      -5.2      1.680      2.562
REMARK  5 active torsions:
REMARK  status: ('A' for Active; 'I' for Inactive)
REMARK    1  A    between atoms: P_1  and  O_2 
REMARK    2  A    between atoms: P_1  and  C_4 
REMARK    3  A    between atoms: C_4  and  N_5 
REMARK       I    between atoms: N_5  and  C_6 
REMARK    4  A    between atoms: C_6  and  C_8 
REMARK    5  A    between atoms: C_8  and  C_9 
ROOT
HETATM    1  N   UNK N   1      35.418  13.638  13.776  0.00  0.00    -0.352 N 
HETATM    2  C   UNK N   1      35.733  13.560  15.093  0.00  0.00     0.222 C 
HETATM    3  O   UNK N   1      36.854  13.846  15.480  0.00  0.00    -0.273 OA
HETATM    4  H   UNK N   1      34.505  13.421  13.480  0.00  0.00     0.163 HD
ENDROOT
BRANCH   2   5
HETATM    5  C   UNK N   1      34.722  13.007  16.056  0.00  0.00     0.141 C 
BRANCH   5   6
HETATM    6  C   UNK N   1      35.249  12.219  17.223  0.00  0.00    -0.049 A 
HETATM    7  C   UNK N   1      35.128  12.779  18.499  0.00  0.00     0.009 A 
HETATM    8  C   UNK N   1      35.568  12.079  19.626  0.00  0.00     0.019 A 
HETATM    9  C   UNK N   1      36.131  10.810  19.483  0.00  0.00     0.006 A 
HETATM   10  I   UNK N   1      36.777   9.759  21.188  0.00  0.00    -0.045 I 
HETATM   11  C   UNK N   1      36.260  10.241  18.212  0.00  0.00     0.019 A 
HETATM   12  C   UNK N   1      35.820  10.942  17.082  0.00  0.00     0.009 A 
ENDBRANCH   5   6
ENDBRANCH   2   5
BRANCH   1  13
HETATM   13  C   UNK N   1      36.405  14.037  12.801  0.00  0.00     0.213 C 
BRANCH  13  14
HETATM   14  P   UNK N   1      35.639  15.154  11.512  0.00  0.00     0.107 P 
HETATM   15  O   UNK N   1      35.537  14.182  10.306  0.00  0.00    -0.675 OA
HETATM   16  H   UNK N   1      34.442  15.975  11.410  0.00  0.00     0.122 HD
BRANCH  14  17
HETATM   17  O   UNK N   1      37.030  16.014  10.933  0.00  0.00    -0.350 OA
HETATM   18  H   UNK N   1      37.910  15.849  10.558  0.00  0.00     0.217 HD
ENDBRANCH  14  17
ENDBRANCH  13  14
ENDBRANCH   1  13
TORSDOF 5
ENDMDL
MODEL 5
REMARK VINA RESULT:      -5.2      6.982      9.623
REMARK  5 active torsions:
REMARK  status: ('A' for Active; 'I' for Inactive)
REMARK    1  A    between atoms: P_1  and  O_2 
REMARK    2  A    between atoms: P_1  and  C_4 
REMARK    3  A    between atoms: C_4  and  N_5 
REMARK       I    between atoms: N_5  and  C_6 
REMARK    4  A    between atoms: C_6  and  C_8 
REMARK    5  A    between atoms: C_8  and  C_9 
ROOT
HETATM    1  N   UNK N   1      34.342  17.024   9.657  0.00  0.00    -0.352 N 
HETATM    2  C   UNK N   1      34.362  18.045   8.764  0.00  0.00     0.222 C 
HETATM    3  O   UNK N   1      35.315  18.807   8.715  0.00  0.00    -0.273 OA
HETATM    4  H   UNK N   1      33.574  16.408   9.673  0.00  0.00     0.163 HD
ENDROOT
BRANCH   2   5
HETATM    5  C   UNK N   1      33.151  18.300   7.914  0.00  0.00     0.141 C 
BRANCH   5   6
HETATM    6  C   UNK N   1      32.875  17.322   6.805  0.00  0.00    -0.049 A 
HETATM    7  C   UNK N   1      31.929  16.319   7.039  0.00  0.00     0.009 A 
HETATM    8  C   UNK N   1      31.605  15.402   6.036  0.00  0.00     0.019 A 
HETATM    9  C   UNK N   1      32.224  15.485   4.788  0.00  0.00     0.006 A 
HETATM   10  I   UNK N   1      31.717  14.108   3.279  0.00  0.00    -0.045 I 
HETATM   11  C   UNK N   1      33.173  16.483   4.543  0.00  0.00     0.019 A 
HETATM   12  C   UNK N   1      33.499  17.401   5.549  0.00  0.00     0.009 A 
ENDBRANCH   5   6
ENDBRANCH   2   5
BRANCH   1  13
HETATM   13  C   UNK N   1      35.430  16.829  10.584  0.00  0.00     0.213 C 
BRANCH  13  14
HETATM   14  P   UNK N   1      35.290  15.161  11.418  0.00  0.00     0.107 P 
HETATM   15  O   UNK N   1      35.682  14.217  10.250  0.00  0.00    -0.675 OA
HETATM   16  H   UNK N   1      35.857  14.524  12.596  0.00  0.00     0.122 HD
BRANCH  14  17
HETATM   17  O   UNK N   1      33.583  14.871  11.318  0.00  0.00    -0.350 OA
HETATM   18  H   UNK N   1      32.745  15.353  11.230  0.00  0.00     0.217 HD
ENDBRANCH  14  17
ENDBRANCH  13  14
ENDBRANCH   1  13
TORSDOF 5
ENDMDL
MODEL 6
REMARK VINA RESULT:      -5.0      2.199      2.857
REMARK  5 active torsions:
REMARK  status: ('A' for Active; 'I' for Inactive)
REMARK    1  A    between atoms: P_1  and  O_2 
REMARK    2  A    between atoms: P_1  and  C_4 
REMARK    3  A    between atoms: C_4  and  N_5 
REMARK       I    between atoms: N_5  and  C_6 
REMARK    4  A    between atoms: C_6  and  C_8 
REMARK    5  A    between atoms: C_8  and  C_9 
ROOT
HETATM    1  N   UNK N   1      34.271  13.769  10.976  0.00  0.00    -0.352 N 
HETATM    2  C   UNK N   1      35.097  12.706  10.808  0.00  0.00     0.222 C 
HETATM    3  O   UNK N   1      36.049  12.775  10.047  0.00  0.00    -0.273 OA
HETATM    4  H   UNK N   1      33.517  13.705  11.606  0.00  0.00     0.163 HD
ENDROOT
BRANCH   2   5
HETATM    5  C   UNK N   1      34.762  11.405  11.479  0.00  0.00     0.141 C 
BRANCH   5   6
HETATM    6  C   UNK N   1      34.951  11.335  12.969  0.00  0.00    -0.049 A 
HETATM    7  C   UNK N   1      33.964  10.691  13.723  0.00  0.00     0.009 A 
HETATM    8  C   UNK N   1      34.100  10.564  15.108  0.00  0.00     0.019 A 
HETATM    9  C   UNK N   1      35.228  11.079  15.749  0.00  0.00     0.006 A 
HETATM   10  I   UNK N   1      35.429  10.869  17.833  0.00  0.00    -0.045 I 
HETATM   11  C   UNK N   1      36.220  11.727  15.005  0.00  0.00     0.019 A 
HETATM   12  C   UNK N   1      36.083  11.855  13.618  0.00  0.00     0.009 A 
ENDBRANCH   5   6
ENDBRANCH   2   5
BRANCH   1  13
HETATM   13  C   UNK N   1      34.483  14.995  10.244  0.00  0.00     0.213 C 
BRANCH  13  14
HETATM   14  P   UNK N   1      35.573  16.160  11.219  0.00  0.00     0.107 P 
HETATM   15  O   UNK N   1      35.505  17.434  10.333  0.00  0.00    -0.675 OA
HETATM   16  H   UNK N   1      35.610  16.674  12.579  0.00  0.00     0.122 HD
BRANCH  14  17
HETATM   17  O   UNK N   1      37.153  15.665  10.701  0.00  0.00    -0.350 OA
HETATM   18  H   UNK N   1      37.869  15.945  10.109  0.00  0.00     0.217 HD
ENDBRANCH  14  17
ENDBRANCH  13  14
ENDBRANCH   1  13
TORSDOF 5
ENDMDL
MODEL 7
REMARK VINA RESULT:      -5.0      1.840      2.317
REMARK  5 active torsions:
REMARK  status: ('A' for Active; 'I' for Inactive)
REMARK    1  A    between atoms: P_1  and  O_2 
REMARK    2  A    between atoms: P_1  and  C_4 
REMARK    3  A    between atoms: C_4  and  N_5 
REMARK       I    between atoms: N_5  and  C_6 
REMARK    4  A    between atoms: C_6  and  C_8 
REMARK    5  A    between atoms: C_8  and  C_9 
ROOT
HETATM    1  N   UNK N   1      34.426  13.100  11.767  0.00  0.00    -0.352 N 
HETATM    2  C   UNK N   1      35.057  12.174  12.531  0.00  0.00     0.222 C 
HETATM    3  O   UNK N   1      36.266  12.026  12.453  0.00  0.00    -0.273 OA
HETATM    4  H   UNK N   1      33.452  13.220  11.852  0.00  0.00     0.163 HD
ENDROOT
BRANCH   2   5
HETATM    5  C   UNK N   1      34.240  11.251  13.389  0.00  0.00     0.141 C 
BRANCH   5   6
HETATM    6  C   UNK N   1      34.568  11.212  14.856  0.00  0.00    -0.049 A 
HETATM    7  C   UNK N   1      34.816  12.427  15.503  0.00  0.00     0.009 A 
HETATM    8  C   UNK N   1      35.092  12.457  16.873  0.00  0.00     0.019 A 
HETATM    9  C   UNK N   1      35.118  11.270  17.606  0.00  0.00     0.006 A 
HETATM   10  I   UNK N   1      35.520  11.329  19.671  0.00  0.00    -0.045 I 
HETATM   11  C   UNK N   1      34.873  10.049  16.969  0.00  0.00     0.019 A 
HETATM   12  C   UNK N   1      34.598  10.018  15.596  0.00  0.00     0.009 A 
ENDBRANCH   5   6
ENDBRANCH   2   5
BRANCH   1  13
HETATM   13  C   UNK N   1      35.162  13.914  10.830  0.00  0.00     0.213 C 
BRANCH  13  14
HETATM   14  P   UNK N   1      35.522  15.596  11.564  0.00  0.00     0.107 P 
HETATM   15  O   UNK N   1      36.696  16.064  10.662  0.00  0.00    -0.675 OA
HETATM   16  H   UNK N   1      34.768  16.812  11.826  0.00  0.00     0.122 HD
BRANCH  14  17
HETATM   17  O   UNK N   1      36.503  15.170  12.930  0.00  0.00    -0.350 OA
HETATM   18  H   UNK N   1      36.996  15.584  13.657  0.00  0.00     0.217 HD
ENDBRANCH  14  17
ENDBRANCH  13  14
ENDBRANCH   1  13
TORSDOF 5
ENDMDL
MODEL 8
REMARK VINA RESULT:      -5.0     13.756     16.008
REMARK  5 active torsions:
REMARK  status: ('A' for Active; 'I' for Inactive)
REMARK    1  A    between atoms: P_1  and  O_2 
REMARK    2  A    between atoms: P_1  and  C_4 
REMARK    3  A    between atoms: C_4  and  N_5 
REMARK       I    between atoms: N_5  and  C_6 
REMARK    4  A    between atoms: C_6  and  C_8 
REMARK    5  A    between atoms: C_8  and  C_9 
ROOT
HETATM    1  N   UNK N   1      27.755  19.190   6.068  0.00  0.00    -0.352 N 
HETATM    2  C   UNK N   1      27.362  20.125   5.167  0.00  0.00     0.222 C 
HETATM    3  O   UNK N   1      27.310  21.304   5.480  0.00  0.00    -0.273 OA
HETATM    4  H   UNK N   1      27.809  18.245   5.796  0.00  0.00     0.163 HD
ENDROOT
BRANCH   2   5
HETATM    5  C   UNK N   1      26.882  19.684   3.814  0.00  0.00     0.141 C 
BRANCH   5   6
HETATM    6  C   UNK N   1      25.396  19.680   3.584  0.00  0.00    -0.049 A 
HETATM    7  C   UNK N   1      24.646  18.652   4.166  0.00  0.00     0.009 A 
HETATM    8  C   UNK N   1      23.257  18.615   4.015  0.00  0.00     0.019 A 
HETATM    9  C   UNK N   1      22.607  19.609   3.283  0.00  0.00     0.006 A 
HETATM   10  I   UNK N   1      20.514  19.550   3.076  0.00  0.00    -0.045 I 
HETATM   11  C   UNK N   1      23.347  20.640   2.695  0.00  0.00     0.019 A 
HETATM   12  C   UNK N   1      24.738  20.678   2.844  0.00  0.00     0.009 A 
ENDBRANCH   5   6
ENDBRANCH   2   5
BRANCH   1  13
HETATM   13  C   UNK N   1      28.096  19.562   7.420  0.00  0.00     0.213 C 
BRANCH  13  14
HETATM   14  P   UNK N   1      28.703  18.073   8.375  0.00  0.00     0.107 P 
HETATM   15  O   UNK N   1      28.290  16.923   7.418  0.00  0.00    -0.675 OA
HETATM   16  H   UNK N   1      29.969  17.631   8.938  0.00  0.00     0.122 HD
BRANCH  14  17
HETATM   17  O   UNK N   1      27.408  17.840   9.506  0.00  0.00    -0.350 OA
HETATM   18  H   UNK N   1      26.925  18.316  10.200  0.00  0.00     0.217 HD
ENDBRANCH  14  17
ENDBRANCH  13  14
ENDBRANCH   1  13
TORSDOF 5
ENDMDL
MODEL 9
REMARK VINA RESULT:      -5.0      7.304     10.119
REMARK  5 active torsions:
REMARK  status: ('A' for Active; 'I' for Inactive)
REMARK    1  A    between atoms: P_1  and  O_2 
REMARK    2  A    between atoms: P_1  and  C_4 
REMARK    3  A    between atoms: C_4  and  N_5 
REMARK       I    between atoms: N_5  and  C_6 
REMARK    4  A    between atoms: C_6  and  C_8 
REMARK    5  A    between atoms: C_8  and  C_9 
ROOT
HETATM    1  N   UNK N   1      34.899  16.455   8.862  0.00  0.00    -0.352 N 
HETATM    2  C   UNK N   1      34.579  17.461   8.011  0.00  0.00     0.222 C 
HETATM    3  O   UNK N   1      34.465  18.606   8.418  0.00  0.00    -0.273 OA
HETATM    4  H   UNK N   1      35.004  15.539   8.517  0.00  0.00     0.163 HD
ENDROOT
BRANCH   2   5
HETATM    5  C   UNK N   1      34.251  17.135   6.582  0.00  0.00     0.141 C 
BRANCH   5   6
HETATM    6  C   UNK N   1      32.809  17.243   6.169  0.00  0.00    -0.049 A 
HETATM    7  C   UNK N   1      32.531  17.504   4.823  0.00  0.00     0.009 A 
HETATM    8  C   UNK N   1      31.211  17.581   4.373  0.00  0.00     0.019 A 
HETATM    9  C   UNK N   1      30.156  17.395   5.268  0.00  0.00     0.006 A 
HETATM   10  I   UNK N   1      28.172  17.499   4.576  0.00  0.00    -0.045 I 
HETATM   11  C   UNK N   1      30.421  17.135   6.617  0.00  0.00     0.019 A 
HETATM   12  C   UNK N   1      31.744  17.059   7.068  0.00  0.00     0.009 A 
ENDBRANCH   5   6
ENDBRANCH   2   5
BRANCH   1  13
HETATM   13  C   UNK N   1      35.090  16.709  10.270  0.00  0.00     0.213 C 
BRANCH  13  14
HETATM   14  P   UNK N   1      34.906  15.129  11.253  0.00  0.00     0.107 P 
HETATM   15  O   UNK N   1      35.277  14.072  10.178  0.00  0.00    -0.675 OA
HETATM   16  H   UNK N   1      35.453  14.589  12.487  0.00  0.00     0.122 HD
BRANCH  14  17
HETATM   17  O   UNK N   1      33.192  14.873  11.172  0.00  0.00    -0.350 OA
HETATM   18  H   UNK N   1      32.361  15.256  11.496  0.00  0.00     0.217 HD
ENDBRANCH  14  17
ENDBRANCH  13  14
ENDBRANCH   1  13
TORSDOF 5
ENDMDL
