REMARK  5 active torsions:
REMARK  status: ('A' for Active; 'I' for Inactive)
REMARK    1  A    between atoms: C_1  and  C_14 
REMARK    2  A    between atoms: C_4  and  N_7 
REMARK       I    between atoms: N_7  and  C_8 
REMARK    3  A    between atoms: C_8  and  P_10 
REMARK    4  A    between atoms: P_10  and  O_11 
REMARK    5  A    between atoms: P_10  and  O_12 
ROOT
HETATM    1  N   UNK N   1      -1.129  -1.118  -0.033  0.00  0.00    -0.317 N 
HETATM    2  C   UNK N   1      -2.325  -0.483  -0.143  0.00  0.00     0.331 C 
HETATM    3  O   UNK N   1      -2.397   0.738  -0.144  0.00  0.00    -0.259 OA
HETATM    4  H   UNK N   1      -1.147  -2.101   0.032  0.00  0.00     0.169 HD
ENDROOT
BRANCH   1   5
HETATM    5  C   UNK N   1       0.150  -0.489  -0.003  0.00  0.00     0.035 A 
HETATM    6  C   UNK N   1       1.275  -1.253   0.324  0.00  0.00     0.030 A 
HETATM    7  C   UNK N   1       2.551  -0.679   0.311  0.00  0.00     0.009 A 
HETATM    8  C   UNK N   1       2.717   0.665  -0.042  0.00  0.00    -0.058 A 
HETATM    9  C   UNK N   1       1.591   1.434  -0.368  0.00  0.00     0.009 A 
HETATM   10  C   UNK N   1       0.318   0.862  -0.348  0.00  0.00     0.030 A 
BRANCH   8  11
HETATM   11  C   UNK N   1       4.105   1.239  -0.072  0.00  0.00     0.034 C 
HETATM   12  C   UNK N   1       4.161   2.698  -0.504  0.00  0.00     0.010 C 
ENDBRANCH   8  11
ENDBRANCH   1   5
BRANCH   2  13
HETATM   13  P   UNK N   1      -3.864  -1.470  -0.277  0.00  0.00     0.330 P 
HETATM   14  O   UNK N   1      -5.102  -0.536  -0.239  0.00  0.00    -0.647 OA
BRANCH  13  15
HETATM   15  O   UNK N   1      -4.134  -2.601   1.011  0.00  0.00    -0.322 OA
HETATM   16  H   UNK N   1      -4.756  -2.786   1.732  0.00  0.00     0.220 HD
ENDBRANCH  13  15
BRANCH  13  17
HETATM   17  O   UNK N   1      -4.032  -2.336  -1.772  0.00  0.00    -0.322 OA
HETATM   18  H   UNK N   1      -4.498  -2.496  -2.607  0.00  0.00     0.220 HD
ENDBRANCH  13  17
ENDBRANCH   2  13
TORSDOF 5
