MODEL 1
REMARK VINA RESULT:      -5.9      0.000      0.000
REMARK  5 active torsions:
REMARK  status: ('A' for Active; 'I' for Inactive)
REMARK    1  A    between atoms: C_1  and  C_14 
REMARK    2  A    between atoms: C_4  and  N_7 
REMARK       I    between atoms: N_7  and  C_8 
REMARK    3  A    between atoms: C_8  and  P_10 
REMARK    4  A    between atoms: P_10  and  O_11 
REMARK    5  A    between atoms: P_10  and  O_12 
ROOT
HETATM    1  N   UNK N   1      30.114  23.480  -3.934  0.00  0.00    -0.317 N 
HETATM    2  C   UNK N   1      30.738  22.871  -2.892  0.00  0.00     0.331 C 
HETATM    3  O   UNK N   1      30.484  23.176  -1.735  0.00  0.00    -0.259 OA
HETATM    4  H   UNK N   1      30.414  23.238  -4.840  0.00  0.00     0.169 HD
ENDROOT
BRANCH   1   5
HETATM    5  C   UNK N   1      29.064  24.439  -3.832  0.00  0.00     0.035 A 
HETATM    6  C   UNK N   1      29.356  25.790  -4.047  0.00  0.00     0.030 A 
HETATM    7  C   UNK N   1      28.339  26.751  -4.007  0.00  0.00     0.009 A 
HETATM    8  C   UNK N   1      27.015  26.367  -3.764  0.00  0.00    -0.058 A 
HETATM    9  C   UNK N   1      26.720  25.014  -3.546  0.00  0.00     0.009 A 
HETATM   10  C   UNK N   1      27.736  24.058  -3.580  0.00  0.00     0.030 A 
BRANCH   8  11
HETATM   11  C   UNK N   1      25.946  27.423  -3.757  0.00  0.00     0.034 C 
HETATM   12  C   UNK N   1      25.125  27.480  -5.038  0.00  0.00     0.010 C 
ENDBRANCH   8  11
ENDBRANCH   1   5
BRANCH   2  13
HETATM   13  P   UNK N   1      31.994  21.577  -3.221  0.00  0.00     0.330 P 
HETATM   14  O   UNK N   1      33.038  22.096  -4.245  0.00  0.00    -0.647 OA
BRANCH  13  15
HETATM   15  O   UNK N   1      31.385  20.114  -3.926  0.00  0.00    -0.322 OA
HETATM   16  H   UNK N   1      30.563  19.607  -4.015  0.00  0.00     0.220 HD
ENDBRANCH  13  15
BRANCH  13  17
HETATM   17  O   UNK N   1      32.943  21.131  -1.838  0.00  0.00    -0.322 OA
HETATM   18  H   UNK N   1      33.762  20.783  -1.452  0.00  0.00     0.220 HD
ENDBRANCH  13  17
ENDBRANCH   2  13
TORSDOF 5
ENDMDL
MODEL 2
REMARK VINA RESULT:      -5.6     20.024     22.416
REMARK  5 active torsions:
REMARK  status: ('A' for Active; 'I' for Inactive)
REMARK    1  A    between atoms: C_1  and  C_14 
REMARK    2  A    between atoms: C_4  and  N_7 
REMARK       I    between atoms: N_7  and  C_8 
REMARK    3  A    between atoms: C_8  and  P_10 
REMARK    4  A    between atoms: P_10  and  O_11 
REMARK    5  A    between atoms: P_10  and  O_12 
ROOT
HETATM    1  N   UNK N   1      36.272  14.184  13.484  0.00  0.00    -0.317 N 
HETATM    2  C   UNK N   1      35.444  14.193  12.407  0.00  0.00     0.331 C 
HETATM    3  O   UNK N   1      34.549  13.368  12.287  0.00  0.00    -0.259 OA
HETATM    4  H   UNK N   1      37.014  14.831  13.485  0.00  0.00     0.169 HD
ENDROOT
BRANCH   1   5
HETATM    5  C   UNK N   1      36.162  13.321  14.613  0.00  0.00     0.035 A 
HETATM    6  C   UNK N   1      35.377  13.720  15.700  0.00  0.00     0.030 A 
HETATM    7  C   UNK N   1      35.205  12.874  16.801  0.00  0.00     0.009 A 
HETATM    8  C   UNK N   1      35.809  11.612  16.822  0.00  0.00    -0.058 A 
HETATM    9  C   UNK N   1      36.598  11.210  15.736  0.00  0.00     0.009 A 
HETATM   10  C   UNK N   1      36.774  12.057  14.641  0.00  0.00     0.030 A 
BRANCH   8  11
HETATM   11  C   UNK N   1      35.579  10.720  18.009  0.00  0.00     0.034 C 
HETATM   12  C   UNK N   1      35.444  11.469  19.327  0.00  0.00     0.010 C 
ENDBRANCH   8  11
ENDBRANCH   1   5
BRANCH   2  13
HETATM   13  P   UNK N   1      35.677  15.455  11.098  0.00  0.00     0.330 P 
HETATM   14  O   UNK N   1      35.011  14.984   9.778  0.00  0.00    -0.647 OA
BRANCH  13  15
HETATM   15  O   UNK N   1      37.326  15.774  10.661  0.00  0.00    -0.322 OA
HETATM   16  H   UNK N   1      38.219  15.770  11.040  0.00  0.00     0.220 HD
ENDBRANCH  13  15
BRANCH  13  17
HETATM   17  O   UNK N   1      34.923  16.982  11.432  0.00  0.00    -0.322 OA
HETATM   18  H   UNK N   1      34.293  17.681  11.199  0.00  0.00     0.220 HD
ENDBRANCH  13  17
ENDBRANCH   2  13
TORSDOF 5
ENDMDL
MODEL 3
REMARK VINA RESULT:      -5.5     12.238     13.784
REMARK  5 active torsions:
REMARK  status: ('A' for Active; 'I' for Inactive)
REMARK    1  A    between atoms: C_1  and  C_14 
REMARK    2  A    between atoms: C_4  and  N_7 
REMARK       I    between atoms: N_7  and  C_8 
REMARK    3  A    between atoms: C_8  and  P_10 
REMARK    4  A    between atoms: P_10  and  O_11 
REMARK    5  A    between atoms: P_10  and  O_12 
ROOT
HETATM    1  N   UNK N   1      31.913  16.730   8.831  0.00  0.00    -0.317 N 
HETATM    2  C   UNK N   1      33.185  17.195   8.729  0.00  0.00     0.331 C 
HETATM    3  O   UNK N   1      33.462  18.127   7.987  0.00  0.00    -0.259 OA
HETATM    4  H   UNK N   1      31.771  15.933   9.393  0.00  0.00     0.169 HD
ENDROOT
BRANCH   1   5
HETATM    5  C   UNK N   1      30.766  17.291   8.198  0.00  0.00     0.035 A 
HETATM    6  C   UNK N   1      29.998  18.230   8.893  0.00  0.00     0.030 A 
HETATM    7  C   UNK N   1      28.897  18.840   8.282  0.00  0.00     0.009 A 
HETATM    8  C   UNK N   1      28.558  18.524   6.961  0.00  0.00    -0.058 A 
HETATM    9  C   UNK N   1      29.325  17.581   6.262  0.00  0.00     0.009 A 
HETATM   10  C   UNK N   1      30.419  16.969   6.876  0.00  0.00     0.030 A 
BRANCH   8  11
HETATM   11  C   UNK N   1      27.386  19.219   6.329  0.00  0.00     0.034 C 
HETATM   12  C   UNK N   1      27.459  20.738   6.397  0.00  0.00     0.010 C 
ENDBRANCH   8  11
ENDBRANCH   1   5
BRANCH   2  13
HETATM   13  P   UNK N   1      34.519  16.406   9.708  0.00  0.00     0.330 P 
HETATM   14  O   UNK N   1      35.334  15.435   8.814  0.00  0.00    -0.647 OA
BRANCH  13  15
HETATM   15  O   UNK N   1      33.983  15.426  11.036  0.00  0.00    -0.322 OA
HETATM   16  H   UNK N   1      33.591  14.558  11.221  0.00  0.00     0.220 HD
ENDBRANCH  13  15
BRANCH  13  17
HETATM   17  O   UNK N   1      35.706  17.512  10.325  0.00  0.00    -0.322 OA
HETATM   18  H   UNK N   1      36.287  18.279  10.207  0.00  0.00     0.220 HD
ENDBRANCH  13  17
ENDBRANCH   2  13
TORSDOF 5
ENDMDL
MODEL 4
REMARK VINA RESULT:      -5.5     21.648     23.953
REMARK  5 active torsions:
REMARK  status: ('A' for Active; 'I' for Inactive)
REMARK    1  A    between atoms: C_1  and  C_14 
REMARK    2  A    between atoms: C_4  and  N_7 
REMARK       I    between atoms: N_7  and  C_8 
REMARK    3  A    between atoms: C_8  and  P_10 
REMARK    4  A    between atoms: P_10  and  O_11 
REMARK    5  A    between atoms: P_10  and  O_12 
ROOT
HETATM    1  N   UNK N   1      35.971  13.224  14.896  0.00  0.00    -0.317 N 
HETATM    2  C   UNK N   1      35.128  13.020  13.850  0.00  0.00     0.331 C 
HETATM    3  O   UNK N   1      34.193  12.236  13.934  0.00  0.00    -0.259 OA
HETATM    4  H   UNK N   1      36.745  13.815  14.740  0.00  0.00     0.169 HD
ENDROOT
BRANCH   1   5
HETATM    5  C   UNK N   1      35.838  12.660  16.198  0.00  0.00     0.035 A 
HETATM    6  C   UNK N   1      35.316  13.448  17.229  0.00  0.00     0.030 A 
HETATM    7  C   UNK N   1      35.122  12.910  18.506  0.00  0.00     0.009 A 
HETATM    8  C   UNK N   1      35.438  11.571  18.763  0.00  0.00    -0.058 A 
HETATM    9  C   UNK N   1      35.964  10.779  17.732  0.00  0.00     0.009 A 
HETATM   10  C   UNK N   1      36.162  11.319  16.460  0.00  0.00     0.030 A 
BRANCH   8  11
HETATM   11  C   UNK N   1      35.190  11.020  20.138  0.00  0.00     0.034 C 
HETATM   12  C   UNK N   1      36.404  10.344  20.761  0.00  0.00     0.010 C 
ENDBRANCH   8  11
ENDBRANCH   1   5
BRANCH   2  13
HETATM   13  P   UNK N   1      35.402  13.921  12.278  0.00  0.00     0.330 P 
HETATM   14  O   UNK N   1      36.042  12.977  11.226  0.00  0.00    -0.647 OA
BRANCH  13  15
HETATM   15  O   UNK N   1      36.493  15.267  12.375  0.00  0.00    -0.322 OA
HETATM   16  H   UNK N   1      36.812  15.933  13.003  0.00  0.00     0.220 HD
ENDBRANCH  13  15
BRANCH  13  17
HETATM   17  O   UNK N   1      33.949  14.485  11.513  0.00  0.00    -0.322 OA
HETATM   18  H   UNK N   1      32.990  14.625  11.523  0.00  0.00     0.220 HD
ENDBRANCH  13  17
ENDBRANCH   2  13
TORSDOF 5
ENDMDL
MODEL 5
REMARK VINA RESULT:      -5.5      5.265      6.114
REMARK  5 active torsions:
REMARK  status: ('A' for Active; 'I' for Inactive)
REMARK    1  A    between atoms: C_1  and  C_14 
REMARK    2  A    between atoms: C_4  and  N_7 
REMARK       I    between atoms: N_7  and  C_8 
REMARK    3  A    between atoms: C_8  and  P_10 
REMARK    4  A    between atoms: P_10  and  O_11 
REMARK    5  A    between atoms: P_10  and  O_12 
ROOT
HETATM    1  N   UNK N   1      25.496  25.110  -7.477  0.00  0.00    -0.317 N 
HETATM    2  C   UNK N   1      25.898  23.843  -7.198  0.00  0.00     0.331 C 
HETATM    3  O   UNK N   1      26.651  23.607  -6.263  0.00  0.00    -0.259 OA
HETATM    4  H   UNK N   1      24.947  25.239  -8.285  0.00  0.00     0.169 HD
ENDROOT
BRANCH   1   5
HETATM    5  C   UNK N   1      25.797  26.270  -6.705  0.00  0.00     0.035 A 
HETATM    6  C   UNK N   1      24.980  26.592  -5.616  0.00  0.00     0.030 A 
HETATM    7  C   UNK N   1      25.278  27.693  -4.806  0.00  0.00     0.009 A 
HETATM    8  C   UNK N   1      26.406  28.479  -5.070  0.00  0.00    -0.058 A 
HETATM    9  C   UNK N   1      27.226  28.159  -6.162  0.00  0.00     0.009 A 
HETATM   10  C   UNK N   1      26.923  27.065  -6.973  0.00  0.00     0.030 A 
BRANCH   8  11
HETATM   11  C   UNK N   1      26.710  29.636  -4.162  0.00  0.00     0.034 C 
HETATM   12  C   UNK N   1      27.625  30.684  -4.781  0.00  0.00     0.010 C 
ENDBRANCH   8  11
ENDBRANCH   1   5
BRANCH   2  13
HETATM   13  P   UNK N   1      25.318  22.458  -8.249  0.00  0.00     0.330 P 
HETATM   14  O   UNK N   1      25.484  22.820  -9.749  0.00  0.00    -0.647 OA
BRANCH  13  15
HETATM   15  O   UNK N   1      23.638  22.054  -8.084  0.00  0.00    -0.322 OA
HETATM   16  H   UNK N   1      22.915  21.629  -8.570  0.00  0.00     0.220 HD
ENDBRANCH  13  15
BRANCH  13  17
HETATM   17  O   UNK N   1      26.225  20.989  -8.065  0.00  0.00    -0.322 OA
HETATM   18  H   UNK N   1      27.014  20.456  -8.246  0.00  0.00     0.220 HD
ENDBRANCH  13  17
ENDBRANCH   2  13
TORSDOF 5
ENDMDL
MODEL 6
REMARK VINA RESULT:      -5.5     16.944     19.109
REMARK  5 active torsions:
REMARK  status: ('A' for Active; 'I' for Inactive)
REMARK    1  A    between atoms: C_1  and  C_14 
REMARK    2  A    between atoms: C_4  and  N_7 
REMARK       I    between atoms: N_7  and  C_8 
REMARK    3  A    between atoms: C_8  and  P_10 
REMARK    4  A    between atoms: P_10  and  O_11 
REMARK    5  A    between atoms: P_10  and  O_12 
ROOT
HETATM    1  N   UNK N   1      36.428  14.881  12.423  0.00  0.00    -0.317 N 
HETATM    2  C   UNK N   1      35.835  14.064  13.332  0.00  0.00     0.331 C 
HETATM    3  O   UNK N   1      34.707  13.626  13.151  0.00  0.00    -0.259 OA
HETATM    4  H   UNK N   1      37.307  15.255  12.662  0.00  0.00     0.169 HD
ENDROOT
BRANCH   1   5
HETATM    5  C   UNK N   1      35.891  15.245  11.153  0.00  0.00     0.035 A 
HETATM    6  C   UNK N   1      35.297  16.503  11.003  0.00  0.00     0.030 A 
HETATM    7  C   UNK N   1      34.808  16.912   9.757  0.00  0.00     0.009 A 
HETATM    8  C   UNK N   1      34.919  16.071   8.644  0.00  0.00    -0.058 A 
HETATM    9  C   UNK N   1      35.511  14.809   8.793  0.00  0.00     0.009 A 
HETATM   10  C   UNK N   1      35.992  14.399  10.037  0.00  0.00     0.030 A 
BRANCH   8  11
HETATM   11  C   UNK N   1      34.408  16.556   7.317  0.00  0.00     0.034 C 
HETATM   12  C   UNK N   1      33.764  17.934   7.370  0.00  0.00     0.010 C 
ENDBRANCH   8  11
ENDBRANCH   1   5
BRANCH   2  13
HETATM   13  P   UNK N   1      36.731  13.620  14.869  0.00  0.00     0.330 P 
HETATM   14  O   UNK N   1      35.727  13.161  15.959  0.00  0.00    -0.647 OA
BRANCH  13  15
HETATM   15  O   UNK N   1      37.615  14.915  15.612  0.00  0.00    -0.322 OA
HETATM   16  H   UNK N   1      37.484  15.680  16.194  0.00  0.00     0.220 HD
ENDBRANCH  13  15
BRANCH  13  17
HETATM   17  O   UNK N   1      37.818  12.278  14.702  0.00  0.00    -0.322 OA
HETATM   18  H   UNK N   1      38.657  11.905  14.391  0.00  0.00     0.220 HD
ENDBRANCH  13  17
ENDBRANCH   2  13
TORSDOF 5
ENDMDL
MODEL 7
REMARK VINA RESULT:      -5.3     16.236     18.910
REMARK  5 active torsions:
REMARK  status: ('A' for Active; 'I' for Inactive)
REMARK    1  A    between atoms: C_1  and  C_14 
REMARK    2  A    between atoms: C_4  and  N_7 
REMARK       I    between atoms: N_7  and  C_8 
REMARK    3  A    between atoms: C_8  and  P_10 
REMARK    4  A    between atoms: P_10  and  O_11 
REMARK    5  A    between atoms: P_10  and  O_12 
ROOT
HETATM    1  N   UNK N   1      34.977  15.457   9.655  0.00  0.00    -0.317 N 
HETATM    2  C   UNK N   1      35.056  16.813   9.662  0.00  0.00     0.331 C 
HETATM    3  O   UNK N   1      35.614  17.411  10.572  0.00  0.00    -0.259 OA
HETATM    4  H   UNK N   1      34.453  15.042   8.930  0.00  0.00     0.169 HD
ENDROOT
BRANCH   1   5
HETATM    5  C   UNK N   1      35.583  14.581  10.602  0.00  0.00     0.035 A 
HETATM    6  C   UNK N   1      34.846  14.173  11.718  0.00  0.00     0.030 A 
HETATM    7  C   UNK N   1      35.393  13.272  12.639  0.00  0.00     0.009 A 
HETATM    8  C   UNK N   1      36.680  12.759  12.445  0.00  0.00    -0.058 A 
HETATM    9  C   UNK N   1      37.422  13.167  11.328  0.00  0.00     0.009 A 
HETATM   10  C   UNK N   1      36.878  14.072  10.414  0.00  0.00     0.030 A 
BRANCH   8  11
HETATM   11  C   UNK N   1      37.223  11.772  13.440  0.00  0.00     0.034 C 
HETATM   12  C   UNK N   1      36.853  10.326  13.140  0.00  0.00     0.010 C 
ENDBRANCH   8  11
ENDBRANCH   1   5
BRANCH   2  13
HETATM   13  P   UNK N   1      34.300  17.771   8.294  0.00  0.00     0.330 P 
HETATM   14  O   UNK N   1      34.876  19.211   8.268  0.00  0.00    -0.647 OA
BRANCH  13  15
HETATM   15  O   UNK N   1      32.582  17.993   8.404  0.00  0.00    -0.322 OA
HETATM   16  H   UNK N   1      31.884  18.606   8.129  0.00  0.00     0.220 HD
ENDBRANCH  13  15
BRANCH  13  17
HETATM   17  O   UNK N   1      34.642  17.149   6.710  0.00  0.00    -0.322 OA
HETATM   18  H   UNK N   1      35.269  16.801   6.057  0.00  0.00     0.220 HD
ENDBRANCH  13  17
ENDBRANCH   2  13
TORSDOF 5
ENDMDL
MODEL 8
REMARK VINA RESULT:      -5.2     22.885     25.101
REMARK  5 active torsions:
REMARK  status: ('A' for Active; 'I' for Inactive)
REMARK    1  A    between atoms: C_1  and  C_14 
REMARK    2  A    between atoms: C_4  and  N_7 
REMARK       I    between atoms: N_7  and  C_8 
REMARK    3  A    between atoms: C_8  and  P_10 
REMARK    4  A    between atoms: P_10  and  O_11 
REMARK    5  A    between atoms: P_10  and  O_12 
ROOT
HETATM    1  N   UNK N   1      36.085  11.897  15.979  0.00  0.00    -0.317 N 
HETATM    2  C   UNK N   1      35.372  12.746  15.193  0.00  0.00     0.331 C 
HETATM    3  O   UNK N   1      34.165  12.881  15.339  0.00  0.00    -0.259 OA
HETATM    4  H   UNK N   1      37.040  11.783  15.764  0.00  0.00     0.169 HD
ENDROOT
BRANCH   1   5
HETATM    5  C   UNK N   1      35.576  11.158  17.086  0.00  0.00     0.035 A 
HETATM    6  C   UNK N   1      35.600  11.737  18.359  0.00  0.00     0.030 A 
HETATM    7  C   UNK N   1      35.060  11.060  19.457  0.00  0.00     0.009 A 
HETATM    8  C   UNK N   1      34.478   9.798  19.292  0.00  0.00    -0.058 A 
HETATM    9  C   UNK N   1      34.454   9.213  18.018  0.00  0.00     0.009 A 
HETATM   10  C   UNK N   1      34.999   9.887  16.924  0.00  0.00     0.030 A 
BRANCH   8  11
HETATM   11  C   UNK N   1      33.883   9.113  20.490  0.00  0.00     0.034 C 
HETATM   12  C   UNK N   1      32.752   8.152  20.153  0.00  0.00     0.010 C 
ENDBRANCH   8  11
ENDBRANCH   1   5
BRANCH   2  13
HETATM   13  P   UNK N   1      36.226  13.697  13.880  0.00  0.00     0.330 P 
HETATM   14  O   UNK N   1      35.204  14.172  12.814  0.00  0.00    -0.647 OA
BRANCH  13  15
HETATM   15  O   UNK N   1      37.415  12.811  12.977  0.00  0.00    -0.322 OA
HETATM   16  H   UNK N   1      38.354  12.571  13.003  0.00  0.00     0.220 HD
ENDBRANCH  13  15
BRANCH  13  17
HETATM   17  O   UNK N   1      36.978  15.162  14.429  0.00  0.00    -0.322 OA
HETATM   18  H   UNK N   1      37.409  16.010  14.244  0.00  0.00     0.220 HD
ENDBRANCH  13  17
ENDBRANCH   2  13
TORSDOF 5
ENDMDL
MODEL 9
REMARK VINA RESULT:      -5.0     10.617     11.747
REMARK  5 active torsions:
REMARK  status: ('A' for Active; 'I' for Inactive)
REMARK    1  A    between atoms: C_1  and  C_14 
REMARK    2  A    between atoms: C_4  and  N_7 
REMARK       I    between atoms: N_7  and  C_8 
REMARK    3  A    between atoms: C_8  and  P_10 
REMARK    4  A    between atoms: P_10  and  O_11 
REMARK    5  A    between atoms: P_10  and  O_12 
ROOT
HETATM    1  N   UNK N   1      23.877  19.957   3.033  0.00  0.00    -0.317 N 
HETATM    2  C   UNK N   1      22.676  19.521   3.495  0.00  0.00     0.331 C 
HETATM    3  O   UNK N   1      22.604  18.655   4.356  0.00  0.00    -0.259 OA
HETATM    4  H   UNK N   1      23.864  20.604   2.291  0.00  0.00     0.169 HD
ENDROOT
BRANCH   1   5
HETATM    5  C   UNK N   1      25.154  19.561   3.527  0.00  0.00     0.035 A 
HETATM    6  C   UNK N   1      25.549  18.225   3.395  0.00  0.00     0.030 A 
HETATM    7  C   UNK N   1      26.817  17.814   3.821  0.00  0.00     0.009 A 
HETATM    8  C   UNK N   1      27.710  18.740   4.373  0.00  0.00    -0.058 A 
HETATM    9  C   UNK N   1      27.317  20.078   4.508  0.00  0.00     0.009 A 
HETATM   10  C   UNK N   1      26.049  20.485   4.089  0.00  0.00     0.030 A 
BRANCH   8  11
HETATM   11  C   UNK N   1      29.073  18.267   4.793  0.00  0.00     0.034 C 
HETATM   12  C   UNK N   1      29.486  16.940   4.171  0.00  0.00     0.010 C 
ENDBRANCH   8  11
ENDBRANCH   1   5
BRANCH   2  13
HETATM   13  P   UNK N   1      21.131  20.230   2.808  0.00  0.00     0.330 P 
HETATM   14  O   UNK N   1      20.131  20.542   3.952  0.00  0.00    -0.647 OA
BRANCH  13  15
HETATM   15  O   UNK N   1      20.251  19.188   1.735  0.00  0.00    -0.322 OA
HETATM   16  H   UNK N   1      19.346  19.006   1.436  0.00  0.00     0.220 HD
ENDBRANCH  13  15
BRANCH  13  17
HETATM   17  O   UNK N   1      21.339  21.752   1.999  0.00  0.00    -0.322 OA
HETATM   18  H   UNK N   1      21.587  22.263   1.214  0.00  0.00     0.220 HD
ENDBRANCH  13  17
ENDBRANCH   2  13
TORSDOF 5
ENDMDL
