MODEL 1
REMARK VINA RESULT:      -6.9      0.000      0.000
REMARK  5 active torsions:
REMARK  status: ('A' for Active; 'I' for Inactive)
REMARK    1  A    between atoms: C_2  and  C_7 
REMARK    2  A    between atoms: C_7  and  C_9 
REMARK    3  A    between atoms: C_12  and  C_15 
REMARK    4  A    between atoms: C_15  and  C_17 
REMARK    5  A    between atoms: C_17  and  O_19 
ROOT
HETATM    1  C   UNK N   1      29.865  17.699   7.662  0.00  0.00     0.015 A 
HETATM    2  C   UNK N   1      30.672  18.264   8.661  0.00  0.00     0.016 A 
HETATM    3  C   UNK N   1      32.068  18.179   8.576  0.00  0.00     0.009 A 
HETATM    4  C   UNK N   1      32.675  17.512   7.500  0.00  0.00    -0.044 A 
HETATM    5  C   UNK N   1      31.863  16.910   6.529  0.00  0.00     0.009 A 
HETATM    6  C   UNK N   1      30.478  17.013   6.606  0.00  0.00     0.016 A 
ENDROOT
BRANCH   1   7
HETATM    7  C   UNK N   1      28.389  17.885   7.695  0.00  0.00     0.199 C 
HETATM    8  O   UNK N   1      27.738  17.335   8.575  0.00  0.00    -0.286 OA
BRANCH   7   9
HETATM    9  C   UNK N   1      27.687  18.789   6.748  0.00  0.00     0.057 A 
HETATM   10  S   UNK N   1      26.906  18.326   5.361  0.00  0.00    -0.080 SA
HETATM   11  C   UNK N   1      26.286  19.792   4.901  0.00  0.00     0.047 A 
HETATM   12  C   UNK N   1      26.684  20.730   5.854  0.00  0.00     0.027 A 
HETATM   13  I   UNK N   1      25.080  20.163   3.220  0.00  0.00    -0.036 I 
HETATM   14  C   UNK N   1      27.470  20.167   6.896  0.00  0.00     0.025 A 
ENDBRANCH   7   9
ENDBRANCH   1   7
BRANCH   4  15
HETATM   15  C   UNK N   1      34.185  17.473   7.392  0.00  0.00     0.112 C 
HETATM   16  C   UNK N   1      34.650  16.027   7.303  0.00  0.00     0.026 C 
BRANCH  15  17
HETATM   17  C   UNK N   1      34.890  18.132   8.555  0.00  0.00     0.148 C 
HETATM   18  O   UNK N   1      35.262  19.292   8.466  0.00  0.00    -0.649 OA
BRANCH  17  19
HETATM   19  O   UNK N   1      35.115  17.448   9.695  0.00  0.00    -0.776 OA
HETATM   20  H   UNK N   1      34.558  17.141  10.384  0.00  0.00     0.167 HD
ENDBRANCH  17  19
ENDBRANCH  15  17
ENDBRANCH   4  15
TORSDOF 5
ENDMDL
MODEL 2
REMARK VINA RESULT:      -6.8     11.520     14.307
REMARK  5 active torsions:
REMARK  status: ('A' for Active; 'I' for Inactive)
REMARK    1  A    between atoms: C_2  and  C_7 
REMARK    2  A    between atoms: C_7  and  C_9 
REMARK    3  A    between atoms: C_12  and  C_15 
REMARK    4  A    between atoms: C_15  and  C_17 
REMARK    5  A    between atoms: C_17  and  O_19 
ROOT
HETATM    1  C   UNK N   1      29.125  23.869  -3.170  0.00  0.00     0.015 A 
HETATM    2  C   UNK N   1      29.480  25.024  -3.884  0.00  0.00     0.016 A 
HETATM    3  C   UNK N   1      28.490  25.895  -4.358  0.00  0.00     0.009 A 
HETATM    4  C   UNK N   1      27.131  25.614  -4.140  0.00  0.00    -0.044 A 
HETATM    5  C   UNK N   1      26.782  24.435  -3.466  0.00  0.00     0.009 A 
HETATM    6  C   UNK N   1      27.768  23.582  -2.980  0.00  0.00     0.016 A 
ENDROOT
BRANCH   1   7
HETATM    7  C   UNK N   1      30.178  23.004  -2.574  0.00  0.00     0.199 C 
HETATM    8  O   UNK N   1      30.386  23.061  -1.368  0.00  0.00    -0.286 OA
BRANCH   7   9
HETATM    9  C   UNK N   1      30.927  22.005  -3.380  0.00  0.00     0.057 A 
HETATM   10  S   UNK N   1      32.495  21.531  -3.127  0.00  0.00    -0.080 SA
HETATM   11  C   UNK N   1      32.610  20.354  -4.288  0.00  0.00     0.047 A 
HETATM   12  C   UNK N   1      31.377  20.289  -4.938  0.00  0.00     0.027 A 
HETATM   13  I   UNK N   1      34.285  19.147  -4.677  0.00  0.00    -0.036 I 
HETATM   14  C   UNK N   1      30.428  21.215  -4.426  0.00  0.00     0.025 A 
ENDBRANCH   7   9
ENDBRANCH   1   7
BRANCH   4  15
HETATM   15  C   UNK N   1      26.074  26.590  -4.610  0.00  0.00     0.112 C 
HETATM   16  C   UNK N   1      26.482  27.168  -5.957  0.00  0.00     0.026 C 
BRANCH  15  17
HETATM   17  C   UNK N   1      25.839  27.733  -3.650  0.00  0.00     0.148 C 
HETATM   18  O   UNK N   1      25.883  27.538  -2.446  0.00  0.00    -0.649 OA
BRANCH  17  19
HETATM   19  O   UNK N   1      25.579  28.973  -4.113  0.00  0.00    -0.776 OA
HETATM   20  H   UNK N   1      25.666  29.830  -3.746  0.00  0.00     0.167 HD
ENDBRANCH  17  19
ENDBRANCH  15  17
ENDBRANCH   4  15
TORSDOF 5
ENDMDL
MODEL 3
REMARK VINA RESULT:      -6.5      7.242      9.948
REMARK  5 active torsions:
REMARK  status: ('A' for Active; 'I' for Inactive)
REMARK    1  A    between atoms: C_2  and  C_7 
REMARK    2  A    between atoms: C_7  and  C_9 
REMARK    3  A    between atoms: C_12  and  C_15 
REMARK    4  A    between atoms: C_15  and  C_17 
REMARK    5  A    between atoms: C_17  and  O_19 
ROOT
HETATM    1  C   UNK N   1      35.716  14.440  11.197  0.00  0.00     0.015 A 
HETATM    2  C   UNK N   1      34.636  14.035  10.398  0.00  0.00     0.016 A 
HETATM    3  C   UNK N   1      33.927  14.975   9.639  0.00  0.00     0.009 A 
HETATM    4  C   UNK N   1      34.276  16.335   9.683  0.00  0.00    -0.044 A 
HETATM    5  C   UNK N   1      35.325  16.738  10.519  0.00  0.00     0.009 A 
HETATM    6  C   UNK N   1      36.041  15.800  11.257  0.00  0.00     0.016 A 
ENDROOT
BRANCH   1   7
HETATM    7  C   UNK N   1      36.536  13.428  11.917  0.00  0.00     0.199 C 
HETATM    8  O   UNK N   1      37.468  12.890  11.332  0.00  0.00    -0.286 OA
BRANCH   7   9
HETATM    9  C   UNK N   1      36.318  13.114  13.353  0.00  0.00     0.057 A 
HETATM   10  S   UNK N   1      35.939  11.625  13.974  0.00  0.00    -0.080 SA
HETATM   11  C   UNK N   1      35.966  11.994  15.589  0.00  0.00     0.047 A 
HETATM   12  C   UNK N   1      36.285  13.347  15.702  0.00  0.00     0.027 A 
HETATM   13  I   UNK N   1      35.630  10.660  17.178  0.00  0.00    -0.036 I 
HETATM   14  C   UNK N   1      36.487  13.979  14.444  0.00  0.00     0.025 A 
ENDBRANCH   7   9
ENDBRANCH   1   7
BRANCH   4  15
HETATM   15  C   UNK N   1      33.536  17.332   8.817  0.00  0.00     0.112 C 
HETATM   16  C   UNK N   1      32.542  16.595   7.931  0.00  0.00     0.026 C 
BRANCH  15  17
HETATM   17  C   UNK N   1      34.444  18.155   7.934  0.00  0.00     0.148 C 
HETATM   18  O   UNK N   1      34.589  17.857   6.759  0.00  0.00    -0.649 OA
BRANCH  17  19
HETATM   19  O   UNK N   1      35.100  19.222   8.434  0.00  0.00    -0.776 OA
HETATM   20  H   UNK N   1      35.405  20.026   8.060  0.00  0.00     0.167 HD
ENDBRANCH  17  19
ENDBRANCH  15  17
ENDBRANCH   4  15
TORSDOF 5
ENDMDL
MODEL 4
REMARK VINA RESULT:      -6.4      3.850      5.973
REMARK  5 active torsions:
REMARK  status: ('A' for Active; 'I' for Inactive)
REMARK    1  A    between atoms: C_2  and  C_7 
REMARK    2  A    between atoms: C_7  and  C_9 
REMARK    3  A    between atoms: C_12  and  C_15 
REMARK    4  A    between atoms: C_15  and  C_17 
REMARK    5  A    between atoms: C_17  and  O_19 
ROOT
HETATM    1  C   UNK N   1      34.814  16.754   9.173  0.00  0.00     0.015 A 
HETATM    2  C   UNK N   1      35.268  17.101  10.455  0.00  0.00     0.016 A 
HETATM    3  C   UNK N   1      35.773  16.118  11.316  0.00  0.00     0.009 A 
HETATM    4  C   UNK N   1      35.814  14.772  10.914  0.00  0.00    -0.044 A 
HETATM    5  C   UNK N   1      35.316  14.427   9.651  0.00  0.00     0.009 A 
HETATM    6  C   UNK N   1      34.833  15.407   8.790  0.00  0.00     0.016 A 
ENDROOT
BRANCH   1   7
HETATM    7  C   UNK N   1      34.380  17.812   8.220  0.00  0.00     0.199 C 
HETATM    8  O   UNK N   1      34.890  18.923   8.290  0.00  0.00    -0.286 OA
BRANCH   7   9
HETATM    9  C   UNK N   1      33.412  17.537   7.127  0.00  0.00     0.057 A 
HETATM   10  S   UNK N   1      31.785  17.282   7.311  0.00  0.00    -0.080 SA
HETATM   11  C   UNK N   1      31.349  17.166   5.717  0.00  0.00     0.047 A 
HETATM   12  C   UNK N   1      32.507  17.329   4.956  0.00  0.00     0.027 A 
HETATM   13  I   UNK N   1      29.405  16.876   4.974  0.00  0.00    -0.036 I 
HETATM   14  C   UNK N   1      33.669  17.542   5.748  0.00  0.00     0.025 A 
ENDBRANCH   7   9
ENDBRANCH   1   7
BRANCH   4  15
HETATM   15  C   UNK N   1      36.411  13.728  11.834  0.00  0.00     0.112 C 
HETATM   16  C   UNK N   1      35.934  12.347  11.410  0.00  0.00     0.026 C 
BRANCH  15  17
HETATM   17  C   UNK N   1      36.057  13.931  13.289  0.00  0.00     0.148 C 
HETATM   18  O   UNK N   1      34.963  13.584  13.705  0.00  0.00    -0.649 OA
BRANCH  17  19
HETATM   19  O   UNK N   1      36.941  14.497  14.135  0.00  0.00    -0.776 OA
HETATM   20  H   UNK N   1      37.736  14.977  14.012  0.00  0.00     0.167 HD
ENDBRANCH  17  19
ENDBRANCH  15  17
ENDBRANCH   4  15
TORSDOF 5
ENDMDL
MODEL 5
REMARK VINA RESULT:      -6.3      4.201      7.241
REMARK  5 active torsions:
REMARK  status: ('A' for Active; 'I' for Inactive)
REMARK    1  A    between atoms: C_2  and  C_7 
REMARK    2  A    between atoms: C_7  and  C_9 
REMARK    3  A    between atoms: C_12  and  C_15 
REMARK    4  A    between atoms: C_15  and  C_17 
REMARK    5  A    between atoms: C_17  and  O_19 
ROOT
HETATM    1  C   UNK N   1      30.335  17.208   6.083  0.00  0.00     0.015 A 
HETATM    2  C   UNK N   1      29.843  17.594   4.826  0.00  0.00     0.016 A 
HETATM    3  C   UNK N   1      28.693  18.387   4.729  0.00  0.00     0.009 A 
HETATM    4  C   UNK N   1      28.008  18.791   5.887  0.00  0.00    -0.044 A 
HETATM    5  C   UNK N   1      28.477  18.365   7.136  0.00  0.00     0.009 A 
HETATM    6  C   UNK N   1      29.631  17.593   7.231  0.00  0.00     0.016 A 
ENDROOT
BRANCH   1   7
HETATM    7  C   UNK N   1      31.616  16.459   6.189  0.00  0.00     0.199 C 
HETATM    8  O   UNK N   1      31.883  15.612   5.347  0.00  0.00    -0.286 OA
BRANCH   7   9
HETATM    9  C   UNK N   1      32.624  16.768   7.237  0.00  0.00     0.057 A 
HETATM   10  S   UNK N   1      33.052  15.777   8.495  0.00  0.00    -0.080 SA
HETATM   11  C   UNK N   1      34.265  16.692   9.155  0.00  0.00     0.047 A 
HETATM   12  C   UNK N   1      34.382  17.849   8.383  0.00  0.00     0.027 A 
HETATM   13  I   UNK N   1      35.446  16.184  10.817  0.00  0.00    -0.036 I 
HETATM   14  C   UNK N   1      33.461  17.891   7.301  0.00  0.00     0.025 A 
ENDBRANCH   7   9
ENDBRANCH   1   7
BRANCH   4  15
HETATM   15  C   UNK N   1      26.797  19.693   5.770  0.00  0.00     0.112 C 
HETATM   16  C   UNK N   1      26.701  20.232   4.350  0.00  0.00     0.026 C 
BRANCH  15  17
HETATM   17  C   UNK N   1      26.823  20.864   6.725  0.00  0.00     0.148 C 
HETATM   18  O   UNK N   1      27.463  21.866   6.447  0.00  0.00    -0.649 OA
BRANCH  17  19
HETATM   19  O   UNK N   1      26.143  20.813   7.889  0.00  0.00    -0.776 OA
HETATM   20  H   UNK N   1      26.297  20.383   8.707  0.00  0.00     0.167 HD
ENDBRANCH  17  19
ENDBRANCH  15  17
ENDBRANCH   4  15
TORSDOF 5
ENDMDL
MODEL 6
REMARK VINA RESULT:      -6.3      4.713      7.726
REMARK  5 active torsions:
REMARK  status: ('A' for Active; 'I' for Inactive)
REMARK    1  A    between atoms: C_2  and  C_7 
REMARK    2  A    between atoms: C_7  and  C_9 
REMARK    3  A    between atoms: C_12  and  C_15 
REMARK    4  A    between atoms: C_15  and  C_17 
REMARK    5  A    between atoms: C_17  and  O_19 
ROOT
HETATM    1  C   UNK N   1      33.265  17.690   7.453  0.00  0.00     0.015 A 
HETATM    2  C   UNK N   1      31.977  17.550   7.992  0.00  0.00     0.016 A 
HETATM    3  C   UNK N   1      30.891  17.250   7.159  0.00  0.00     0.009 A 
HETATM    4  C   UNK N   1      31.075  17.104   5.774  0.00  0.00    -0.044 A 
HETATM    5  C   UNK N   1      32.356  17.290   5.237  0.00  0.00     0.009 A 
HETATM    6  C   UNK N   1      33.437  17.568   6.069  0.00  0.00     0.016 A 
ENDROOT
BRANCH   1   7
HETATM    7  C   UNK N   1      34.434  17.899   8.350  0.00  0.00     0.199 C 
HETATM    8  O   UNK N   1      34.981  18.995   8.372  0.00  0.00    -0.286 OA
BRANCH   7   9
HETATM    9  C   UNK N   1      34.906  16.847   9.288  0.00  0.00     0.057 A 
HETATM   10  S   UNK N   1      35.119  15.245   8.922  0.00  0.00    -0.080 SA
HETATM   11  C   UNK N   1      35.752  14.723  10.361  0.00  0.00     0.047 A 
HETATM   12  C   UNK N   1      35.820  15.828  11.211  0.00  0.00     0.027 A 
HETATM   13  I   UNK N   1      36.381  12.770  10.811  0.00  0.00    -0.036 I 
HETATM   14  C   UNK N   1      35.348  17.025  10.607  0.00  0.00     0.025 A 
ENDBRANCH   7   9
ENDBRANCH   1   7
BRANCH   4  15
HETATM   15  C   UNK N   1      29.903  16.726   4.893  0.00  0.00     0.112 C 
HETATM   16  C   UNK N   1      30.386  16.534   3.463  0.00  0.00     0.026 C 
BRANCH  15  17
HETATM   17  C   UNK N   1      28.796  17.754   4.889  0.00  0.00     0.148 C 
HETATM   18  O   UNK N   1      27.706  17.479   5.366  0.00  0.00    -0.649 OA
BRANCH  17  19
HETATM   19  O   UNK N   1      29.000  18.978   4.362  0.00  0.00    -0.776 OA
HETATM   20  H   UNK N   1      28.683  19.834   4.575  0.00  0.00     0.167 HD
ENDBRANCH  17  19
ENDBRANCH  15  17
ENDBRANCH   4  15
TORSDOF 5
ENDMDL
MODEL 7
REMARK VINA RESULT:      -6.2      4.549      7.765
REMARK  5 active torsions:
REMARK  status: ('A' for Active; 'I' for Inactive)
REMARK    1  A    between atoms: C_2  and  C_7 
REMARK    2  A    between atoms: C_7  and  C_9 
REMARK    3  A    between atoms: C_12  and  C_15 
REMARK    4  A    between atoms: C_15  and  C_17 
REMARK    5  A    between atoms: C_17  and  O_19 
ROOT
HETATM    1  C   UNK N   1      32.435  17.340   7.513  0.00  0.00     0.015 A 
HETATM    2  C   UNK N   1      31.789  16.928   6.338  0.00  0.00     0.016 A 
HETATM    3  C   UNK N   1      30.400  17.056   6.213  0.00  0.00     0.009 A 
HETATM    4  C   UNK N   1      29.636  17.580   7.268  0.00  0.00    -0.044 A 
HETATM    5  C   UNK N   1      30.282  17.947   8.457  0.00  0.00     0.009 A 
HETATM    6  C   UNK N   1      31.664  17.837   8.571  0.00  0.00     0.016 A 
ENDROOT
BRANCH   1   7
HETATM    7  C   UNK N   1      33.921  17.306   7.604  0.00  0.00     0.199 C 
HETATM    8  O   UNK N   1      34.582  17.967   6.814  0.00  0.00    -0.286 OA
BRANCH   7   9
HETATM    9  C   UNK N   1      34.627  16.563   8.680  0.00  0.00     0.057 A 
HETATM   10  S   UNK N   1      35.217  15.018   8.568  0.00  0.00    -0.080 SA
HETATM   11  C   UNK N   1      35.952  14.904  10.048  0.00  0.00     0.047 A 
HETATM   12  C   UNK N   1      35.753  16.118  10.707  0.00  0.00     0.027 A 
HETATM   13  I   UNK N   1      37.028  13.255  10.782  0.00  0.00    -0.036 I 
HETATM   14  C   UNK N   1      35.010  17.054   9.936  0.00  0.00     0.025 A 
ENDBRANCH   7   9
ENDBRANCH   1   7
BRANCH   4  15
HETATM   15  C   UNK N   1      28.142  17.763   7.100  0.00  0.00     0.112 C 
HETATM   16  C   UNK N   1      27.691  17.089   5.812  0.00  0.00     0.026 C 
BRANCH  15  17
HETATM   17  C   UNK N   1      27.712  19.211   7.058  0.00  0.00     0.148 C 
HETATM   18  O   UNK N   1      27.922  19.882   6.059  0.00  0.00    -0.649 OA
BRANCH  17  19
HETATM   19  O   UNK N   1      27.098  19.774   8.118  0.00  0.00    -0.776 OA
HETATM   20  H   UNK N   1      27.409  20.182   8.903  0.00  0.00     0.167 HD
ENDBRANCH  17  19
ENDBRANCH  15  17
ENDBRANCH   4  15
TORSDOF 5
ENDMDL
MODEL 8
REMARK VINA RESULT:      -6.1      4.401      6.339
REMARK  5 active torsions:
REMARK  status: ('A' for Active; 'I' for Inactive)
REMARK    1  A    between atoms: C_2  and  C_7 
REMARK    2  A    between atoms: C_7  and  C_9 
REMARK    3  A    between atoms: C_12  and  C_15 
REMARK    4  A    between atoms: C_15  and  C_17 
REMARK    5  A    between atoms: C_17  and  O_19 
ROOT
HETATM    1  C   UNK N   1      34.719  16.515   9.659  0.00  0.00     0.015 A 
HETATM    2  C   UNK N   1      35.402  16.797  10.853  0.00  0.00     0.016 A 
HETATM    3  C   UNK N   1      35.756  15.760  11.725  0.00  0.00     0.009 A 
HETATM    4  C   UNK N   1      35.417  14.430  11.426  0.00  0.00    -0.044 A 
HETATM    5  C   UNK N   1      34.694  14.162  10.256  0.00  0.00     0.009 A 
HETATM    6  C   UNK N   1      34.361  15.191   9.381  0.00  0.00     0.016 A 
ENDROOT
BRANCH   1   7
HETATM    7  C   UNK N   1      34.439  17.602   8.681  0.00  0.00     0.199 C 
HETATM    8  O   UNK N   1      35.113  18.624   8.717  0.00  0.00    -0.286 OA
BRANCH   7   9
HETATM    9  C   UNK N   1      33.427  17.451   7.604  0.00  0.00     0.057 A 
HETATM   10  S   UNK N   1      33.748  17.179   6.001  0.00  0.00    -0.080 SA
HETATM   11  C   UNK N   1      32.197  17.008   5.443  0.00  0.00     0.047 A 
HETATM   12  C   UNK N   1      31.342  17.165   6.534  0.00  0.00     0.027 A 
HETATM   13  I   UNK N   1      31.624  16.585   3.466  0.00  0.00    -0.036 I 
HETATM   14  C   UNK N   1      32.033  17.411   7.752  0.00  0.00     0.025 A 
ENDBRANCH   7   9
ENDBRANCH   1   7
BRANCH   4  15
HETATM   15  C   UNK N   1      35.853  13.314  12.352  0.00  0.00     0.112 C 
HETATM   16  C   UNK N   1      36.155  13.886  13.729  0.00  0.00     0.026 C 
BRANCH  15  17
HETATM   17  C   UNK N   1      37.074  12.569  11.865  0.00  0.00     0.148 C 
HETATM   18  O   UNK N   1      37.091  11.348  11.878  0.00  0.00    -0.649 OA
BRANCH  17  19
HETATM   19  O   UNK N   1      38.151  13.243  11.414  0.00  0.00    -0.776 OA
HETATM   20  H   UNK N   1      38.288  13.841  10.706  0.00  0.00     0.167 HD
ENDBRANCH  17  19
ENDBRANCH  15  17
ENDBRANCH   4  15
TORSDOF 5
ENDMDL
MODEL 9
REMARK VINA RESULT:      -5.9     12.995     15.134
REMARK  5 active torsions:
REMARK  status: ('A' for Active; 'I' for Inactive)
REMARK    1  A    between atoms: C_2  and  C_7 
REMARK    2  A    between atoms: C_7  and  C_9 
REMARK    3  A    between atoms: C_12  and  C_15 
REMARK    4  A    between atoms: C_15  and  C_17 
REMARK    5  A    between atoms: C_17  and  O_19 
ROOT
HETATM    1  C   UNK N   1      35.355  11.078  17.765  0.00  0.00     0.015 A 
HETATM    2  C   UNK N   1      36.076  10.626  16.650  0.00  0.00     0.016 A 
HETATM    3  C   UNK N   1      36.568  11.540  15.709  0.00  0.00     0.009 A 
HETATM    4  C   UNK N   1      36.330  12.916  15.861  0.00  0.00    -0.044 A 
HETATM    5  C   UNK N   1      35.570  13.356  16.952  0.00  0.00     0.009 A 
HETATM    6  C   UNK N   1      35.100  12.448  17.896  0.00  0.00     0.016 A 
ENDROOT
BRANCH   1   7
HETATM    7  C   UNK N   1      34.928  10.119  18.820  0.00  0.00     0.199 C 
HETATM    8  O   UNK N   1      34.023   9.330  18.578  0.00  0.00    -0.286 OA
BRANCH   7   9
HETATM    9  C   UNK N   1      35.624  10.027  20.130  0.00  0.00     0.057 A 
HETATM   10  S   UNK N   1      34.981   9.418  21.531  0.00  0.00    -0.080 SA
HETATM   11  C   UNK N   1      36.316   9.522  22.506  0.00  0.00     0.047 A 
HETATM   12  C   UNK N   1      37.351  10.059  21.739  0.00  0.00     0.027 A 
HETATM   13  I   UNK N   1      36.445   8.914  24.513  0.00  0.00    -0.036 I 
HETATM   14  C   UNK N   1      36.964  10.340  20.400  0.00  0.00     0.025 A 
ENDBRANCH   7   9
ENDBRANCH   1   7
BRANCH   4  15
HETATM   15  C   UNK N   1      36.914  13.897  14.865  0.00  0.00     0.112 C 
HETATM   16  C   UNK N   1      37.219  15.211  15.569  0.00  0.00     0.026 C 
BRANCH  15  17
HETATM   17  C   UNK N   1      36.002  14.182  13.694  0.00  0.00     0.148 C 
HETATM   18  O   UNK N   1      34.931  13.604  13.599  0.00  0.00    -0.649 OA
BRANCH  17  19
HETATM   19  O   UNK N   1      36.363  15.072  12.748  0.00  0.00    -0.776 OA
HETATM   20  H   UNK N   1      35.887  15.693  12.232  0.00  0.00     0.167 HD
ENDBRANCH  17  19
ENDBRANCH  15  17
ENDBRANCH   4  15
TORSDOF 5
ENDMDL
