MODEL 1
REMARK VINA RESULT:      -6.8      0.000      0.000
REMARK  5 active torsions:
REMARK  status: ('A' for Active; 'I' for Inactive)
REMARK    1  A    between atoms: C_1  and  N_2 
REMARK    2  A    between atoms: C_1  and  C_3 
REMARK    3  A    between atoms: C_5  and  C_16 
REMARK       I    between atoms: C_9  and  N_10 
REMARK    4  A    between atoms: C_16  and  S_17 
REMARK    5  A    between atoms: S_17  and  C_18 
ROOT
HETATM    1  C   UNK N   1      21.004  19.259   3.395  0.00  0.00    -0.039 A 
HETATM    2  C   UNK N   1      21.046  18.323   4.426  0.00  0.00     0.019 A 
HETATM    3  C   UNK N   1      22.255  17.994   5.044  0.00  0.00    -0.020 A 
HETATM    4  C   UNK N   1      23.447  18.608   4.627  0.00  0.00     0.072 A 
HETATM    5  N   UNK N   1      24.635  18.290   5.212  0.00  0.00    -0.190 N 
ATOM      6  HN  UNK N   1      24.655  17.605   5.968  1.00  0.00     0.184 HD
HETATM    7  C   UNK N   1      25.795  18.871   4.806  0.00  0.00     0.679 A 
HETATM    8  N   UNK N   1      27.010  18.519   5.425  0.00  0.00    -0.234 N 
HETATM    9  N   UNK N   1      25.787  19.787   3.803  0.00  0.00    -0.156 N 
HETATM   10  C   UNK N   1      24.619  20.142   3.180  0.00  0.00     0.272 A 
HETATM   11  O   UNK N   1      24.640  20.965   2.281  0.00  0.00    -0.267 OA
HETATM   12  C   UNK N   1      23.414  19.553   3.582  0.00  0.00     0.061 A 
HETATM   13  C   UNK N   1      22.192  19.876   2.972  0.00  0.00     0.028 A 
HETATM   14  H   UNK N   1      27.831  19.023   5.221  0.00  0.00     0.174 HD
HETATM   15  H   UNK N   1      27.039  17.769   6.062  0.00  0.00     0.174 HD
HETATM   16  H   UNK N   1      26.633  20.201   3.518  0.00  0.00     0.187 HD
ENDROOT
BRANCH   3  17
HETATM   17  C   UNK N   1      22.249  16.988   6.135  0.00  0.00     0.120 C 
BRANCH  17  18
HETATM   18  S   UNK N   1      20.540  16.671   6.665  0.00  0.00    -0.125 SA
BRANCH  18  19
HETATM   19  C   UNK N   1      21.106  15.366   7.734  0.00  0.00     0.000 A 
HETATM   20  C   UNK N   1      20.410  15.092   8.914  0.00  0.00     0.018 A 
HETATM   21  C   UNK N   1      20.876  14.103   9.783  0.00  0.00     0.001 A 
HETATM   22  C   UNK N   1      22.042  13.395   9.476  0.00  0.00     0.000 A 
HETATM   23  C   UNK N   1      22.739  13.670   8.295  0.00  0.00     0.001 A 
HETATM   24  C   UNK N   1      22.271  14.656   7.423  0.00  0.00     0.018 A 
ENDBRANCH  18  19
ENDBRANCH  17  18
ENDBRANCH   3  17
BRANCH   1  25
HETATM   25  C   UNK N   1      19.677  19.565   2.769  0.00  0.00     0.150 C 
BRANCH  25  26
HETATM   26  N   UNK N   1      18.951  18.359   2.405  0.00  0.00    -0.426 N 
HETATM   27  H   UNK N   1      19.428  17.584   1.946  0.00  0.00     0.150 HD
HETATM   28  H   UNK N   1      17.955  18.289   2.610  0.00  0.00     0.150 HD
ENDBRANCH  25  26
ENDBRANCH   1  25
TORSDOF 5
ENDMDL
MODEL 2
REMARK VINA RESULT:      -6.7      3.155      6.275
REMARK  5 active torsions:
REMARK  status: ('A' for Active; 'I' for Inactive)
REMARK    1  A    between atoms: C_1  and  N_2 
REMARK    2  A    between atoms: C_1  and  C_3 
REMARK    3  A    between atoms: C_5  and  C_16 
REMARK       I    between atoms: C_9  and  N_10 
REMARK    4  A    between atoms: C_16  and  S_17 
REMARK    5  A    between atoms: S_17  and  C_18 
ROOT
HETATM    1  C   UNK N   1      22.616  17.274   5.159  0.00  0.00    -0.039 A 
HETATM    2  C   UNK N   1      23.596  18.208   4.829  0.00  0.00     0.019 A 
HETATM    3  C   UNK N   1      23.338  19.213   3.894  0.00  0.00    -0.020 A 
HETATM    4  C   UNK N   1      22.081  19.291   3.274  0.00  0.00     0.072 A 
HETATM    5  N   UNK N   1      21.817  20.259   2.353  0.00  0.00    -0.190 N 
ATOM      6  HN  UNK N   1      22.541  20.939   2.120  1.00  0.00     0.184 HD
HETATM    7  C   UNK N   1      20.607  20.334   1.739  0.00  0.00     0.679 A 
HETATM    8  N   UNK N   1      20.365  21.342   0.786  0.00  0.00    -0.234 N 
HETATM    9  N   UNK N   1      19.632  19.437   2.040  0.00  0.00    -0.156 N 
HETATM   10  C   UNK N   1      19.844  18.443   2.959  0.00  0.00     0.272 A 
HETATM   11  O   UNK N   1      18.952  17.651   3.208  0.00  0.00    -0.267 OA
HETATM   12  C   UNK N   1      21.085  18.348   3.600  0.00  0.00     0.061 A 
HETATM   13  C   UNK N   1      21.357  17.344   4.543  0.00  0.00     0.028 A 
HETATM   14  H   UNK N   1      19.457  21.476   0.431  0.00  0.00     0.174 HD
HETATM   15  H   UNK N   1      21.104  21.912   0.475  0.00  0.00     0.174 HD
HETATM   16  H   UNK N   1      18.759  19.502   1.589  0.00  0.00     0.187 HD
ENDROOT
BRANCH   3  17
HETATM   17  C   UNK N   1      24.416  20.182   3.573  0.00  0.00     0.120 C 
BRANCH  17  18
HETATM   18  S   UNK N   1      25.910  19.286   3.060  0.00  0.00    -0.125 SA
BRANCH  18  19
HETATM   19  C   UNK N   1      26.644  19.583   4.654  0.00  0.00     0.000 A 
HETATM   20  C   UNK N   1      27.321  18.548   5.304  0.00  0.00     0.018 A 
HETATM   21  C   UNK N   1      27.857  18.758   6.576  0.00  0.00     0.001 A 
HETATM   22  C   UNK N   1      27.706  19.999   7.203  0.00  0.00     0.000 A 
HETATM   23  C   UNK N   1      27.026  21.035   6.552  0.00  0.00     0.001 A 
HETATM   24  C   UNK N   1      26.495  20.827   5.277  0.00  0.00     0.018 A 
ENDBRANCH  18  19
ENDBRANCH  17  18
ENDBRANCH   3  17
BRANCH   1  25
HETATM   25  C   UNK N   1      22.955  16.217   6.166  0.00  0.00     0.150 C 
BRANCH  25  26
HETATM   26  N   UNK N   1      24.390  16.014   6.287  0.00  0.00    -0.426 N 
HETATM   27  H   UNK N   1      24.782  15.073   6.290  0.00  0.00     0.150 HD
HETATM   28  H   UNK N   1      25.008  16.820   6.370  0.00  0.00     0.150 HD
ENDBRANCH  25  26
ENDBRANCH   1  25
TORSDOF 5
ENDMDL
MODEL 3
REMARK VINA RESULT:      -6.7      1.452      4.087
REMARK  5 active torsions:
REMARK  status: ('A' for Active; 'I' for Inactive)
REMARK    1  A    between atoms: C_1  and  N_2 
REMARK    2  A    between atoms: C_1  and  C_3 
REMARK    3  A    between atoms: C_5  and  C_16 
REMARK       I    between atoms: C_9  and  N_10 
REMARK    4  A    between atoms: C_16  and  S_17 
REMARK    5  A    between atoms: S_17  and  C_18 
ROOT
HETATM    1  C   UNK N   1      24.704  18.685   4.551  0.00  0.00    -0.039 A 
HETATM    2  C   UNK N   1      24.119  17.457   4.855  0.00  0.00     0.019 A 
HETATM    3  C   UNK N   1      22.801  17.183   4.484  0.00  0.00    -0.020 A 
HETATM    4  C   UNK N   1      22.048  18.149   3.799  0.00  0.00     0.072 A 
HETATM    5  N   UNK N   1      20.758  17.901   3.440  0.00  0.00    -0.190 N 
ATOM      6  HN  UNK N   1      20.339  16.998   3.665  1.00  0.00     0.184 HD
HETATM    7  C   UNK N   1      20.018  18.836   2.787  0.00  0.00     0.679 A 
HETATM    8  N   UNK N   1      18.684  18.554   2.434  0.00  0.00    -0.234 N 
HETATM    9  N   UNK N   1      20.560  20.043   2.478  0.00  0.00    -0.156 N 
HETATM   10  C   UNK N   1      21.853  20.344   2.816  0.00  0.00     0.272 A 
HETATM   11  O   UNK N   1      22.313  21.436   2.528  0.00  0.00    -0.267 OA
HETATM   12  C   UNK N   1      22.630  19.395   3.491  0.00  0.00     0.061 A 
HETATM   13  C   UNK N   1      23.957  19.657   3.867  0.00  0.00     0.028 A 
HETATM   14  H   UNK N   1      18.186  19.176   1.856  0.00  0.00     0.174 HD
HETATM   15  H   UNK N   1      18.250  17.734   2.764  0.00  0.00     0.174 HD
HETATM   16  H   UNK N   1      20.014  20.712   2.004  0.00  0.00     0.187 HD
ENDROOT
BRANCH   3  17
HETATM   17  C   UNK N   1      22.221  15.862   4.834  0.00  0.00     0.120 C 
BRANCH  17  18
HETATM   18  S   UNK N   1      23.481  14.838   5.648  0.00  0.00    -0.125 SA
BRANCH  18  19
HETATM   19  C   UNK N   1      22.504  14.805   7.135  0.00  0.00     0.000 A 
HETATM   20  C   UNK N   1      22.674  13.761   8.048  0.00  0.00     0.018 A 
HETATM   21  C   UNK N   1      21.876  13.700   9.192  0.00  0.00     0.001 A 
HETATM   22  C   UNK N   1      20.902  14.677   9.419  0.00  0.00     0.000 A 
HETATM   23  C   UNK N   1      20.732  15.722   8.504  0.00  0.00     0.001 A 
HETATM   24  C   UNK N   1      21.533  15.786   7.361  0.00  0.00     0.018 A 
ENDBRANCH  18  19
ENDBRANCH  17  18
ENDBRANCH   3  17
BRANCH   1  25
HETATM   25  C   UNK N   1      26.121  18.921   4.979  0.00  0.00     0.150 C 
BRANCH  25  26
HETATM   26  N   UNK N   1      26.203  19.753   6.170  0.00  0.00    -0.426 N 
HETATM   27  H   UNK N   1      26.399  19.338   7.080  0.00  0.00     0.150 HD
HETATM   28  H   UNK N   1      26.062  20.760   6.093  0.00  0.00     0.150 HD
ENDBRANCH  25  26
ENDBRANCH   1  25
TORSDOF 5
ENDMDL
MODEL 4
REMARK VINA RESULT:      -6.6      8.238     10.537
REMARK  5 active torsions:
REMARK  status: ('A' for Active; 'I' for Inactive)
REMARK    1  A    between atoms: C_1  and  N_2 
REMARK    2  A    between atoms: C_1  and  C_3 
REMARK    3  A    between atoms: C_5  and  C_16 
REMARK       I    between atoms: C_9  and  N_10 
REMARK    4  A    between atoms: C_16  and  S_17 
REMARK    5  A    between atoms: S_17  and  C_18 
ROOT
HETATM    1  C   UNK N   1      29.720  17.402   8.242  0.00  0.00    -0.039 A 
HETATM    2  C   UNK N   1      31.025  16.963   8.457  0.00  0.00     0.019 A 
HETATM    3  C   UNK N   1      31.874  16.690   7.382  0.00  0.00    -0.020 A 
HETATM    4  C   UNK N   1      31.416  16.856   6.066  0.00  0.00     0.072 A 
HETATM    5  N   UNK N   1      32.228  16.584   5.006  0.00  0.00    -0.190 N 
ATOM      6  HN  UNK N   1      33.182  16.265   5.175  1.00  0.00     0.184 HD
HETATM    7  C   UNK N   1      31.788  16.730   3.729  0.00  0.00     0.679 A 
HETATM    8  N   UNK N   1      32.648  16.435   2.653  0.00  0.00    -0.234 N 
HETATM    9  N   UNK N   1      30.521  17.155   3.486  0.00  0.00    -0.156 N 
HETATM   10  C   UNK N   1      29.663  17.442   4.515  0.00  0.00     0.272 A 
HETATM   11  O   UNK N   1      28.530  17.821   4.269  0.00  0.00    -0.267 OA
HETATM   12  C   UNK N   1      30.097  17.296   5.838  0.00  0.00     0.061 A 
HETATM   13  C   UNK N   1      29.254  17.569   6.928  0.00  0.00     0.028 A 
HETATM   14  H   UNK N   1      32.378  16.655   1.732  0.00  0.00     0.174 HD
HETATM   15  H   UNK N   1      33.519  16.010   2.821  0.00  0.00     0.174 HD
HETATM   16  H   UNK N   1      30.214  17.258   2.556  0.00  0.00     0.187 HD
ENDROOT
BRANCH   3  17
HETATM   17  C   UNK N   1      33.254  16.221   7.663  0.00  0.00     0.120 C 
BRANCH  17  18
HETATM   18  S   UNK N   1      34.150  17.488   8.607  0.00  0.00    -0.125 SA
BRANCH  18  19
HETATM   19  C   UNK N   1      34.637  16.264   9.803  0.00  0.00     0.000 A 
HETATM   20  C   UNK N   1      34.114  14.972   9.717  0.00  0.00     0.018 A 
HETATM   21  C   UNK N   1      34.452  14.019  10.681  0.00  0.00     0.001 A 
HETATM   22  C   UNK N   1      35.304  14.361  11.735  0.00  0.00     0.000 A 
HETATM   23  C   UNK N   1      35.827  15.656  11.821  0.00  0.00     0.001 A 
HETATM   24  C   UNK N   1      35.494  16.609  10.854  0.00  0.00     0.018 A 
ENDBRANCH  18  19
ENDBRANCH  17  18
ENDBRANCH   3  17
BRANCH   1  25
HETATM   25  C   UNK N   1      28.857  17.674   9.436  0.00  0.00     0.150 C 
BRANCH  25  26
HETATM   26  N   UNK N   1      27.688  18.470   9.099  0.00  0.00    -0.426 N 
HETATM   27  H   UNK N   1      26.788  18.023   8.925  0.00  0.00     0.150 HD
HETATM   28  H   UNK N   1      27.770  19.484   9.034  0.00  0.00     0.150 HD
ENDBRANCH  25  26
ENDBRANCH   1  25
TORSDOF 5
ENDMDL
MODEL 5
REMARK VINA RESULT:      -6.6      5.746      8.723
REMARK  5 active torsions:
REMARK  status: ('A' for Active; 'I' for Inactive)
REMARK    1  A    between atoms: C_1  and  N_2 
REMARK    2  A    between atoms: C_1  and  C_3 
REMARK    3  A    between atoms: C_5  and  C_16 
REMARK       I    between atoms: C_9  and  N_10 
REMARK    4  A    between atoms: C_16  and  S_17 
REMARK    5  A    between atoms: S_17  and  C_18 
ROOT
HETATM    1  C   UNK N   1      29.814  17.777   7.985  0.00  0.00    -0.039 A 
HETATM    2  C   UNK N   1      28.965  17.728   6.882  0.00  0.00     0.019 A 
HETATM    3  C   UNK N   1      29.462  17.427   5.611  0.00  0.00    -0.020 A 
HETATM    4  C   UNK N   1      30.831  17.172   5.434  0.00  0.00     0.072 A 
HETATM    5  N   UNK N   1      31.332  16.888   4.200  0.00  0.00    -0.190 N 
ATOM      6  HN  UNK N   1      30.702  16.852   3.399  1.00  0.00     0.184 HD
HETATM    7  C   UNK N   1      32.658  16.651   4.018  0.00  0.00     0.679 A 
HETATM    8  N   UNK N   1      33.150  16.366   2.730  0.00  0.00    -0.234 N 
HETATM    9  N   UNK N   1      33.511  16.692   5.075  0.00  0.00    -0.156 N 
HETATM   10  C   UNK N   1      33.059  16.973   6.337  0.00  0.00     0.272 A 
HETATM   11  O   UNK N   1      33.847  17.006   7.267  0.00  0.00    -0.267 OA
HETATM   12  C   UNK N   1      31.697  17.223   6.544  0.00  0.00     0.061 A 
HETATM   13  C   UNK N   1      31.185  17.523   7.816  0.00  0.00     0.028 A 
HETATM   14  H   UNK N   1      34.083  16.074   2.612  0.00  0.00     0.174 HD
HETATM   15  H   UNK N   1      32.561  16.458   1.947  0.00  0.00     0.174 HD
HETATM   16  H   UNK N   1      34.470  16.518   4.931  0.00  0.00     0.187 HD
ENDROOT
BRANCH   3  17
HETATM   17  C   UNK N   1      28.518  17.391   4.466  0.00  0.00     0.120 C 
BRANCH  17  18
HETATM   18  S   UNK N   1      26.881  16.851   5.039  0.00  0.00    -0.125 SA
BRANCH  18  19
HETATM   19  C   UNK N   1      26.144  18.305   4.326  0.00  0.00     0.000 A 
HETATM   20  C   UNK N   1      24.757  18.368   4.170  0.00  0.00     0.018 A 
HETATM   21  C   UNK N   1      24.174  19.484   3.565  0.00  0.00     0.001 A 
HETATM   22  C   UNK N   1      24.979  20.532   3.108  0.00  0.00     0.000 A 
HETATM   23  C   UNK N   1      26.368  20.468   3.264  0.00  0.00     0.001 A 
HETATM   24  C   UNK N   1      26.951  19.354   3.873  0.00  0.00     0.018 A 
ENDBRANCH  18  19
ENDBRANCH  17  18
ENDBRANCH   3  17
BRANCH   1  25
HETATM   25  C   UNK N   1      29.222  18.109   9.321  0.00  0.00     0.150 C 
BRANCH  25  26
HETATM   26  N   UNK N   1      27.781  18.293   9.252  0.00  0.00    -0.426 N 
HETATM   27  H   UNK N   1      27.367  19.212   9.407  0.00  0.00     0.150 HD
HETATM   28  H   UNK N   1      27.179  17.496   9.047  0.00  0.00     0.150 HD
ENDBRANCH  25  26
ENDBRANCH   1  25
TORSDOF 5
ENDMDL
MODEL 6
REMARK VINA RESULT:      -6.6     16.487     18.425
REMARK  5 active torsions:
REMARK  status: ('A' for Active; 'I' for Inactive)
REMARK    1  A    between atoms: C_1  and  N_2 
REMARK    2  A    between atoms: C_1  and  C_3 
REMARK    3  A    between atoms: C_5  and  C_16 
REMARK       I    between atoms: C_9  and  N_10 
REMARK    4  A    between atoms: C_16  and  S_17 
REMARK    5  A    between atoms: S_17  and  C_18 
ROOT
HETATM    1  C   UNK N   1      35.153  13.179  17.466  0.00  0.00    -0.039 A 
HETATM    2  C   UNK N   1      35.230  11.896  18.005  0.00  0.00     0.019 A 
HETATM    3  C   UNK N   1      35.191  10.771  17.178  0.00  0.00    -0.020 A 
HETATM    4  C   UNK N   1      35.071  10.924  15.788  0.00  0.00     0.072 A 
HETATM    5  N   UNK N   1      35.020   9.837  14.969  0.00  0.00    -0.190 N 
ATOM      6  HN  UNK N   1      35.079   8.901  15.373  1.00  0.00     0.184 HD
HETATM    7  C   UNK N   1      34.892   9.976  13.624  0.00  0.00     0.679 A 
HETATM    8  N   UNK N   1      34.836   8.833  12.802  0.00  0.00    -0.234 N 
HETATM    9  N   UNK N   1      34.814  11.213  13.069  0.00  0.00    -0.156 N 
HETATM   10  C   UNK N   1      34.860  12.341  13.847  0.00  0.00     0.272 A 
HETATM   11  O   UNK N   1      34.786  13.439  13.322  0.00  0.00    -0.267 OA
HETATM   12  C   UNK N   1      34.989  12.217  15.235  0.00  0.00     0.061 A 
HETATM   13  C   UNK N   1      35.032  13.340  16.077  0.00  0.00     0.028 A 
HETATM   14  H   UNK N   1      34.868   8.929  11.823  0.00  0.00     0.174 HD
HETATM   15  H   UNK N   1      34.766   7.939  13.207  0.00  0.00     0.174 HD
HETATM   16  H   UNK N   1      34.722  11.302  12.092  0.00  0.00     0.187 HD
ENDROOT
BRANCH   3  17
HETATM   17  C   UNK N   1      35.271   9.425  17.800  0.00  0.00     0.120 C 
BRANCH  17  18
HETATM   18  S   UNK N   1      35.845   9.578  19.516  0.00  0.00    -0.125 SA
BRANCH  18  19
HETATM   19  C   UNK N   1      34.190   9.291  20.103  0.00  0.00     0.000 A 
HETATM   20  C   UNK N   1      33.345   8.438  19.389  0.00  0.00     0.018 A 
HETATM   21  C   UNK N   1      32.029   8.246  19.815  0.00  0.00     0.001 A 
HETATM   22  C   UNK N   1      31.556   8.914  20.949  0.00  0.00     0.000 A 
HETATM   23  C   UNK N   1      32.403   9.768  21.663  0.00  0.00     0.001 A 
HETATM   24  C   UNK N   1      33.721   9.957  21.241  0.00  0.00     0.018 A 
ENDBRANCH  18  19
ENDBRANCH  17  18
ENDBRANCH   3  17
BRANCH   1  25
HETATM   25  C   UNK N   1      35.197  14.346  18.405  0.00  0.00     0.150 C 
BRANCH  25  26
HETATM   26  N   UNK N   1      36.228  15.305  18.042  0.00  0.00    -0.426 N 
HETATM   27  H   UNK N   1      37.195  15.006  17.918  0.00  0.00     0.150 HD
HETATM   28  H   UNK N   1      35.981  16.285  17.910  0.00  0.00     0.150 HD
ENDBRANCH  25  26
ENDBRANCH   1  25
TORSDOF 5
ENDMDL
MODEL 7
REMARK VINA RESULT:      -6.6      6.440      9.680
REMARK  5 active torsions:
REMARK  status: ('A' for Active; 'I' for Inactive)
REMARK    1  A    between atoms: C_1  and  N_2 
REMARK    2  A    between atoms: C_1  and  C_3 
REMARK    3  A    between atoms: C_5  and  C_16 
REMARK       I    between atoms: C_9  and  N_10 
REMARK    4  A    between atoms: C_16  and  S_17 
REMARK    5  A    between atoms: S_17  and  C_18 
ROOT
HETATM    1  C   UNK N   1      32.615  17.654   7.851  0.00  0.00    -0.039 A 
HETATM    2  C   UNK N   1      32.425  16.897   6.697  0.00  0.00     0.019 A 
HETATM    3  C   UNK N   1      31.143  16.511   6.299  0.00  0.00    -0.020 A 
HETATM    4  C   UNK N   1      30.027  16.885   7.065  0.00  0.00     0.072 A 
HETATM    5  N   UNK N   1      28.772  16.508   6.697  0.00  0.00    -0.190 N 
ATOM      6  HN  UNK N   1      28.643  15.955   5.849  1.00  0.00     0.184 HD
HETATM    7  C   UNK N   1      27.688  16.855   7.439  0.00  0.00     0.679 A 
HETATM    8  N   UNK N   1      26.401  16.446   7.037  0.00  0.00    -0.234 N 
HETATM    9  N   UNK N   1      27.841  17.593   8.570  0.00  0.00    -0.156 N 
HETATM   10  C   UNK N   1      29.082  17.998   8.986  0.00  0.00     0.272 A 
HETATM   11  O   UNK N   1      29.191  18.657  10.006  0.00  0.00    -0.267 OA
HETATM   12  C   UNK N   1      30.211  17.648   8.236  0.00  0.00     0.061 A 
HETATM   13  C   UNK N   1      31.505  18.031   8.623  0.00  0.00     0.028 A 
HETATM   14  H   UNK N   1      25.606  16.796   7.500  0.00  0.00     0.174 HD
HETATM   15  H   UNK N   1      26.297  15.810   6.293  0.00  0.00     0.174 HD
HETATM   16  H   UNK N   1      27.048  17.839   9.099  0.00  0.00     0.187 HD
ENDROOT
BRANCH   3  17
HETATM   17  C   UNK N   1      30.992  15.701   5.065  0.00  0.00     0.120 C 
BRANCH  17  18
HETATM   18  S   UNK N   1      31.086  16.783   3.608  0.00  0.00    -0.125 SA
BRANCH  18  19
HETATM   19  C   UNK N   1      29.435  16.311   3.141  0.00  0.00     0.000 A 
HETATM   20  C   UNK N   1      28.354  17.100   3.543  0.00  0.00     0.018 A 
HETATM   21  C   UNK N   1      27.052  16.710   3.224  0.00  0.00     0.001 A 
HETATM   22  C   UNK N   1      26.830  15.527   2.511  0.00  0.00     0.000 A 
HETATM   23  C   UNK N   1      27.913  14.738   2.110  0.00  0.00     0.001 A 
HETATM   24  C   UNK N   1      29.217  15.130   2.425  0.00  0.00     0.018 A 
ENDBRANCH  18  19
ENDBRANCH  17  18
ENDBRANCH   3  17
BRANCH   1  25
HETATM   25  C   UNK N   1      34.016  18.033   8.227  0.00  0.00     0.150 C 
BRANCH  25  26
HETATM   26  N   UNK N   1      34.417  17.457   9.501  0.00  0.00    -0.426 N 
HETATM   27  H   UNK N   1      34.879  16.549   9.538  0.00  0.00     0.150 HD
HETATM   28  H   UNK N   1      34.233  17.966  10.365  0.00  0.00     0.150 HD
ENDBRANCH  25  26
ENDBRANCH   1  25
TORSDOF 5
ENDMDL
MODEL 8
REMARK VINA RESULT:      -6.6     13.152     13.996
REMARK  5 active torsions:
REMARK  status: ('A' for Active; 'I' for Inactive)
REMARK    1  A    between atoms: C_1  and  N_2 
REMARK    2  A    between atoms: C_1  and  C_3 
REMARK    3  A    between atoms: C_5  and  C_16 
REMARK       I    between atoms: C_9  and  N_10 
REMARK    4  A    between atoms: C_16  and  S_17 
REMARK    5  A    between atoms: S_17  and  C_18 
ROOT
HETATM    1  C   UNK N   1      26.403  23.838  -6.118  0.00  0.00    -0.039 A 
HETATM    2  C   UNK N   1      27.563  23.746  -5.351  0.00  0.00     0.019 A 
HETATM    3  C   UNK N   1      27.925  24.775  -4.479  0.00  0.00    -0.020 A 
HETATM    4  C   UNK N   1      27.120  25.920  -4.369  0.00  0.00     0.072 A 
HETATM    5  N   UNK N   1      27.465  26.936  -3.531  0.00  0.00    -0.190 N 
ATOM      6  HN  UNK N   1      28.315  26.859  -2.972  1.00  0.00     0.184 HD
HETATM    7  C   UNK N   1      26.697  28.053  -3.427  0.00  0.00     0.679 A 
HETATM    8  N   UNK N   1      27.082  29.091  -2.557  0.00  0.00    -0.234 N 
HETATM    9  N   UNK N   1      25.561  28.172  -4.163  0.00  0.00    -0.156 N 
HETATM   10  C   UNK N   1      25.167  27.179  -5.022  0.00  0.00     0.272 A 
HETATM   11  O   UNK N   1      24.144  27.312  -5.671  0.00  0.00    -0.267 OA
HETATM   12  C   UNK N   1      25.947  26.022  -5.144  0.00  0.00     0.061 A 
HETATM   13  C   UNK N   1      25.593  24.979  -6.015  0.00  0.00     0.028 A 
HETATM   14  H   UNK N   1      26.469  29.843  -2.387  0.00  0.00     0.174 HD
HETATM   15  H   UNK N   1      27.963  29.065  -2.120  0.00  0.00     0.174 HD
HETATM   16  H   UNK N   1      25.012  28.985  -4.079  0.00  0.00     0.187 HD
ENDROOT
BRANCH   3  17
HETATM   17  C   UNK N   1      29.172  24.633  -3.686  0.00  0.00     0.120 C 
BRANCH  17  18
HETATM   18  S   UNK N   1      29.040  23.188  -2.594  0.00  0.00    -0.125 SA
BRANCH  18  19
HETATM   19  C   UNK N   1      30.440  22.441  -3.400  0.00  0.00     0.000 A 
HETATM   20  C   UNK N   1      31.516  23.241  -3.792  0.00  0.00     0.018 A 
HETATM   21  C   UNK N   1      32.596  22.672  -4.469  0.00  0.00     0.001 A 
HETATM   22  C   UNK N   1      32.595  21.305  -4.764  0.00  0.00     0.000 A 
HETATM   23  C   UNK N   1      31.516  20.504  -4.372  0.00  0.00     0.001 A 
HETATM   24  C   UNK N   1      30.438  21.072  -3.690  0.00  0.00     0.018 A 
ENDBRANCH  18  19
ENDBRANCH  17  18
ENDBRANCH   3  17
BRANCH   1  25
HETATM   25  C   UNK N   1      26.070  22.703  -7.038  0.00  0.00     0.150 C 
BRANCH  25  26
HETATM   26  N   UNK N   1      24.812  22.063  -6.688  0.00  0.00    -0.426 N 
HETATM   27  H   UNK N   1      24.094  21.907  -7.394  0.00  0.00     0.150 HD
HETATM   28  H   UNK N   1      24.647  21.768  -5.726  0.00  0.00     0.150 HD
ENDBRANCH  25  26
ENDBRANCH   1  25
TORSDOF 5
ENDMDL
MODEL 9
REMARK VINA RESULT:      -6.5      4.182      7.099
REMARK  5 active torsions:
REMARK  status: ('A' for Active; 'I' for Inactive)
REMARK    1  A    between atoms: C_1  and  N_2 
REMARK    2  A    between atoms: C_1  and  C_3 
REMARK    3  A    between atoms: C_5  and  C_16 
REMARK       I    between atoms: C_9  and  N_10 
REMARK    4  A    between atoms: C_16  and  S_17 
REMARK    5  A    between atoms: S_17  and  C_18 
ROOT
HETATM    1  C   UNK N   1      19.622  16.474   8.641  0.00  0.00    -0.039 A 
HETATM    2  C   UNK N   1      20.498  16.807   7.609  0.00  0.00     0.019 A 
HETATM    3  C   UNK N   1      21.537  15.947   7.249  0.00  0.00    -0.020 A 
HETATM    4  C   UNK N   1      21.711  14.731   7.930  0.00  0.00     0.072 A 
HETATM    5  N   UNK N   1      22.726  13.886   7.598  0.00  0.00    -0.190 N 
ATOM      6  HN  UNK N   1      23.361  14.138   6.840  1.00  0.00     0.184 HD
HETATM    7  C   UNK N   1      22.909  12.713   8.259  0.00  0.00     0.679 A 
HETATM    8  N   UNK N   1      23.971  11.861   7.899  0.00  0.00    -0.234 N 
HETATM    9  N   UNK N   1      22.072  12.361   9.270  0.00  0.00    -0.156 N 
HETATM   10  C   UNK N   1      21.034  13.174   9.644  0.00  0.00     0.272 A 
HETATM   11  O   UNK N   1      20.299  12.834  10.556  0.00  0.00    -0.267 OA
HETATM   12  C   UNK N   1      20.832  14.388   8.976  0.00  0.00     0.061 A 
HETATM   13  C   UNK N   1      19.789  15.261   9.327  0.00  0.00     0.028 A 
HETATM   14  H   UNK N   1      24.033  10.960   8.289  0.00  0.00     0.174 HD
HETATM   15  H   UNK N   1      24.651  12.168   7.256  0.00  0.00     0.174 HD
HETATM   16  H   UNK N   1      22.213  11.508   9.741  0.00  0.00     0.187 HD
ENDROOT
BRANCH   3  17
HETATM   17  C   UNK N   1      22.447  16.348   6.147  0.00  0.00     0.120 C 
BRANCH  17  18
HETATM   18  S   UNK N   1      21.921  15.553   4.601  0.00  0.00    -0.125 SA
BRANCH  18  19
HETATM   19  C   UNK N   1      21.292  17.108   4.007  0.00  0.00     0.000 A 
HETATM   20  C   UNK N   1      20.037  17.154   3.394  0.00  0.00     0.018 A 
HETATM   21  C   UNK N   1      19.558  18.361   2.881  0.00  0.00     0.001 A 
HETATM   22  C   UNK N   1      20.337  19.519   2.971  0.00  0.00     0.000 A 
HETATM   23  C   UNK N   1      21.594  19.471   3.584  0.00  0.00     0.001 A 
HETATM   24  C   UNK N   1      22.072  18.266   4.102  0.00  0.00     0.018 A 
ENDBRANCH  18  19
ENDBRANCH  17  18
ENDBRANCH   3  17
BRANCH   1  25
HETATM   25  C   UNK N   1      18.529  17.441   8.983  0.00  0.00     0.150 C 
BRANCH  25  26
HETATM   26  N   UNK N   1      19.035  18.621   9.665  0.00  0.00    -0.426 N 
HETATM   27  H   UNK N   1      18.851  18.766  10.658  0.00  0.00     0.150 HD
HETATM   28  H   UNK N   1      19.576  19.311   9.146  0.00  0.00     0.150 HD
ENDBRANCH  25  26
ENDBRANCH   1  25
TORSDOF 5
ENDMDL
