MODEL 1
REMARK VINA RESULT:      -7.6      0.000      0.000
REMARK  3 active torsions:
REMARK  status: ('A' for Active; 'I' for Inactive)
REMARK    1  A    between atoms: C_3  and  C_7 
REMARK       I    between atoms: N_10  and  C_14 
REMARK    2  A    between atoms: C_11  and  C_13 
REMARK    3  A    between atoms: C_20  and  O_23 
ROOT
HETATM    1  C   UNK N   1      26.363  24.357  -5.868  0.00  0.00     0.040 A 
HETATM    2  N   UNK N   1      25.482  23.460  -6.055  0.00  0.00    -0.298 N 
ATOM      3  HN  UNK N   1      24.566  23.458  -5.607  1.00  0.00     0.187 HD
HETATM    4  N   UNK N   1      25.907  22.504  -6.925  0.00  0.00    -0.252 N 
HETATM    5  C   UNK N   1      27.238  22.802  -7.451  0.00  0.00     0.150 A 
HETATM    6  C   UNK N   1      27.614  24.085  -6.654  0.00  0.00     0.091 A 
HETATM    7  C   UNK N   1      25.062  21.507  -7.324  0.00  0.00     0.234 C 
HETATM    8  C   UNK N   1      25.422  20.535  -8.393  0.00  0.00     0.119 C 
HETATM    9  O   UNK N   1      23.952  21.419  -6.819  0.00  0.00    -0.272 OA
ENDROOT
BRANCH   5  10
HETATM   10  C   UNK N   1      28.310  21.724  -7.304  0.00  0.00    -0.030 A 
HETATM   11  C   UNK N   1      28.545  20.814  -8.343  0.00  0.00     0.009 A 
HETATM   12  C   UNK N   1      29.598  19.898  -8.274  0.00  0.00     0.003 A 
HETATM   13  C   UNK N   1      30.446  19.892  -7.167  0.00  0.00     0.036 A 
HETATM   14  C   UNK N   1      30.236  20.797  -6.126  0.00  0.00     0.066 A 
HETATM   15  C   UNK N   1      29.179  21.711  -6.194  0.00  0.00     0.045 A 
BRANCH  14  16
HETATM   16  O   UNK N   1      31.057  20.798  -5.063  0.00  0.00    -0.361 OA
HETATM   17  H   UNK N   1      31.022  20.143  -4.395  0.00  0.00     0.217 HD
ENDBRANCH  14  16
ENDBRANCH   5  10
BRANCH   1  18
HETATM   18  C   UNK N   1      26.096  25.583  -5.068  0.00  0.00     0.010 A 
HETATM   19  C   UNK N   1      25.436  26.652  -5.697  0.00  0.00     0.015 A 
HETATM   20  C   UNK N   1      25.218  27.856  -5.025  0.00  0.00     0.001 A 
HETATM   21  C   UNK N   1      25.645  28.004  -3.706  0.00  0.00     0.002 A 
HETATM   22  C   UNK N   1      26.277  26.945  -3.055  0.00  0.00     0.025 A 
HETATM   23  C   UNK N   1      26.514  25.737  -3.721  0.00  0.00     0.046 A 
HETATM   24 Cl   UNK N   1      27.280  24.448  -2.803  0.00  0.00    -0.083 Cl
ENDBRANCH   1  18
TORSDOF 3
ENDMDL
MODEL 2
REMARK VINA RESULT:      -7.3     23.621     25.758
REMARK  3 active torsions:
REMARK  status: ('A' for Active; 'I' for Inactive)
REMARK    1  A    between atoms: C_3  and  C_7 
REMARK       I    between atoms: N_10  and  C_14 
REMARK    2  A    between atoms: C_11  and  C_13 
REMARK    3  A    between atoms: C_20  and  O_23 
ROOT
HETATM    1  C   UNK N   1      36.403  13.227  13.593  0.00  0.00     0.040 A 
HETATM    2  N   UNK N   1      37.044  14.126  14.223  0.00  0.00    -0.298 N 
ATOM      3  HN  UNK N   1      37.826  14.651  13.832  1.00  0.00     0.187 HD
HETATM    4  N   UNK N   1      36.561  14.303  15.483  0.00  0.00    -0.252 N 
HETATM    5  C   UNK N   1      35.401  13.453  15.744  0.00  0.00     0.150 A 
HETATM    6  C   UNK N   1      35.314  12.622  14.431  0.00  0.00     0.091 A 
HETATM    7  C   UNK N   1      37.061  15.294  16.282  0.00  0.00     0.234 C 
HETATM    8  C   UNK N   1      36.460  15.635  17.601  0.00  0.00     0.119 C 
HETATM    9  O   UNK N   1      38.013  15.956  15.897  0.00  0.00    -0.272 OA
ENDROOT
BRANCH   5  10
HETATM   10  C   UNK N   1      35.455  12.546  16.972  0.00  0.00    -0.030 A 
HETATM   11  C   UNK N   1      36.002  11.259  16.876  0.00  0.00     0.009 A 
HETATM   12  C   UNK N   1      36.167  10.461  18.011  0.00  0.00     0.003 A 
HETATM   13  C   UNK N   1      35.800  10.948  19.266  0.00  0.00     0.036 A 
HETATM   14  C   UNK N   1      35.263  12.230  19.384  0.00  0.00     0.066 A 
HETATM   15  C   UNK N   1      35.096  13.027  18.246  0.00  0.00     0.045 A 
BRANCH  14  16
HETATM   16  O   UNK N   1      34.919  12.704  20.592  0.00  0.00    -0.361 OA
HETATM   17  H   UNK N   1      35.474  13.268  21.093  0.00  0.00     0.217 HD
ENDBRANCH  14  16
ENDBRANCH   5  10
BRANCH   1  18
HETATM   18  C   UNK N   1      36.645  12.937  12.153  0.00  0.00     0.010 A 
HETATM   19  C   UNK N   1      37.643  12.003  11.826  0.00  0.00     0.015 A 
HETATM   20  C   UNK N   1      37.968  11.738  10.494  0.00  0.00     0.001 A 
HETATM   21  C   UNK N   1      37.290  12.393   9.467  0.00  0.00     0.002 A 
HETATM   22  C   UNK N   1      36.278  13.303   9.771  0.00  0.00     0.025 A 
HETATM   23  C   UNK N   1      35.950  13.589  11.102  0.00  0.00     0.046 A 
HETATM   24 Cl   UNK N   1      34.633  14.719  11.382  0.00  0.00    -0.083 Cl
ENDBRANCH   1  18
TORSDOF 3
ENDMDL
MODEL 3
REMARK VINA RESULT:      -7.3     19.064     21.118
REMARK  3 active torsions:
REMARK  status: ('A' for Active; 'I' for Inactive)
REMARK    1  A    between atoms: C_3  and  C_7 
REMARK       I    between atoms: N_10  and  C_14 
REMARK    2  A    between atoms: C_11  and  C_13 
REMARK    3  A    between atoms: C_20  and  O_23 
ROOT
HETATM    1  C   UNK N   1      35.477  14.024  11.659  0.00  0.00     0.040 A 
HETATM    2  N   UNK N   1      36.330  13.798  10.743  0.00  0.00    -0.298 N 
ATOM      3  HN  UNK N   1      37.279  13.466  10.916  1.00  0.00     0.187 HD
HETATM    4  N   UNK N   1      35.824  14.052   9.506  0.00  0.00    -0.252 N 
HETATM    5  C   UNK N   1      34.422  14.459   9.566  0.00  0.00     0.150 A 
HETATM    6  C   UNK N   1      34.173  14.515  11.101  0.00  0.00     0.091 A 
HETATM    7  C   UNK N   1      36.562  13.778   8.388  0.00  0.00     0.234 C 
HETATM    8  C   UNK N   1      35.997  13.884   7.014  0.00  0.00     0.119 C 
HETATM    9  O   UNK N   1      37.717  13.397   8.506  0.00  0.00    -0.272 OA
ENDROOT
BRANCH   5  10
HETATM   10  C   UNK N   1      34.041  15.777   8.894  0.00  0.00    -0.030 A 
HETATM   11  C   UNK N   1      32.775  15.935   8.314  0.00  0.00     0.009 A 
HETATM   12  C   UNK N   1      32.368  17.169   7.799  0.00  0.00     0.003 A 
HETATM   13  C   UNK N   1      33.220  18.271   7.873  0.00  0.00     0.036 A 
HETATM   14  C   UNK N   1      34.480  18.137   8.456  0.00  0.00     0.066 A 
HETATM   15  C   UNK N   1      34.888  16.900   8.968  0.00  0.00     0.045 A 
BRANCH  14  16
HETATM   16  O   UNK N   1      35.297  19.199   8.537  0.00  0.00    -0.361 OA
HETATM   17  H   UNK N   1      35.495  19.745   7.802  0.00  0.00     0.217 HD
ENDBRANCH  14  16
ENDBRANCH   5  10
BRANCH   1  18
HETATM   18  C   UNK N   1      35.736  13.696  13.087  0.00  0.00     0.010 A 
HETATM   19  C   UNK N   1      36.448  14.628  13.861  0.00  0.00     0.015 A 
HETATM   20  C   UNK N   1      36.786  14.351  15.188  0.00  0.00     0.001 A 
HETATM   21  C   UNK N   1      36.402  13.141  15.766  0.00  0.00     0.002 A 
HETATM   22  C   UNK N   1      35.671  12.215  15.023  0.00  0.00     0.025 A 
HETATM   23  C   UNK N   1      35.337  12.473  13.688  0.00  0.00     0.046 A 
HETATM   24 Cl   UNK N   1      34.379  11.263  12.848  0.00  0.00    -0.083 Cl
ENDBRANCH   1  18
TORSDOF 3
ENDMDL
MODEL 4
REMARK VINA RESULT:      -7.2      2.757      3.386
REMARK  3 active torsions:
REMARK  status: ('A' for Active; 'I' for Inactive)
REMARK    1  A    between atoms: C_3  and  C_7 
REMARK       I    between atoms: N_10  and  C_14 
REMARK    2  A    between atoms: C_11  and  C_13 
REMARK    3  A    between atoms: C_20  and  O_23 
ROOT
HETATM    1  C   UNK N   1      27.819  26.753  -5.364  0.00  0.00     0.040 A 
HETATM    2  N   UNK N   1      26.877  25.987  -5.739  0.00  0.00    -0.298 N 
ATOM      3  HN  UNK N   1      25.902  26.276  -5.818  1.00  0.00     0.187 HD
HETATM    4  N   UNK N   1      27.325  24.733  -6.021  0.00  0.00    -0.252 N 
HETATM    5  C   UNK N   1      28.775  24.629  -5.872  0.00  0.00     0.150 A 
HETATM    6  C   UNK N   1      29.141  26.042  -5.333  0.00  0.00     0.091 A 
HETATM    7  C   UNK N   1      26.473  23.793  -6.530  0.00  0.00     0.234 C 
HETATM    8  C   UNK N   1      26.945  22.463  -7.007  0.00  0.00     0.119 C 
HETATM    9  O   UNK N   1      25.283  24.052  -6.638  0.00  0.00    -0.272 OA
ENDROOT
BRANCH   5  10
HETATM   10  C   UNK N   1      29.311  23.530  -4.956  0.00  0.00    -0.030 A 
HETATM   11  C   UNK N   1      29.775  22.323  -5.496  0.00  0.00     0.009 A 
HETATM   12  C   UNK N   1      30.375  21.355  -4.687  0.00  0.00     0.003 A 
HETATM   13  C   UNK N   1      30.538  21.591  -3.321  0.00  0.00     0.036 A 
HETATM   14  C   UNK N   1      30.093  22.791  -2.766  0.00  0.00     0.066 A 
HETATM   15  C   UNK N   1      29.488  23.757  -3.577  0.00  0.00     0.045 A 
BRANCH  14  16
HETATM   16  O   UNK N   1      30.257  23.023  -1.453  0.00  0.00    -0.361 OA
HETATM   17  H   UNK N   1      29.610  22.800  -0.814  0.00  0.00     0.217 HD
ENDBRANCH  14  16
ENDBRANCH   5  10
BRANCH   1  18
HETATM   18  C   UNK N   1      27.616  28.208  -5.127  0.00  0.00     0.010 A 
HETATM   19  C   UNK N   1      28.392  29.114  -5.871  0.00  0.00     0.015 A 
HETATM   20  C   UNK N   1      28.301  30.489  -5.647  0.00  0.00     0.001 A 
HETATM   21  C   UNK N   1      27.421  30.981  -4.684  0.00  0.00     0.002 A 
HETATM   22  C   UNK N   1      26.623  30.101  -3.955  0.00  0.00     0.025 A 
HETATM   23  C   UNK N   1      26.712  28.719  -4.159  0.00  0.00     0.046 A 
HETATM   24 Cl   UNK N   1      25.636  27.694  -3.221  0.00  0.00    -0.083 Cl
ENDBRANCH   1  18
TORSDOF 3
ENDMDL
MODEL 5
REMARK VINA RESULT:      -7.1     23.155     25.210
REMARK  3 active torsions:
REMARK  status: ('A' for Active; 'I' for Inactive)
REMARK    1  A    between atoms: C_3  and  C_7 
REMARK       I    between atoms: N_10  and  C_14 
REMARK    2  A    between atoms: C_11  and  C_13 
REMARK    3  A    between atoms: C_20  and  O_23 
ROOT
HETATM    1  C   UNK N   1      36.268  13.815  13.204  0.00  0.00     0.040 A 
HETATM    2  N   UNK N   1      36.908  14.609  13.963  0.00  0.00    -0.298 N 
ATOM      3  HN  UNK N   1      37.597  15.285  13.631  1.00  0.00     0.187 HD
HETATM    4  N   UNK N   1      36.564  14.451  15.270  0.00  0.00    -0.252 N 
HETATM    5  C   UNK N   1      35.510  13.451  15.436  0.00  0.00     0.150 A 
HETATM    6  C   UNK N   1      35.334  12.931  13.979  0.00  0.00     0.091 A 
HETATM    7  C   UNK N   1      37.077  15.282  16.226  0.00  0.00     0.234 C 
HETATM    8  C   UNK N   1      36.611  15.256  17.640  0.00  0.00     0.119 C 
HETATM    9  O   UNK N   1      37.926  16.106  15.916  0.00  0.00    -0.272 OA
ENDROOT
BRANCH   5  10
HETATM   10  C   UNK N   1      35.777  12.302  16.406  0.00  0.00    -0.030 A 
HETATM   11  C   UNK N   1      35.165  12.285  17.667  0.00  0.00     0.009 A 
HETATM   12  C   UNK N   1      35.304  11.187  18.520  0.00  0.00     0.003 A 
HETATM   13  C   UNK N   1      36.047  10.078  18.114  0.00  0.00     0.036 A 
HETATM   14  C   UNK N   1      36.655  10.071  16.859  0.00  0.00     0.066 A 
HETATM   15  C   UNK N   1      36.518  11.172  16.007  0.00  0.00     0.045 A 
BRANCH  14  16
HETATM   16  O   UNK N   1      37.362   9.000  16.463  0.00  0.00    -0.361 OA
HETATM   17  H   UNK N   1      37.600   8.306  17.045  0.00  0.00     0.217 HD
ENDBRANCH  14  16
ENDBRANCH   5  10
BRANCH   1  18
HETATM   18  C   UNK N   1      36.361  13.881  11.721  0.00  0.00     0.010 A 
HETATM   19  C   UNK N   1      35.807  14.997  11.072  0.00  0.00     0.015 A 
HETATM   20  C   UNK N   1      35.798  15.086   9.678  0.00  0.00     0.001 A 
HETATM   21  C   UNK N   1      36.358  14.066   8.912  0.00  0.00     0.002 A 
HETATM   22  C   UNK N   1      36.937  12.963   9.537  0.00  0.00     0.025 A 
HETATM   23  C   UNK N   1      36.942  12.853  10.932  0.00  0.00     0.046 A 
HETATM   24 Cl   UNK N   1      37.732  11.445  11.628  0.00  0.00    -0.083 Cl
ENDBRANCH   1  18
TORSDOF 3
ENDMDL
MODEL 6
REMARK VINA RESULT:      -7.0     16.241     18.349
REMARK  3 active torsions:
REMARK  status: ('A' for Active; 'I' for Inactive)
REMARK    1  A    between atoms: C_3  and  C_7 
REMARK       I    between atoms: N_10  and  C_14 
REMARK    2  A    between atoms: C_11  and  C_13 
REMARK    3  A    between atoms: C_20  and  O_23 
ROOT
HETATM    1  C   UNK N   1      33.681  15.453   9.186  0.00  0.00     0.040 A 
HETATM    2  N   UNK N   1      34.073  16.175   8.217  0.00  0.00    -0.298 N 
ATOM      3  HN  UNK N   1      35.042  16.458   8.070  1.00  0.00     0.187 HD
HETATM    4  N   UNK N   1      33.044  16.527   7.398  0.00  0.00    -0.252 N 
HETATM    5  C   UNK N   1      31.782  15.929   7.826  0.00  0.00     0.150 A 
HETATM    6  C   UNK N   1      32.199  15.215   9.144  0.00  0.00     0.091 A 
HETATM    7  C   UNK N   1      33.284  17.226   6.248  0.00  0.00     0.234 C 
HETATM    8  C   UNK N   1      32.221  17.493   5.240  0.00  0.00     0.119 C 
HETATM    9  O   UNK N   1      34.416  17.621   6.007  0.00  0.00    -0.272 OA
ENDROOT
BRANCH   5  10
HETATM   10  C   UNK N   1      30.599  16.869   8.055  0.00  0.00    -0.030 A 
HETATM   11  C   UNK N   1      30.720  17.956   8.930  0.00  0.00     0.009 A 
HETATM   12  C   UNK N   1      29.690  18.891   9.063  0.00  0.00     0.003 A 
HETATM   13  C   UNK N   1      28.526  18.760   8.305  0.00  0.00     0.036 A 
HETATM   14  C   UNK N   1      28.390  17.689   7.420  0.00  0.00     0.066 A 
HETATM   15  C   UNK N   1      29.421  16.752   7.291  0.00  0.00     0.045 A 
BRANCH  14  16
HETATM   16  O   UNK N   1      27.275  17.567   6.683  0.00  0.00    -0.361 OA
HETATM   17  H   UNK N   1      26.848  18.298   6.284  0.00  0.00     0.217 HD
ENDBRANCH  14  16
ENDBRANCH   5  10
BRANCH   1  18
HETATM   18  C   UNK N   1      34.629  14.825  10.146  0.00  0.00     0.010 A 
HETATM   19  C   UNK N   1      34.990  15.554  11.292  0.00  0.00     0.015 A 
HETATM   20  C   UNK N   1      35.928  15.052  12.196  0.00  0.00     0.001 A 
HETATM   21  C   UNK N   1      36.510  13.805  11.975  0.00  0.00     0.002 A 
HETATM   22  C   UNK N   1      36.144  13.053  10.859  0.00  0.00     0.025 A 
HETATM   23  C   UNK N   1      35.215  13.549   9.937  0.00  0.00     0.046 A 
HETATM   24 Cl   UNK N   1      34.788  12.511   8.585  0.00  0.00    -0.083 Cl
ENDBRANCH   1  18
TORSDOF 3
ENDMDL
MODEL 7
REMARK VINA RESULT:      -7.0     15.884     16.989
REMARK  3 active torsions:
REMARK  status: ('A' for Active; 'I' for Inactive)
REMARK    1  A    between atoms: C_3  and  C_7 
REMARK       I    between atoms: N_10  and  C_14 
REMARK    2  A    between atoms: C_11  and  C_13 
REMARK    3  A    between atoms: C_20  and  O_23 
ROOT
HETATM    1  C   UNK N   1      22.029  14.494   7.806  0.00  0.00     0.040 A 
HETATM    2  N   UNK N   1      21.538  15.665   7.844  0.00  0.00    -0.298 N 
ATOM      3  HN  UNK N   1      21.086  16.069   8.664  1.00  0.00     0.187 HD
HETATM    4  N   UNK N   1      21.687  16.317   6.658  0.00  0.00    -0.252 N 
HETATM    5  C   UNK N   1      22.423  15.512   5.686  0.00  0.00     0.150 A 
HETATM    6  C   UNK N   1      22.615  14.175   6.460  0.00  0.00     0.091 A 
HETATM    7  C   UNK N   1      21.306  17.624   6.535  0.00  0.00     0.234 C 
HETATM    8  C   UNK N   1      21.595  18.428   5.315  0.00  0.00     0.119 C 
HETATM    9  O   UNK N   1      20.737  18.177   7.465  0.00  0.00    -0.272 OA
ENDROOT
BRANCH   5  10
HETATM   10  C   UNK N   1      21.767  15.275   4.327  0.00  0.00    -0.030 A 
HETATM   11  C   UNK N   1      22.517  15.394   3.149  0.00  0.00     0.009 A 
HETATM   12  C   UNK N   1      21.964  15.069   1.908  0.00  0.00     0.003 A 
HETATM   13  C   UNK N   1      20.653  14.601   1.829  0.00  0.00     0.036 A 
HETATM   14  C   UNK N   1      19.892  14.465   2.991  0.00  0.00     0.066 A 
HETATM   15  C   UNK N   1      20.445  14.795   4.233  0.00  0.00     0.045 A 
BRANCH  14  16
HETATM   16  O   UNK N   1      18.633  14.005   2.917  0.00  0.00    -0.361 OA
HETATM   17  H   UNK N   1      18.366  13.193   3.301  0.00  0.00     0.217 HD
ENDBRANCH  14  16
ENDBRANCH   5  10
BRANCH   1  18
HETATM   18  C   UNK N   1      22.115  13.626   9.011  0.00  0.00     0.010 A 
HETATM   19  C   UNK N   1      20.923  13.308   9.684  0.00  0.00     0.015 A 
HETATM   20  C   UNK N   1      20.942  12.557  10.862  0.00  0.00     0.001 A 
HETATM   21  C   UNK N   1      22.154  12.100  11.377  0.00  0.00     0.002 A 
HETATM   22  C   UNK N   1      23.345  12.382  10.709  0.00  0.00     0.025 A 
HETATM   23  C   UNK N   1      23.343  13.145   9.536  0.00  0.00     0.046 A 
HETATM   24 Cl   UNK N   1      24.891  13.411   8.745  0.00  0.00    -0.083 Cl
ENDBRANCH   1  18
TORSDOF 3
ENDMDL
MODEL 8
REMARK VINA RESULT:      -7.0     22.907     24.763
REMARK  3 active torsions:
REMARK  status: ('A' for Active; 'I' for Inactive)
REMARK    1  A    between atoms: C_3  and  C_7 
REMARK       I    between atoms: N_10  and  C_14 
REMARK    2  A    between atoms: C_11  and  C_13 
REMARK    3  A    between atoms: C_20  and  O_23 
ROOT
HETATM    1  C   UNK N   1      35.658  11.983  15.069  0.00  0.00     0.040 A 
HETATM    2  N   UNK N   1      36.610  11.283  14.603  0.00  0.00    -0.298 N 
ATOM      3  HN  UNK N   1      37.358  10.885  15.171  1.00  0.00     0.187 HD
HETATM    4  N   UNK N   1      36.513  11.128  13.254  0.00  0.00    -0.252 N 
HETATM    5  C   UNK N   1      35.308  11.760  12.721  0.00  0.00     0.150 A 
HETATM    6  C   UNK N   1      34.718  12.440  13.991  0.00  0.00     0.091 A 
HETATM    7  C   UNK N   1      37.395  10.326  12.585  0.00  0.00     0.234 C 
HETATM    8  C   UNK N   1      37.235   9.994  11.142  0.00  0.00     0.119 C 
HETATM    9  O   UNK N   1      38.334   9.827  13.188  0.00  0.00    -0.272 OA
ENDROOT
BRANCH   5  10
HETATM   10  C   UNK N   1      35.484  12.766  11.586  0.00  0.00    -0.030 A 
HETATM   11  C   UNK N   1      34.753  12.626  10.398  0.00  0.00     0.009 A 
HETATM   12  C   UNK N   1      34.813  13.599   9.397  0.00  0.00     0.003 A 
HETATM   13  C   UNK N   1      35.597  14.739   9.578  0.00  0.00     0.036 A 
HETATM   14  C   UNK N   1      36.324  14.902  10.757  0.00  0.00     0.066 A 
HETATM   15  C   UNK N   1      36.266  13.925  11.757  0.00  0.00     0.045 A 
BRANCH  14  16
HETATM   16  O   UNK N   1      37.071  16.003  10.937  0.00  0.00    -0.361 OA
HETATM   17  H   UNK N   1      36.775  16.860  10.703  0.00  0.00     0.217 HD
ENDBRANCH  14  16
ENDBRANCH   5  10
BRANCH   1  18
HETATM   18  C   UNK N   1      35.459  12.186  16.530  0.00  0.00     0.010 A 
HETATM   19  C   UNK N   1      35.381  13.504  17.010  0.00  0.00     0.015 A 
HETATM   20  C   UNK N   1      35.266  13.765  18.377  0.00  0.00     0.001 A 
HETATM   21  C   UNK N   1      35.212  12.708  19.285  0.00  0.00     0.002 A 
HETATM   22  C   UNK N   1      35.259  11.393  18.827  0.00  0.00     0.025 A 
HETATM   23  C   UNK N   1      35.389  11.116  17.461  0.00  0.00     0.046 A 
HETATM   24 Cl   UNK N   1      35.399   9.426  16.977  0.00  0.00    -0.083 Cl
ENDBRANCH   1  18
TORSDOF 3
ENDMDL
MODEL 9
REMARK VINA RESULT:      -7.0     16.908     17.963
REMARK  3 active torsions:
REMARK  status: ('A' for Active; 'I' for Inactive)
REMARK    1  A    between atoms: C_3  and  C_7 
REMARK       I    between atoms: N_10  and  C_14 
REMARK    2  A    between atoms: C_11  and  C_13 
REMARK    3  A    between atoms: C_20  and  O_23 
ROOT
HETATM    1  C   UNK N   1      21.805  13.156   8.217  0.00  0.00     0.040 A 
HETATM    2  N   UNK N   1      21.447  12.287   7.360  0.00  0.00    -0.298 N 
ATOM      3  HN  UNK N   1      21.726  11.307   7.390  1.00  0.00     0.187 HD
HETATM    4  N   UNK N   1      20.648  12.823   6.398  0.00  0.00    -0.252 N 
HETATM    5  C   UNK N   1      20.372  14.236   6.647  0.00  0.00     0.150 A 
HETATM    6  C   UNK N   1      21.248  14.514   7.904  0.00  0.00     0.091 A 
HETATM    7  C   UNK N   1      20.086  12.024   5.442  0.00  0.00     0.234 C 
HETATM    8  C   UNK N   1      19.079  12.530   4.469  0.00  0.00     0.119 C 
HETATM    9  O   UNK N   1      20.385  10.839   5.394  0.00  0.00    -0.272 OA
ENDROOT
BRANCH   5  10
HETATM   10  C   UNK N   1      20.685  15.223   5.524  0.00  0.00    -0.030 A 
HETATM   11  C   UNK N   1      21.956  15.245   4.936  0.00  0.00     0.009 A 
HETATM   12  C   UNK N   1      22.225  16.059   3.832  0.00  0.00     0.003 A 
HETATM   13  C   UNK N   1      21.215  16.852   3.287  0.00  0.00     0.036 A 
HETATM   14  C   UNK N   1      19.939  16.837   3.852  0.00  0.00     0.066 A 
HETATM   15  C   UNK N   1      19.673  16.025   4.960  0.00  0.00     0.045 A 
BRANCH  14  16
HETATM   16  O   UNK N   1      18.964  17.592   3.323  0.00  0.00    -0.361 OA
HETATM   17  H   UNK N   1      18.449  17.317   2.591  0.00  0.00     0.217 HD
ENDBRANCH  14  16
ENDBRANCH   5  10
BRANCH   1  18
HETATM   18  C   UNK N   1      22.569  12.798   9.443  0.00  0.00     0.010 A 
HETATM   19  C   UNK N   1      23.968  12.707   9.347  0.00  0.00     0.015 A 
HETATM   20  C   UNK N   1      24.737  12.308  10.442  0.00  0.00     0.001 A 
HETATM   21  C   UNK N   1      24.120  12.007  11.655  0.00  0.00     0.002 A 
HETATM   22  C   UNK N   1      22.736  12.118  11.778  0.00  0.00     0.025 A 
HETATM   23  C   UNK N   1      21.950  12.504  10.686  0.00  0.00     0.046 A 
HETATM   24 Cl   UNK N   1      20.219  12.654  10.951  0.00  0.00    -0.083 Cl
ENDBRANCH   1  18
TORSDOF 3
ENDMDL
