REMARK  11 active torsions:
REMARK  status: ('A' for Active; 'I' for Inactive)
REMARK    1  A    between atoms: N_1  and  C_5 
REMARK    2  A    between atoms: C_5  and  C_6 
REMARK    3  A    between atoms: C_6  and  C_7 
REMARK    4  A    between atoms: C_7  and  C_8 
REMARK    5  A    between atoms: C_8  and  C_9 
REMARK    6  A    between atoms: C_9  and  C_10 
REMARK    7  A    between atoms: C_10  and  C_11 
REMARK    8  A    between atoms: C_11  and  C_12 
REMARK    9  A    between atoms: C_12  and  C_13 
REMARK   10  A    between atoms: C_13  and  C_14 
REMARK   11  A    between atoms: C_14  and  C_15 
ROOT
HETATM    1  C   UNK N   1      -1.221  -0.305   0.099  0.00  0.00     0.000 C 
ENDROOT
BRANCH   1   2
HETATM    2  C   UNK N   1      -2.211  -1.453   0.124  0.00  0.00     0.002 C 
BRANCH   2   3
HETATM    3  C   UNK N   1      -3.537  -0.999  -0.447  0.00  0.00     0.036 C 
BRANCH   3   4
HETATM    4  C   UNK N   1      -4.334  -0.220   0.599  0.00  0.00     0.311 C 
BRANCH   4   5
HETATM    5  N   UNK N   1      -5.314   0.685  -0.002  0.00  0.00     0.005 N 
HETATM    6  O   UNK N   1      -6.029   1.254   1.002  0.00  0.00    -0.065 OA
HETATM    7  C   UNK N   1      -6.245  -0.019  -0.870  0.00  0.00     0.355 C 
HETATM    8  C   UNK N   1      -4.654   1.749  -0.740  0.00  0.00     0.355 C 
ENDBRANCH   4   5
ENDBRANCH   3   4
ENDBRANCH   2   3
ENDBRANCH   1   2
BRANCH   1   9
HETATM    9  C   UNK N   1       0.174  -0.873   0.198  0.00  0.00     0.000 C 
BRANCH   9  10
HETATM   10  C   UNK N   1       1.208   0.224   0.063  0.00  0.00     0.000 C 
BRANCH  10  11
HETATM   11  C   UNK N   1       2.563  -0.443   0.006  0.00  0.00     0.000 C 
BRANCH  11  12
HETATM   12  C   UNK N   1       3.685   0.570  -0.011  0.00  0.00     0.000 C 
BRANCH  12  13
HETATM   13  C   UNK N   1       4.983  -0.208  -0.017  0.00  0.00     0.000 C 
BRANCH  13  14
HETATM   14  C   UNK N   1       6.177   0.718  -0.005  0.00  0.00    -0.000 C 
BRANCH  14  15
HETATM   15  C   UNK N   1       7.431  -0.132  -0.000  0.00  0.00    -0.005 C 
HETATM   16  C   UNK N   1       8.656   0.756   0.002  0.00  0.00     0.005 C 
ENDBRANCH  14  15
ENDBRANCH  13  14
ENDBRANCH  12  13
ENDBRANCH  11  12
ENDBRANCH  10  11
ENDBRANCH   9  10
ENDBRANCH   1   9
TORSDOF 11
