MODEL 1
REMARK VINA RESULT:      -4.3      0.000      0.000
REMARK  11 active torsions:
REMARK  status: ('A' for Active; 'I' for Inactive)
REMARK    1  A    between atoms: N_1  and  C_5 
REMARK    2  A    between atoms: C_5  and  C_6 
REMARK    3  A    between atoms: C_6  and  C_7 
REMARK    4  A    between atoms: C_7  and  C_8 
REMARK    5  A    between atoms: C_8  and  C_9 
REMARK    6  A    between atoms: C_9  and  C_10 
REMARK    7  A    between atoms: C_10  and  C_11 
REMARK    8  A    between atoms: C_11  and  C_12 
REMARK    9  A    between atoms: C_12  and  C_13 
REMARK   10  A    between atoms: C_13  and  C_14 
REMARK   11  A    between atoms: C_14  and  C_15 
ROOT
HETATM    1  C   UNK N   1      27.941  24.588  -4.079  0.00  0.00     0.000 C 
ENDROOT
BRANCH   1   2
HETATM    2  C   UNK N   1      27.580  23.896  -2.779  0.00  0.00     0.002 C 
BRANCH   2   3
HETATM    3  C   UNK N   1      28.726  23.013  -2.333  0.00  0.00     0.036 C 
BRANCH   3   4
HETATM    4  C   UNK N   1      30.062  23.594  -2.794  0.00  0.00     0.311 C 
BRANCH   4   5
HETATM    5  N   UNK N   1      31.014  22.558  -3.197  0.00  0.00     0.005 N 
HETATM    6  O   UNK N   1      31.648  22.115  -2.081  0.00  0.00    -0.065 OA
HETATM    7  C   UNK N   1      32.024  23.072  -4.109  0.00  0.00     0.355 C 
HETATM    8  C   UNK N   1      30.328  21.428  -3.800  0.00  0.00     0.355 C 
ENDBRANCH   4   5
ENDBRANCH   3   4
ENDBRANCH   2   3
ENDBRANCH   1   2
BRANCH   1   9
HETATM    9  C   UNK N   1      27.223  23.891  -5.209  0.00  0.00     0.000 C 
BRANCH   9  10
HETATM   10  C   UNK N   1      25.896  24.561  -5.492  0.00  0.00     0.000 C 
BRANCH  10  11
HETATM   11  C   UNK N   1      25.842  24.838  -6.977  0.00  0.00     0.000 C 
BRANCH  11  12
HETATM   12  C   UNK N   1      25.758  26.319  -7.267  0.00  0.00     0.000 C 
BRANCH  12  13
HETATM   13  C   UNK N   1      25.514  27.016  -5.946  0.00  0.00     0.000 C 
BRANCH  13  14
HETATM   14  C   UNK N   1      26.492  28.147  -5.734  0.00  0.00    -0.000 C 
BRANCH  14  15
HETATM   15  C   UNK N   1      26.909  28.142  -4.278  0.00  0.00    -0.005 C 
HETATM   16  C   UNK N   1      25.776  27.625  -3.419  0.00  0.00     0.005 C 
ENDBRANCH  14  15
ENDBRANCH  13  14
ENDBRANCH  12  13
ENDBRANCH  11  12
ENDBRANCH  10  11
ENDBRANCH   9  10
ENDBRANCH   1   9
TORSDOF 11
ENDMDL
MODEL 2
REMARK VINA RESULT:      -4.2      1.014      2.679
REMARK  11 active torsions:
REMARK  status: ('A' for Active; 'I' for Inactive)
REMARK    1  A    between atoms: N_1  and  C_5 
REMARK    2  A    between atoms: C_5  and  C_6 
REMARK    3  A    between atoms: C_6  and  C_7 
REMARK    4  A    between atoms: C_7  and  C_8 
REMARK    5  A    between atoms: C_8  and  C_9 
REMARK    6  A    between atoms: C_9  and  C_10 
REMARK    7  A    between atoms: C_10  and  C_11 
REMARK    8  A    between atoms: C_11  and  C_12 
REMARK    9  A    between atoms: C_12  and  C_13 
REMARK   10  A    between atoms: C_13  and  C_14 
REMARK   11  A    between atoms: C_14  and  C_15 
ROOT
HETATM    1  C   UNK N   1      28.905  26.542  -4.705  0.00  0.00     0.000 C 
ENDROOT
BRANCH   1   2
HETATM    2  C   UNK N   1      28.707  25.213  -4.003  0.00  0.00     0.002 C 
BRANCH   2   3
HETATM    3  C   UNK N   1      29.977  24.394  -4.089  0.00  0.00     0.036 C 
BRANCH   3   4
HETATM    4  C   UNK N   1      29.905  23.192  -3.148  0.00  0.00     0.311 C 
BRANCH   4   5
HETATM    5  N   UNK N   1      31.068  22.312  -3.272  0.00  0.00     0.005 N 
HETATM    6  O   UNK N   1      31.620  22.171  -2.040  0.00  0.00    -0.065 OA
HETATM    7  C   UNK N   1      32.081  22.870  -4.154  0.00  0.00     0.355 C 
HETATM    8  C   UNK N   1      30.674  20.994  -3.740  0.00  0.00     0.355 C 
ENDBRANCH   4   5
ENDBRANCH   3   4
ENDBRANCH   2   3
ENDBRANCH   1   2
BRANCH   1   9
HETATM    9  C   UNK N   1      28.004  27.565  -4.056  0.00  0.00     0.000 C 
BRANCH   9  10
HETATM   10  C   UNK N   1      26.782  26.899  -3.460  0.00  0.00     0.000 C 
BRANCH  10  11
HETATM   11  C   UNK N   1      25.589  27.758  -3.810  0.00  0.00     0.000 C 
BRANCH  11  12
HETATM   12  C   UNK N   1      25.255  27.680  -5.282  0.00  0.00     0.000 C 
BRANCH  12  13
HETATM   13  C   UNK N   1      25.095  26.215  -5.622  0.00  0.00     0.000 C 
BRANCH  13  14
HETATM   14  C   UNK N   1      25.779  25.877  -6.927  0.00  0.00    -0.000 C 
BRANCH  14  15
HETATM   15  C   UNK N   1      26.352  24.480  -6.810  0.00  0.00    -0.005 C 
HETATM   16  C   UNK N   1      25.805  23.800  -5.574  0.00  0.00     0.005 C 
ENDBRANCH  14  15
ENDBRANCH  13  14
ENDBRANCH  12  13
ENDBRANCH  11  12
ENDBRANCH  10  11
ENDBRANCH   9  10
ENDBRANCH   1   9
TORSDOF 11
ENDMDL
MODEL 3
REMARK VINA RESULT:      -4.2      1.216      2.148
REMARK  11 active torsions:
REMARK  status: ('A' for Active; 'I' for Inactive)
REMARK    1  A    between atoms: N_1  and  C_5 
REMARK    2  A    between atoms: C_5  and  C_6 
REMARK    3  A    between atoms: C_6  and  C_7 
REMARK    4  A    between atoms: C_7  and  C_8 
REMARK    5  A    between atoms: C_8  and  C_9 
REMARK    6  A    between atoms: C_9  and  C_10 
REMARK    7  A    between atoms: C_10  and  C_11 
REMARK    8  A    between atoms: C_11  and  C_12 
REMARK    9  A    between atoms: C_12  and  C_13 
REMARK   10  A    between atoms: C_13  and  C_14 
REMARK   11  A    between atoms: C_14  and  C_15 
ROOT
HETATM    1  C   UNK N   1      27.154  24.275  -6.462  0.00  0.00     0.000 C 
ENDROOT
BRANCH   1   2
HETATM    2  C   UNK N   1      27.392  24.184  -4.967  0.00  0.00     0.002 C 
BRANCH   2   3
HETATM    3  C   UNK N   1      28.754  23.582  -4.700  0.00  0.00     0.036 C 
BRANCH   3   4
HETATM    4  C   UNK N   1      29.042  23.548  -3.199  0.00  0.00     0.311 C 
BRANCH   4   5
HETATM    5  N   UNK N   1      30.344  22.956  -2.891  0.00  0.00     0.005 N 
HETATM    6  O   UNK N   1      30.540  23.050  -1.551  0.00  0.00    -0.065 OA
HETATM    7  C   UNK N   1      31.433  23.658  -3.552  0.00  0.00     0.355 C 
HETATM    8  C   UNK N   1      30.371  21.547  -3.249  0.00  0.00     0.355 C 
ENDBRANCH   4   5
ENDBRANCH   3   4
ENDBRANCH   2   3
ENDBRANCH   1   2
BRANCH   1   9
HETATM    9  C   UNK N   1      26.203  25.417  -6.727  0.00  0.00     0.000 C 
BRANCH   9  10
HETATM   10  C   UNK N   1      25.273  25.621  -5.551  0.00  0.00     0.000 C 
BRANCH  10  11
HETATM   11  C   UNK N   1      24.811  27.060  -5.590  0.00  0.00     0.000 C 
BRANCH  11  12
HETATM   12  C   UNK N   1      25.939  28.018  -5.282  0.00  0.00     0.000 C 
BRANCH  12  13
HETATM   13  C   UNK N   1      25.854  28.341  -3.806  0.00  0.00     0.000 C 
BRANCH  13  14
HETATM   14  C   UNK N   1      27.159  28.045  -3.104  0.00  0.00    -0.000 C 
BRANCH  14  15
HETATM   15  C   UNK N   1      28.288  28.313  -4.077  0.00  0.00    -0.005 C 
HETATM   16  C   UNK N   1      29.350  27.245  -3.942  0.00  0.00     0.005 C 
ENDBRANCH  14  15
ENDBRANCH  13  14
ENDBRANCH  12  13
ENDBRANCH  11  12
ENDBRANCH  10  11
ENDBRANCH   9  10
ENDBRANCH   1   9
TORSDOF 11
ENDMDL
MODEL 4
REMARK VINA RESULT:      -4.1      2.940      5.747
REMARK  11 active torsions:
REMARK  status: ('A' for Active; 'I' for Inactive)
REMARK    1  A    between atoms: N_1  and  C_5 
REMARK    2  A    between atoms: C_5  and  C_6 
REMARK    3  A    between atoms: C_6  and  C_7 
REMARK    4  A    between atoms: C_7  and  C_8 
REMARK    5  A    between atoms: C_8  and  C_9 
REMARK    6  A    between atoms: C_9  and  C_10 
REMARK    7  A    between atoms: C_10  and  C_11 
REMARK    8  A    between atoms: C_11  and  C_12 
REMARK    9  A    between atoms: C_12  and  C_13 
REMARK   10  A    between atoms: C_13  and  C_14 
REMARK   11  A    between atoms: C_14  and  C_15 
ROOT
HETATM    1  C   UNK N   1      25.951  26.705  -6.655  0.00  0.00     0.000 C 
ENDROOT
BRANCH   1   2
HETATM    2  C   UNK N   1      24.770  26.968  -5.741  0.00  0.00     0.002 C 
BRANCH   2   3
HETATM    3  C   UNK N   1      25.159  27.969  -4.675  0.00  0.00     0.036 C 
BRANCH   3   4
HETATM    4  C   UNK N   1      26.649  28.300  -4.767  0.00  0.00     0.311 C 
BRANCH   4   5
HETATM    5  N   UNK N   1      27.148  28.976  -3.569  0.00  0.00     0.005 N 
HETATM    6  O   UNK N   1      26.705  28.289  -2.486  0.00  0.00    -0.065 OA
HETATM    7  C   UNK N   1      26.653  30.340  -3.467  0.00  0.00     0.355 C 
HETATM    8  C   UNK N   1      28.601  28.971  -3.539  0.00  0.00     0.355 C 
ENDBRANCH   4   5
ENDBRANCH   3   4
ENDBRANCH   2   3
ENDBRANCH   1   2
BRANCH   1   9
HETATM    9  C   UNK N   1      25.990  25.230  -6.975  0.00  0.00     0.000 C 
BRANCH   9  10
HETATM   10  C   UNK N   1      25.587  24.411  -5.767  0.00  0.00     0.000 C 
BRANCH  10  11
HETATM   11  C   UNK N   1      26.860  23.937  -5.104  0.00  0.00     0.000 C 
BRANCH  11  12
HETATM   12  C   UNK N   1      27.131  24.683  -3.818  0.00  0.00     0.000 C 
BRANCH  12  13
HETATM   13  C   UNK N   1      28.545  25.217  -3.907  0.00  0.00     0.000 C 
BRANCH  13  14
HETATM   14  C   UNK N   1      29.522  24.123  -4.267  0.00  0.00    -0.000 C 
BRANCH  14  15
HETATM   15  C   UNK N   1      30.511  23.983  -3.128  0.00  0.00    -0.005 C 
HETATM   16  C   UNK N   1      30.023  22.940  -2.146  0.00  0.00     0.005 C 
ENDBRANCH  14  15
ENDBRANCH  13  14
ENDBRANCH  12  13
ENDBRANCH  11  12
ENDBRANCH  10  11
ENDBRANCH   9  10
ENDBRANCH   1   9
TORSDOF 11
ENDMDL
MODEL 5
REMARK VINA RESULT:      -4.0     20.611     23.780
REMARK  11 active torsions:
REMARK  status: ('A' for Active; 'I' for Inactive)
REMARK    1  A    between atoms: N_1  and  C_5 
REMARK    2  A    between atoms: C_5  and  C_6 
REMARK    3  A    between atoms: C_6  and  C_7 
REMARK    4  A    between atoms: C_7  and  C_8 
REMARK    5  A    between atoms: C_8  and  C_9 
REMARK    6  A    between atoms: C_9  and  C_10 
REMARK    7  A    between atoms: C_10  and  C_11 
REMARK    8  A    between atoms: C_11  and  C_12 
REMARK    9  A    between atoms: C_12  and  C_13 
REMARK   10  A    between atoms: C_13  and  C_14 
REMARK   11  A    between atoms: C_14  and  C_15 
ROOT
HETATM    1  C   UNK N   1      35.851  12.060  14.166  0.00  0.00     0.000 C 
ENDROOT
BRANCH   1   2
HETATM    2  C   UNK N   1      36.271  13.484  13.862  0.00  0.00     0.002 C 
BRANCH   2   3
HETATM    3  C   UNK N   1      35.547  13.980  12.629  0.00  0.00     0.036 C 
BRANCH   3   4
HETATM    4  C   UNK N   1      36.359  13.676  11.370  0.00  0.00     0.311 C 
BRANCH   4   5
HETATM    5  N   UNK N   1      36.281  14.751  10.380  0.00  0.00     0.005 N 
HETATM    6  O   UNK N   1      37.545  15.038   9.975  0.00  0.00    -0.065 OA
HETATM    7  C   UNK N   1      35.704  15.964  10.937  0.00  0.00     0.355 C 
HETATM    8  C   UNK N   1      35.522  14.329   9.215  0.00  0.00     0.355 C 
ENDBRANCH   4   5
ENDBRANCH   3   4
ENDBRANCH   2   3
ENDBRANCH   1   2
BRANCH   1   9
HETATM    9  C   UNK N   1      34.355  11.954  13.995  0.00  0.00     0.000 C 
BRANCH   9  10
HETATM   10  C   UNK N   1      33.825  10.713  14.681  0.00  0.00     0.000 C 
BRANCH  10  11
HETATM   11  C   UNK N   1      34.993  10.056  15.381  0.00  0.00     0.000 C 
BRANCH  11  12
HETATM   12  C   UNK N   1      34.777   9.976  16.875  0.00  0.00     0.000 C 
BRANCH  12  13
HETATM   13  C   UNK N   1      35.857  10.815  17.523  0.00  0.00     0.000 C 
BRANCH  13  14
HETATM   14  C   UNK N   1      35.263  11.881  18.414  0.00  0.00    -0.000 C 
BRANCH  14  15
HETATM   15  C   UNK N   1      34.888  13.064  17.544  0.00  0.00    -0.005 C 
HETATM   16  C   UNK N   1      35.591  14.310  18.037  0.00  0.00     0.005 C 
ENDBRANCH  14  15
ENDBRANCH  13  14
ENDBRANCH  12  13
ENDBRANCH  11  12
ENDBRANCH  10  11
ENDBRANCH   9  10
ENDBRANCH   1   9
TORSDOF 11
ENDMDL
MODEL 6
REMARK VINA RESULT:      -4.0     10.172     12.951
REMARK  11 active torsions:
REMARK  status: ('A' for Active; 'I' for Inactive)
REMARK    1  A    between atoms: N_1  and  C_5 
REMARK    2  A    between atoms: C_5  and  C_6 
REMARK    3  A    between atoms: C_6  and  C_7 
REMARK    4  A    between atoms: C_7  and  C_8 
REMARK    5  A    between atoms: C_8  and  C_9 
REMARK    6  A    between atoms: C_9  and  C_10 
REMARK    7  A    between atoms: C_10  and  C_11 
REMARK    8  A    between atoms: C_11  and  C_12 
REMARK    9  A    between atoms: C_12  and  C_13 
REMARK   10  A    between atoms: C_13  and  C_14 
REMARK   11  A    between atoms: C_14  and  C_15 
ROOT
HETATM    1  C   UNK N   1      25.809  19.633   3.295  0.00  0.00     0.000 C 
ENDROOT
BRANCH   1   2
HETATM    2  C   UNK N   1      24.524  20.361   2.953  0.00  0.00     0.002 C 
BRANCH   2   3
HETATM    3  C   UNK N   1      23.340  19.604   3.516  0.00  0.00     0.036 C 
BRANCH   3   4
HETATM    4  C   UNK N   1      22.050  20.024   2.814  0.00  0.00     0.311 C 
BRANCH   4   5
HETATM    5  N   UNK N   1      20.853  19.638   3.561  0.00  0.00     0.005 N 
HETATM    6  O   UNK N   1      20.195  20.772   3.914  0.00  0.00    -0.065 OA
HETATM    7  C   UNK N   1      21.181  18.914   4.779  0.00  0.00     0.355 C 
HETATM    8  C   UNK N   1      19.960  18.842   2.735  0.00  0.00     0.355 C 
ENDBRANCH   4   5
ENDBRANCH   3   4
ENDBRANCH   2   3
ENDBRANCH   1   2
BRANCH   1   9
HETATM    9  C   UNK N   1      26.799  20.636   3.835  0.00  0.00     0.000 C 
BRANCH   9  10
HETATM   10  C   UNK N   1      27.903  19.939   4.601  0.00  0.00     0.000 C 
BRANCH  10  11
HETATM   11  C   UNK N   1      27.621  20.137   6.072  0.00  0.00     0.000 C 
BRANCH  11  12
HETATM   12  C   UNK N   1      27.929  18.893   6.873  0.00  0.00     0.000 C 
BRANCH  12  13
HETATM   13  C   UNK N   1      28.826  18.026   6.016  0.00  0.00     0.000 C 
BRANCH  13  14
HETATM   14  C   UNK N   1      29.561  17.004   6.852  0.00  0.00    -0.000 C 
BRANCH  14  15
HETATM   15  C   UNK N   1      31.029  17.063   6.481  0.00  0.00    -0.005 C 
HETATM   16  C   UNK N   1      31.177  17.238   4.986  0.00  0.00     0.005 C 
ENDBRANCH  14  15
ENDBRANCH  13  14
ENDBRANCH  12  13
ENDBRANCH  11  12
ENDBRANCH  10  11
ENDBRANCH   9  10
ENDBRANCH   1   9
TORSDOF 11
ENDMDL
MODEL 7
REMARK VINA RESULT:      -3.9      1.549      2.335
REMARK  11 active torsions:
REMARK  status: ('A' for Active; 'I' for Inactive)
REMARK    1  A    between atoms: N_1  and  C_5 
REMARK    2  A    between atoms: C_5  and  C_6 
REMARK    3  A    between atoms: C_6  and  C_7 
REMARK    4  A    between atoms: C_7  and  C_8 
REMARK    5  A    between atoms: C_8  and  C_9 
REMARK    6  A    between atoms: C_9  and  C_10 
REMARK    7  A    between atoms: C_10  and  C_11 
REMARK    8  A    between atoms: C_11  and  C_12 
REMARK    9  A    between atoms: C_12  and  C_13 
REMARK   10  A    between atoms: C_13  and  C_14 
REMARK   11  A    between atoms: C_14  and  C_15 
ROOT
HETATM    1  C   UNK N   1      29.797  24.187  -4.120  0.00  0.00     0.000 C 
ENDROOT
BRANCH   1   2
HETATM    2  C   UNK N   1      29.789  23.334  -2.867  0.00  0.00     0.002 C 
BRANCH   2   3
HETATM    3  C   UNK N   1      30.334  21.957  -3.181  0.00  0.00     0.036 C 
BRANCH   3   4
HETATM    4  C   UNK N   1      31.836  21.897  -2.901  0.00  0.00     0.311 C 
BRANCH   4   5
HETATM    5  N   UNK N   1      32.572  21.185  -3.946  0.00  0.00     0.005 N 
HETATM    6  O   UNK N   1      31.787  20.174  -4.397  0.00  0.00    -0.065 OA
HETATM    7  C   UNK N   1      33.805  20.600  -3.441  0.00  0.00     0.355 C 
HETATM    8  C   UNK N   1      32.861  22.062  -5.068  0.00  0.00     0.355 C 
ENDBRANCH   4   5
ENDBRANCH   3   4
ENDBRANCH   2   3
ENDBRANCH   1   2
BRANCH   1   9
HETATM    9  C   UNK N   1      28.699  25.216  -4.006  0.00  0.00     0.000 C 
BRANCH   9  10
HETATM   10  C   UNK N   1      27.372  24.551  -3.713  0.00  0.00     0.000 C 
BRANCH  10  11
HETATM   11  C   UNK N   1      26.775  24.139  -5.039  0.00  0.00     0.000 C 
BRANCH  11  12
HETATM   12  C   UNK N   1      25.389  24.711  -5.231  0.00  0.00     0.000 C 
BRANCH  12  13
HETATM   13  C   UNK N   1      25.524  25.892  -6.167  0.00  0.00     0.000 C 
BRANCH  13  14
HETATM   14  C   UNK N   1      24.725  27.076  -5.675  0.00  0.00    -0.000 C 
BRANCH  14  15
HETATM   15  C   UNK N   1      25.591  27.858  -4.707  0.00  0.00    -0.005 C 
HETATM   16  C   UNK N   1      26.888  28.252  -5.379  0.00  0.00     0.005 C 
ENDBRANCH  14  15
ENDBRANCH  13  14
ENDBRANCH  12  13
ENDBRANCH  11  12
ENDBRANCH  10  11
ENDBRANCH   9  10
ENDBRANCH   1   9
TORSDOF 11
ENDMDL
MODEL 8
REMARK VINA RESULT:      -3.9     15.696     18.326
REMARK  11 active torsions:
REMARK  status: ('A' for Active; 'I' for Inactive)
REMARK    1  A    between atoms: N_1  and  C_5 
REMARK    2  A    between atoms: C_5  and  C_6 
REMARK    3  A    between atoms: C_6  and  C_7 
REMARK    4  A    between atoms: C_7  and  C_8 
REMARK    5  A    between atoms: C_8  and  C_9 
REMARK    6  A    between atoms: C_9  and  C_10 
REMARK    7  A    between atoms: C_10  and  C_11 
REMARK    8  A    between atoms: C_11  and  C_12 
REMARK    9  A    between atoms: C_12  and  C_13 
REMARK   10  A    between atoms: C_13  and  C_14 
REMARK   11  A    between atoms: C_14  and  C_15 
ROOT
HETATM    1  C   UNK N   1      21.393  14.226   9.608  0.00  0.00     0.000 C 
ENDROOT
BRANCH   1   2
HETATM    2  C   UNK N   1      20.200  14.993   9.072  0.00  0.00     0.002 C 
BRANCH   2   3
HETATM    3  C   UNK N   1      20.673  16.230   8.339  0.00  0.00     0.036 C 
BRANCH   3   4
HETATM    4  C   UNK N   1      21.172  15.868   6.940  0.00  0.00     0.311 C 
BRANCH   4   5
HETATM    5  N   UNK N   1      21.470  17.047   6.128  0.00  0.00     0.005 N 
HETATM    6  O   UNK N   1      21.249  18.148   6.891  0.00  0.00    -0.065 OA
HETATM    7  C   UNK N   1      20.610  17.134   4.958  0.00  0.00     0.355 C 
HETATM    8  C   UNK N   1      22.866  17.059   5.721  0.00  0.00     0.355 C 
ENDBRANCH   4   5
ENDBRANCH   3   4
ENDBRANCH   2   3
ENDBRANCH   1   2
BRANCH   1   9
HETATM    9  C   UNK N   1      20.887  13.047  10.403  0.00  0.00     0.000 C 
BRANCH   9  10
HETATM   10  C   UNK N   1      21.968  11.998  10.549  0.00  0.00     0.000 C 
BRANCH  10  11
HETATM   11  C   UNK N   1      23.297  12.714  10.483  0.00  0.00     0.000 C 
BRANCH  11  12
HETATM   12  C   UNK N   1      24.303  11.951   9.650  0.00  0.00     0.000 C 
BRANCH  12  13
HETATM   13  C   UNK N   1      23.521  11.194   8.598  0.00  0.00     0.000 C 
BRANCH  13  14
HETATM   14  C   UNK N   1      23.627  11.865   7.248  0.00  0.00    -0.000 C 
BRANCH  14  15
HETATM   15  C   UNK N   1      22.528  11.316   6.363  0.00  0.00    -0.005 C 
HETATM   16  C   UNK N   1      21.206  11.958   6.723  0.00  0.00     0.005 C 
ENDBRANCH  14  15
ENDBRANCH  13  14
ENDBRANCH  12  13
ENDBRANCH  11  12
ENDBRANCH  10  11
ENDBRANCH   9  10
ENDBRANCH   1   9
TORSDOF 11
ENDMDL
MODEL 9
REMARK VINA RESULT:      -3.9     20.822     24.188
REMARK  11 active torsions:
REMARK  status: ('A' for Active; 'I' for Inactive)
REMARK    1  A    between atoms: N_1  and  C_5 
REMARK    2  A    between atoms: C_5  and  C_6 
REMARK    3  A    between atoms: C_6  and  C_7 
REMARK    4  A    between atoms: C_7  and  C_8 
REMARK    5  A    between atoms: C_8  and  C_9 
REMARK    6  A    between atoms: C_9  and  C_10 
REMARK    7  A    between atoms: C_10  and  C_11 
REMARK    8  A    between atoms: C_11  and  C_12 
REMARK    9  A    between atoms: C_12  and  C_13 
REMARK   10  A    between atoms: C_13  and  C_14 
REMARK   11  A    between atoms: C_14  and  C_15 
ROOT
HETATM    1  C   UNK N   1      36.751  13.372  15.039  0.00  0.00     0.000 C 
ENDROOT
BRANCH   1   2
HETATM    2  C   UNK N   1      36.645  13.038  13.564  0.00  0.00     0.002 C 
BRANCH   2   3
HETATM    3  C   UNK N   1      35.559  13.878  12.925  0.00  0.00     0.036 C 
BRANCH   3   4
HETATM    4  C   UNK N   1      36.132  15.200  12.416  0.00  0.00     0.311 C 
BRANCH   4   5
HETATM    5  N   UNK N   1      35.898  15.400  10.986  0.00  0.00     0.005 N 
HETATM    6  O   UNK N   1      36.289  16.661  10.670  0.00  0.00    -0.065 OA
HETATM    7  C   UNK N   1      34.490  15.270  10.642  0.00  0.00     0.355 C 
HETATM    8  C   UNK N   1      36.691  14.474  10.195  0.00  0.00     0.355 C 
ENDBRANCH   4   5
ENDBRANCH   3   4
ENDBRANCH   2   3
ENDBRANCH   1   2
BRANCH   1   9
HETATM    9  C   UNK N   1      35.388  13.209  15.666  0.00  0.00     0.000 C 
BRANCH   9  10
HETATM   10  C   UNK N   1      35.504  13.083  17.170  0.00  0.00     0.000 C 
BRANCH  10  11
HETATM   11  C   UNK N   1      35.066  11.683  17.536  0.00  0.00     0.000 C 
BRANCH  11  12
HETATM   12  C   UNK N   1      36.247  10.756  17.715  0.00  0.00     0.000 C 
BRANCH  12  13
HETATM   13  C   UNK N   1      36.105   9.656  16.685  0.00  0.00     0.000 C 
BRANCH  13  14
HETATM   14  C   UNK N   1      37.289   9.628  15.747  0.00  0.00    -0.000 C 
BRANCH  14  15
HETATM   15  C   UNK N   1      36.764   9.529  14.330  0.00  0.00    -0.005 C 
HETATM   16  C   UNK N   1      35.257   9.387  14.347  0.00  0.00     0.005 C 
ENDBRANCH  14  15
ENDBRANCH  13  14
ENDBRANCH  12  13
ENDBRANCH  11  12
ENDBRANCH  10  11
ENDBRANCH   9  10
ENDBRANCH   1   9
TORSDOF 11
ENDMDL
