MODEL 1
REMARK VINA RESULT:      -6.4      0.000      0.000
REMARK  6 active torsions:
REMARK  status: ('A' for Active; 'I' for Inactive)
REMARK    1  A    between atoms: C_2  and  N_1 
REMARK       I    between atoms: N_1  and  C_13 
REMARK    2  A    between atoms: C_2  and  C_3 
REMARK    3  A    between atoms: C_2  and  C_5 
REMARK    4  A    between atoms: C_3  and  O_12 
REMARK    5  A    between atoms: C_5  and  C_6 
REMARK       I    between atoms: C_13  and  N_15 
REMARK    6  A    between atoms: N_15  and  O_16 
ROOT
HETATM    1  C   UNK N   1      33.426  17.366   8.670  0.00  0.00     0.188 C 
ENDROOT
BRANCH   1   2
HETATM    2  N   UNK N   1      34.158  16.223   9.193  0.00  0.00    -0.327 N 
HETATM    3  C   UNK N   1      35.049  16.288  10.217  0.00  0.00     0.340 C 
HETATM    4  O   UNK N   1      35.275  17.351  10.780  0.00  0.00    -0.245 OA
HETATM    5  N   UNK N   1      35.696  15.166  10.602  0.00  0.00    -0.219 N 
HETATM    6  H   UNK N   1      35.503  14.314  10.147  0.00  0.00     0.199 HD
HETATM    7  H   UNK N   1      33.998  15.345   8.777  0.00  0.00     0.165 HD
BRANCH   5   8
HETATM    8  O   UNK N   1      36.597  15.198  11.594  0.00  0.00    -0.286 OA
HETATM    9  H   UNK N   1      37.174  14.456  11.837  0.00  0.00     0.244 HD
ENDBRANCH   5   8
ENDBRANCH   1   2
BRANCH   1  10
HETATM   10  C   UNK N   1      34.331  18.243   7.822  0.00  0.00     0.163 C 
HETATM   11  O   UNK N   1      34.413  18.070   6.616  0.00  0.00    -0.648 OA
BRANCH  10  12
HETATM   12  O   UNK N   1      35.073  19.208   8.394  0.00  0.00    -0.775 OA
HETATM   13  H   UNK N   1      35.847  19.016   8.887  0.00  0.00     0.167 HD
ENDBRANCH  10  12
ENDBRANCH   1  10
BRANCH   1  14
HETATM   14  C   UNK N   1      32.273  16.796   7.829  0.00  0.00     0.074 C 
BRANCH  14  15
HETATM   15  C   UNK N   1      30.906  17.400   7.992  0.00  0.00    -0.056 A 
HETATM   16  C   UNK N   1      30.649  18.199   9.113  0.00  0.00     0.007 A 
HETATM   17  C   UNK N   1      29.367  18.713   9.334  0.00  0.00     0.001 A 
HETATM   18  C   UNK N   1      28.334  18.426   8.438  0.00  0.00     0.000 A 
HETATM   19  C   UNK N   1      28.583  17.624   7.321  0.00  0.00     0.001 A 
HETATM   20  C   UNK N   1      29.864  17.105   7.105  0.00  0.00     0.007 A 
ENDBRANCH  14  15
ENDBRANCH   1  14
TORSDOF 6
ENDMDL
MODEL 2
REMARK VINA RESULT:      -5.9      5.318      8.687
REMARK  6 active torsions:
REMARK  status: ('A' for Active; 'I' for Inactive)
REMARK    1  A    between atoms: C_2  and  N_1 
REMARK       I    between atoms: N_1  and  C_13 
REMARK    2  A    between atoms: C_2  and  C_3 
REMARK    3  A    between atoms: C_2  and  C_5 
REMARK    4  A    between atoms: C_3  and  O_12 
REMARK    5  A    between atoms: C_5  and  C_6 
REMARK       I    between atoms: C_13  and  N_15 
REMARK    6  A    between atoms: N_15  and  O_16 
ROOT
HETATM    1  C   UNK N   1      36.013  13.887  13.142  0.00  0.00     0.188 C 
ENDROOT
BRANCH   1   2
HETATM    2  N   UNK N   1      36.039  15.172  12.461  0.00  0.00    -0.327 N 
HETATM    3  C   UNK N   1      35.092  15.590  11.579  0.00  0.00     0.340 C 
HETATM    4  O   UNK N   1      34.129  14.883  11.318  0.00  0.00    -0.245 OA
HETATM    5  N   UNK N   1      35.233  16.793  10.980  0.00  0.00    -0.219 N 
HETATM    6  H   UNK N   1      36.008  17.358  11.202  0.00  0.00     0.199 HD
HETATM    7  H   UNK N   1      36.791  15.778  12.651  0.00  0.00     0.165 HD
BRANCH   5   8
HETATM    8  O   UNK N   1      34.330  17.227  10.090  0.00  0.00    -0.286 OA
HETATM    9  H   UNK N   1      34.411  18.050   9.581  0.00  0.00     0.244 HD
ENDBRANCH   5   8
ENDBRANCH   1   2
BRANCH   1  10
HETATM   10  C   UNK N   1      36.747  12.834  12.330  0.00  0.00     0.163 C 
HETATM   11  O   UNK N   1      36.204  11.777  12.046  0.00  0.00    -0.648 OA
BRANCH  10  12
HETATM   12  O   UNK N   1      38.015  13.043  11.931  0.00  0.00    -0.775 OA
HETATM   13  H   UNK N   1      38.516  13.777  12.230  0.00  0.00     0.167 HD
ENDBRANCH  10  12
ENDBRANCH   1  10
BRANCH   1  14
HETATM   14  C   UNK N   1      36.695  14.103  14.502  0.00  0.00     0.074 C 
BRANCH  14  15
HETATM   15  C   UNK N   1      36.267  13.242  15.657  0.00  0.00    -0.056 A 
HETATM   16  C   UNK N   1      36.509  11.864  15.599  0.00  0.00     0.007 A 
HETATM   17  C   UNK N   1      36.054  11.024  16.622  0.00  0.00     0.001 A 
HETATM   18  C   UNK N   1      35.352  11.558  17.706  0.00  0.00     0.000 A 
HETATM   19  C   UNK N   1      35.104  12.931  17.766  0.00  0.00     0.001 A 
HETATM   20  C   UNK N   1      35.551  13.768  16.739  0.00  0.00     0.007 A 
ENDBRANCH  14  15
ENDBRANCH   1  14
TORSDOF 6
ENDMDL
MODEL 3
REMARK VINA RESULT:      -5.8     12.756     14.472
REMARK  6 active torsions:
REMARK  status: ('A' for Active; 'I' for Inactive)
REMARK    1  A    between atoms: C_2  and  N_1 
REMARK       I    between atoms: N_1  and  C_13 
REMARK    2  A    between atoms: C_2  and  C_3 
REMARK    3  A    between atoms: C_2  and  C_5 
REMARK    4  A    between atoms: C_3  and  O_12 
REMARK    5  A    between atoms: C_5  and  C_6 
REMARK       I    between atoms: C_13  and  N_15 
REMARK    6  A    between atoms: N_15  and  O_16 
ROOT
HETATM    1  C   UNK N   1      20.787  18.854   1.818  0.00  0.00     0.188 C 
ENDROOT
BRANCH   1   2
HETATM    2  N   UNK N   1      19.580  18.212   1.321  0.00  0.00    -0.327 N 
HETATM    3  C   UNK N   1      19.573  17.114   0.519  0.00  0.00     0.340 C 
HETATM    4  O   UNK N   1      20.621  16.584   0.178  0.00  0.00    -0.245 OA
HETATM    5  N   UNK N   1      18.391  16.617   0.091  0.00  0.00    -0.219 N 
HETATM    6  H   UNK N   1      17.552  17.046   0.376  0.00  0.00     0.199 HD
HETATM    7  H   UNK N   1      18.713  18.598   1.581  0.00  0.00     0.165 HD
BRANCH   5   8
HETATM    8  O   UNK N   1      18.347  15.549  -0.717  0.00  0.00    -0.286 OA
HETATM    9  H   UNK N   1      17.834  14.744  -0.538  0.00  0.00     0.244 HD
ENDBRANCH   5   8
ENDBRANCH   1   2
BRANCH   1  10
HETATM   10  C   UNK N   1      20.939  20.244   1.225  0.00  0.00     0.163 C 
HETATM   11  O   UNK N   1      21.339  21.173   1.911  0.00  0.00    -0.648 OA
BRANCH  10  12
HETATM   12  O   UNK N   1      20.615  20.476  -0.060  0.00  0.00    -0.775 OA
HETATM   13  H   UNK N   1      20.719  21.320  -0.455  0.00  0.00     0.167 HD
ENDBRANCH  10  12
ENDBRANCH   1  10
BRANCH   1  14
HETATM   14  C   UNK N   1      20.643  18.924   3.346  0.00  0.00     0.074 C 
BRANCH  14  15
HETATM   15  C   UNK N   1      21.344  17.885   4.175  0.00  0.00    -0.056 A 
HETATM   16  C   UNK N   1      21.236  17.948   5.570  0.00  0.00     0.007 A 
HETATM   17  C   UNK N   1      21.938  17.043   6.374  0.00  0.00     0.001 A 
HETATM   18  C   UNK N   1      22.754  16.073   5.786  0.00  0.00     0.000 A 
HETATM   19  C   UNK N   1      22.870  16.009   4.395  0.00  0.00     0.001 A 
HETATM   20  C   UNK N   1      22.174  16.919   3.594  0.00  0.00     0.007 A 
ENDBRANCH  14  15
ENDBRANCH   1  14
TORSDOF 6
ENDMDL
MODEL 4
REMARK VINA RESULT:      -5.7      5.145      7.273
REMARK  6 active torsions:
REMARK  status: ('A' for Active; 'I' for Inactive)
REMARK    1  A    between atoms: C_2  and  N_1 
REMARK       I    between atoms: N_1  and  C_13 
REMARK    2  A    between atoms: C_2  and  C_3 
REMARK    3  A    between atoms: C_2  and  C_5 
REMARK    4  A    between atoms: C_3  and  O_12 
REMARK    5  A    between atoms: C_5  and  C_6 
REMARK       I    between atoms: C_13  and  N_15 
REMARK    6  A    between atoms: N_15  and  O_16 
ROOT
HETATM    1  C   UNK N   1      28.737  18.423   7.418  0.00  0.00     0.188 C 
ENDROOT
BRANCH   1   2
HETATM    2  N   UNK N   1      27.423  18.489   6.799  0.00  0.00    -0.327 N 
HETATM    3  C   UNK N   1      27.057  19.417   5.876  0.00  0.00     0.340 C 
HETATM    4  O   UNK N   1      27.853  20.265   5.496  0.00  0.00    -0.245 OA
HETATM    5  N   UNK N   1      25.797  19.404   5.388  0.00  0.00    -0.219 N 
HETATM    6  H   UNK N   1      25.166  18.713   5.696  0.00  0.00     0.199 HD
HETATM    7  H   UNK N   1      26.754  17.818   7.067  0.00  0.00     0.165 HD
BRANCH   5   8
HETATM    8  O   UNK N   1      25.396  20.317   4.493  0.00  0.00    -0.286 OA
HETATM    9  H   UNK N   1      24.859  20.119   3.709  0.00  0.00     0.244 HD
ENDBRANCH   5   8
ENDBRANCH   1   2
BRANCH   1  10
HETATM   10  C   UNK N   1      28.619  18.413   8.932  0.00  0.00     0.163 C 
HETATM   11  O   UNK N   1      29.578  18.698   9.633  0.00  0.00    -0.648 OA
BRANCH  10  12
HETATM   12  O   UNK N   1      27.460  18.070   9.522  0.00  0.00    -0.775 OA
HETATM   13  H   UNK N   1      27.413  17.393  10.169  0.00  0.00     0.167 HD
ENDBRANCH  10  12
ENDBRANCH   1  10
BRANCH   1  14
HETATM   14  C   UNK N   1      29.391  17.128   6.912  0.00  0.00     0.074 C 
BRANCH  14  15
HETATM   15  C   UNK N   1      30.712  17.226   6.202  0.00  0.00    -0.056 A 
HETATM   16  C   UNK N   1      31.889  17.217   6.959  0.00  0.00     0.007 A 
HETATM   17  C   UNK N   1      33.131  17.385   6.336  0.00  0.00     0.001 A 
HETATM   18  C   UNK N   1      33.200  17.568   4.953  0.00  0.00     0.000 A 
HETATM   19  C   UNK N   1      32.028  17.584   4.193  0.00  0.00     0.001 A 
HETATM   20  C   UNK N   1      30.787  17.424   4.818  0.00  0.00     0.007 A 
ENDBRANCH  14  15
ENDBRANCH   1  14
TORSDOF 6
ENDMDL
MODEL 5
REMARK VINA RESULT:      -5.7      3.302      4.841
REMARK  6 active torsions:
REMARK  status: ('A' for Active; 'I' for Inactive)
REMARK    1  A    between atoms: C_2  and  N_1 
REMARK       I    between atoms: N_1  and  C_13 
REMARK    2  A    between atoms: C_2  and  C_3 
REMARK    3  A    between atoms: C_2  and  C_5 
REMARK    4  A    between atoms: C_3  and  O_12 
REMARK    5  A    between atoms: C_5  and  C_6 
REMARK       I    between atoms: C_13  and  N_15 
REMARK    6  A    between atoms: N_15  and  O_16 
ROOT
HETATM    1  C   UNK N   1      33.447  17.538   8.025  0.00  0.00     0.188 C 
ENDROOT
BRANCH   1   2
HETATM    2  N   UNK N   1      32.416  17.170   8.982  0.00  0.00    -0.327 N 
HETATM    3  C   UNK N   1      31.083  17.343   8.776  0.00  0.00     0.340 C 
HETATM    4  O   UNK N   1      30.671  17.823   7.728  0.00  0.00    -0.245 OA
HETATM    5  N   UNK N   1      30.213  16.992   9.749  0.00  0.00    -0.219 N 
HETATM    6  H   UNK N   1      30.553  16.601  10.586  0.00  0.00     0.199 HD
HETATM    7  H   UNK N   1      32.701  16.769   9.834  0.00  0.00     0.165 HD
BRANCH   5   8
HETATM    8  O   UNK N   1      28.894  17.168   9.588  0.00  0.00    -0.286 OA
HETATM    9  H   UNK N   1      28.485  17.574   8.807  0.00  0.00     0.244 HD
ENDBRANCH   5   8
ENDBRANCH   1   2
BRANCH   1  10
HETATM   10  C   UNK N   1      34.691  18.036   8.740  0.00  0.00     0.163 C 
HETATM   11  O   UNK N   1      35.184  17.392   9.653  0.00  0.00    -0.648 OA
BRANCH  10  12
HETATM   12  O   UNK N   1      35.255  19.206   8.390  0.00  0.00    -0.775 OA
HETATM   13  H   UNK N   1      35.087  19.611   7.561  0.00  0.00     0.167 HD
ENDBRANCH  10  12
ENDBRANCH   1  10
BRANCH   1  14
HETATM   14  C   UNK N   1      33.754  16.273   7.209  0.00  0.00     0.074 C 
BRANCH  14  15
HETATM   15  C   UNK N   1      33.569  16.325   5.718  0.00  0.00    -0.056 A 
HETATM   16  C   UNK N   1      32.892  17.416   5.158  0.00  0.00     0.007 A 
HETATM   17  C   UNK N   1      32.635  17.457   3.784  0.00  0.00     0.001 A 
HETATM   18  C   UNK N   1      33.049  16.404   2.963  0.00  0.00     0.000 A 
HETATM   19  C   UNK N   1      33.720  15.311   3.517  0.00  0.00     0.001 A 
HETATM   20  C   UNK N   1      33.969  15.268   4.892  0.00  0.00     0.007 A 
ENDBRANCH  14  15
ENDBRANCH   1  14
TORSDOF 6
ENDMDL
MODEL 6
REMARK VINA RESULT:      -5.6      6.403      9.376
REMARK  6 active torsions:
REMARK  status: ('A' for Active; 'I' for Inactive)
REMARK    1  A    between atoms: C_2  and  N_1 
REMARK       I    between atoms: N_1  and  C_13 
REMARK    2  A    between atoms: C_2  and  C_3 
REMARK    3  A    between atoms: C_2  and  C_5 
REMARK    4  A    between atoms: C_3  and  O_12 
REMARK    5  A    between atoms: C_5  and  C_6 
REMARK       I    between atoms: C_13  and  N_15 
REMARK    6  A    between atoms: N_15  and  O_16 
ROOT
HETATM    1  C   UNK N   1      35.126  12.435  13.746  0.00  0.00     0.188 C 
ENDROOT
BRANCH   1   2
HETATM    2  N   UNK N   1      35.841  12.871  12.558  0.00  0.00    -0.327 N 
HETATM    3  C   UNK N   1      36.187  14.161  12.303  0.00  0.00     0.340 C 
HETATM    4  O   UNK N   1      35.914  15.048  13.100  0.00  0.00    -0.245 OA
HETATM    5  N   UNK N   1      36.825  14.458  11.149  0.00  0.00    -0.219 N 
HETATM    6  H   UNK N   1      37.046  13.736  10.517  0.00  0.00     0.199 HD
HETATM    7  H   UNK N   1      36.091  12.188  11.895  0.00  0.00     0.165 HD
BRANCH   5   8
HETATM    8  O   UNK N   1      37.162  15.721  10.856  0.00  0.00    -0.286 OA
HETATM    9  H   UNK N   1      36.591  16.492  11.007  0.00  0.00     0.244 HD
ENDBRANCH   5   8
ENDBRANCH   1   2
BRANCH   1  10
HETATM   10  C   UNK N   1      34.308  11.188  13.455  0.00  0.00     0.163 C 
HETATM   11  O   UNK N   1      34.505  10.537  12.440  0.00  0.00    -0.648 OA
BRANCH  10  12
HETATM   12  O   UNK N   1      33.340  10.795  14.302  0.00  0.00    -0.775 OA
HETATM   13  H   UNK N   1      32.675  11.383  14.605  0.00  0.00     0.167 HD
ENDBRANCH  10  12
ENDBRANCH   1  10
BRANCH   1  14
HETATM   14  C   UNK N   1      36.192  12.151  14.816  0.00  0.00     0.074 C 
BRANCH  14  15
HETATM   15  C   UNK N   1      35.796  12.256  16.262  0.00  0.00    -0.056 A 
HETATM   16  C   UNK N   1      35.493  13.517  16.790  0.00  0.00     0.007 A 
HETATM   17  C   UNK N   1      35.196  13.660  18.150  0.00  0.00     0.001 A 
HETATM   18  C   UNK N   1      35.204  12.542  18.989  0.00  0.00     0.000 A 
HETATM   19  C   UNK N   1      35.511  11.282  18.468  0.00  0.00     0.001 A 
HETATM   20  C   UNK N   1      35.816  11.143  17.110  0.00  0.00     0.007 A 
ENDBRANCH  14  15
ENDBRANCH   1  14
TORSDOF 6
ENDMDL
MODEL 7
REMARK VINA RESULT:      -5.5      2.851      3.729
REMARK  6 active torsions:
REMARK  status: ('A' for Active; 'I' for Inactive)
REMARK    1  A    between atoms: C_2  and  N_1 
REMARK       I    between atoms: N_1  and  C_13 
REMARK    2  A    between atoms: C_2  and  C_3 
REMARK    3  A    between atoms: C_2  and  C_5 
REMARK    4  A    between atoms: C_3  and  O_12 
REMARK    5  A    between atoms: C_5  and  C_6 
REMARK       I    between atoms: C_13  and  N_15 
REMARK    6  A    between atoms: N_15  and  O_16 
ROOT
HETATM    1  C   UNK N   1      33.657  17.291   7.815  0.00  0.00     0.188 C 
ENDROOT
BRANCH   1   2
HETATM    2  N   UNK N   1      33.832  15.855   7.964  0.00  0.00    -0.327 N 
HETATM    3  C   UNK N   1      32.928  15.033   8.559  0.00  0.00     0.340 C 
HETATM    4  O   UNK N   1      31.878  15.476   9.002  0.00  0.00    -0.245 OA
HETATM    5  N   UNK N   1      33.208  13.715   8.671  0.00  0.00    -0.219 N 
HETATM    6  H   UNK N   1      34.053  13.366   8.306  0.00  0.00     0.199 HD
HETATM    7  H   UNK N   1      34.658  15.453   7.611  0.00  0.00     0.165 HD
BRANCH   5   8
HETATM    8  O   UNK N   1      32.350  12.878   9.271  0.00  0.00    -0.286 OA
HETATM    9  H   UNK N   1      32.593  12.244   9.964  0.00  0.00     0.244 HD
ENDBRANCH   5   8
ENDBRANCH   1   2
BRANCH   1  10
HETATM   10  C   UNK N   1      34.681  18.047   8.645  0.00  0.00     0.163 C 
HETATM   11  O   UNK N   1      35.045  19.166   8.317  0.00  0.00    -0.648 OA
BRANCH  10  12
HETATM   12  O   UNK N   1      35.216  17.483   9.743  0.00  0.00    -0.775 OA
HETATM   13  H   UNK N   1      35.025  17.796  10.607  0.00  0.00     0.167 HD
ENDBRANCH  10  12
ENDBRANCH   1  10
BRANCH   1  14
HETATM   14  C   UNK N   1      33.834  17.597   6.319  0.00  0.00     0.074 C 
BRANCH  14  15
HETATM   15  C   UNK N   1      32.710  17.251   5.384  0.00  0.00    -0.056 A 
HETATM   16  C   UNK N   1      32.983  17.123   4.017  0.00  0.00     0.007 A 
HETATM   17  C   UNK N   1      31.947  16.878   3.109  0.00  0.00     0.001 A 
HETATM   18  C   UNK N   1      30.630  16.764   3.565  0.00  0.00     0.000 A 
HETATM   19  C   UNK N   1      30.351  16.897   4.928  0.00  0.00     0.001 A 
HETATM   20  C   UNK N   1      31.387  17.149   5.832  0.00  0.00     0.007 A 
ENDBRANCH  14  15
ENDBRANCH   1  14
TORSDOF 6
ENDMDL
MODEL 8
REMARK VINA RESULT:      -5.4      6.940     10.092
REMARK  6 active torsions:
REMARK  status: ('A' for Active; 'I' for Inactive)
REMARK    1  A    between atoms: C_2  and  N_1 
REMARK       I    between atoms: N_1  and  C_13 
REMARK    2  A    between atoms: C_2  and  C_3 
REMARK    3  A    between atoms: C_2  and  C_5 
REMARK    4  A    between atoms: C_3  and  O_12 
REMARK    5  A    between atoms: C_5  and  C_6 
REMARK       I    between atoms: C_13  and  N_15 
REMARK    6  A    between atoms: N_15  and  O_16 
ROOT
HETATM    1  C   UNK N   1      35.589  12.520  14.741  0.00  0.00     0.188 C 
ENDROOT
BRANCH   1   2
HETATM    2  N   UNK N   1      35.076  13.243  13.589  0.00  0.00    -0.327 N 
HETATM    3  C   UNK N   1      34.807  12.671  12.385  0.00  0.00     0.340 C 
HETATM    4  O   UNK N   1      34.975  11.472  12.213  0.00  0.00    -0.245 OA
HETATM    5  N   UNK N   1      34.361  13.446  11.371  0.00  0.00    -0.219 N 
HETATM    6  H   UNK N   1      34.223  14.409  11.521  0.00  0.00     0.199 HD
HETATM    7  H   UNK N   1      34.915  14.209  13.686  0.00  0.00     0.165 HD
BRANCH   5   8
HETATM    8  O   UNK N   1      34.106  12.919  10.165  0.00  0.00    -0.286 OA
HETATM    9  H   UNK N   1      34.490  13.238   9.333  0.00  0.00     0.244 HD
ENDBRANCH   5   8
ENDBRANCH   1   2
BRANCH   1  10
HETATM   10  C   UNK N   1      37.091  12.710  14.871  0.00  0.00     0.163 C 
HETATM   11  O   UNK N   1      37.856  11.781  14.662  0.00  0.00    -0.648 OA
BRANCH  10  12
HETATM   12  O   UNK N   1      37.597  13.901  15.240  0.00  0.00    -0.775 OA
HETATM   13  H   UNK N   1      37.519  14.664  14.700  0.00  0.00     0.167 HD
ENDBRANCH  10  12
ENDBRANCH   1  10
BRANCH   1  14
HETATM   14  C   UNK N   1      34.859  13.086  15.969  0.00  0.00     0.074 C 
BRANCH  14  15
HETATM   15  C   UNK N   1      35.123  12.456  17.308  0.00  0.00    -0.056 A 
HETATM   16  C   UNK N   1      35.229  11.062  17.390  0.00  0.00     0.007 A 
HETATM   17  C   UNK N   1      35.397  10.439  18.632  0.00  0.00     0.001 A 
HETATM   18  C   UNK N   1      35.456  11.208  19.798  0.00  0.00     0.000 A 
HETATM   19  C   UNK N   1      35.345  12.598  19.722  0.00  0.00     0.001 A 
HETATM   20  C   UNK N   1      35.169  13.219  18.481  0.00  0.00     0.007 A 
ENDBRANCH  14  15
ENDBRANCH   1  14
TORSDOF 6
ENDMDL
MODEL 9
REMARK VINA RESULT:      -5.4     14.992     16.690
REMARK  6 active torsions:
REMARK  status: ('A' for Active; 'I' for Inactive)
REMARK    1  A    between atoms: C_2  and  N_1 
REMARK       I    between atoms: N_1  and  C_13 
REMARK    2  A    between atoms: C_2  and  C_3 
REMARK    3  A    between atoms: C_2  and  C_5 
REMARK    4  A    between atoms: C_3  and  O_12 
REMARK    5  A    between atoms: C_5  and  C_6 
REMARK       I    between atoms: C_13  and  N_15 
REMARK    6  A    between atoms: N_15  and  O_16 
ROOT
HETATM    1  C   UNK N   1      27.221  24.710  -4.596  0.00  0.00     0.188 C 
ENDROOT
BRANCH   1   2
HETATM    2  N   UNK N   1      27.661  23.948  -3.437  0.00  0.00    -0.327 N 
HETATM    3  C   UNK N   1      28.955  23.850  -3.033  0.00  0.00     0.340 C 
HETATM    4  O   UNK N   1      29.844  24.433  -3.639  0.00  0.00    -0.245 OA
HETATM    5  N   UNK N   1      29.254  23.088  -1.957  0.00  0.00    -0.219 N 
HETATM    6  H   UNK N   1      28.532  22.628  -1.472  0.00  0.00     0.199 HD
HETATM    7  H   UNK N   1      26.977  23.473  -2.913  0.00  0.00     0.165 HD
BRANCH   5   8
HETATM    8  O   UNK N   1      30.522  22.952  -1.543  0.00  0.00    -0.286 OA
HETATM    9  H   UNK N   1      31.150  22.305  -1.901  0.00  0.00     0.244 HD
ENDBRANCH   5   8
ENDBRANCH   1   2
BRANCH   1  10
HETATM   10  C   UNK N   1      26.586  23.797  -5.630  0.00  0.00     0.163 C 
HETATM   11  O   UNK N   1      27.267  23.005  -6.264  0.00  0.00    -0.648 OA
BRANCH  10  12
HETATM   12  O   UNK N   1      25.265  23.864  -5.878  0.00  0.00    -0.775 OA
HETATM   13  H   UNK N   1      24.857  24.646  -6.196  0.00  0.00     0.167 HD
ENDBRANCH  10  12
ENDBRANCH   1  10
BRANCH   1  14
HETATM   14  C   UNK N   1      26.205  25.740  -4.078  0.00  0.00     0.074 C 
BRANCH  14  15
HETATM   15  C   UNK N   1      26.457  27.194  -4.364  0.00  0.00    -0.056 A 
HETATM   16  C   UNK N   1      27.152  27.544  -5.528  0.00  0.00     0.007 A 
HETATM   17  C   UNK N   1      27.470  28.882  -5.785  0.00  0.00     0.001 A 
HETATM   18  C   UNK N   1      27.098  29.876  -4.876  0.00  0.00     0.000 A 
HETATM   19  C   UNK N   1      26.410  29.532  -3.710  0.00  0.00     0.001 A 
HETATM   20  C   UNK N   1      26.099  28.193  -3.451  0.00  0.00     0.007 A 
ENDBRANCH  14  15
ENDBRANCH   1  14
TORSDOF 6
ENDMDL
