MODEL 1
REMARK VINA RESULT:      -6.4      0.000      0.000
REMARK  2 active torsions:
REMARK  status: ('A' for Active; 'I' for Inactive)
REMARK    1  A    between atoms: N_13  and  C_15 
REMARK    2  A    between atoms: C_17  and  O_18 
ROOT
HETATM    1  C   UNK N   1      32.186  15.279   8.864  0.00  0.00     0.016 A 
HETATM    2  C   UNK N   1      33.367  15.869   9.302  0.00  0.00     0.023 A 
HETATM    3  C   UNK N   1      33.723  17.145   8.930  0.00  0.00     0.047 A 
HETATM    4  C   UNK N   1      35.393  16.480  10.235  0.00  0.00     0.273 A 
HETATM    5  O   UNK N   1      36.445  16.516  10.850  0.00  0.00    -0.266 OA
HETATM    6  C   UNK N   1      34.417  15.359  10.164  0.00  0.00     0.114 A 
HETATM    7  N   UNK N   1      34.958  17.524   9.497  0.00  0.00    -0.321 N 
HETATM    8  C   UNK N   1      31.352  16.031   8.020  0.00  0.00     0.001 A 
HETATM    9  C   UNK N   1      31.715  17.342   7.638  0.00  0.00     0.002 A 
HETATM   10  C   UNK N   1      32.917  17.913   8.097  0.00  0.00     0.030 A 
HETATM   11  N   UNK N   1      34.386  14.173  10.688  0.00  0.00    -0.351 N 
ATOM     12  HN  UNK N   1      33.567  13.614  10.453  1.00  0.00     0.166 HD
HETATM   13  H   UNK N   1      35.416  18.386   9.377  0.00  0.00     0.169 HD
ENDROOT
BRANCH  11  14
HETATM   14  C   UNK N   1      35.329  13.538  11.544  0.00  0.00     0.032 A 
HETATM   15  C   UNK N   1      36.274  12.619  11.078  0.00  0.00     0.032 A 
HETATM   16  C   UNK N   1      37.180  12.019  11.949  0.00  0.00     0.039 A 
HETATM   17  C   UNK N   1      37.148  12.335  13.307  0.00  0.00     0.065 A 
HETATM   18  C   UNK N   1      36.210  13.252  13.789  0.00  0.00     0.039 A 
HETATM   19  C   UNK N   1      35.304  13.850  12.908  0.00  0.00     0.032 A 
BRANCH  17  20
HETATM   20  O   UNK N   1      38.020  11.758  14.147  0.00  0.00    -0.361 OA
HETATM   21  H   UNK N   1      37.951  11.908  15.070  0.00  0.00     0.217 HD
ENDBRANCH  17  20
ENDBRANCH  11  14
TORSDOF 2
ENDMDL
MODEL 2
REMARK VINA RESULT:      -6.3     11.906     15.003
REMARK  2 active torsions:
REMARK  status: ('A' for Active; 'I' for Inactive)
REMARK    1  A    between atoms: N_13  and  C_15 
REMARK    2  A    between atoms: C_17  and  O_18 
ROOT
HETATM    1  C   UNK N   1      24.179  13.022   9.295  0.00  0.00     0.016 A 
HETATM    2  C   UNK N   1      22.824  13.292   9.461  0.00  0.00     0.023 A 
HETATM    3  C   UNK N   1      22.135  12.886  10.581  0.00  0.00     0.047 A 
HETATM    4  C   UNK N   1      20.604  13.931   9.357  0.00  0.00     0.273 A 
HETATM    5  O   UNK N   1      19.523  14.389   9.028  0.00  0.00    -0.266 OA
HETATM    6  C   UNK N   1      21.886  13.990   8.602  0.00  0.00     0.114 A 
HETATM    7  N   UNK N   1      20.780  13.274  10.523  0.00  0.00    -0.321 N 
HETATM    8  C   UNK N   1      24.835  12.314  10.316  0.00  0.00     0.001 A 
HETATM    9  C   UNK N   1      24.129  11.896  11.466  0.00  0.00     0.002 A 
HETATM   10  C   UNK N   1      22.759  12.184  11.606  0.00  0.00     0.030 A 
HETATM   11  N   UNK N   1      22.221  14.501   7.459  0.00  0.00    -0.351 N 
ATOM     12  HN  UNK N   1      23.199  14.380   7.198  1.00  0.00     0.166 HD
HETATM   13  H   UNK N   1      20.092  13.098  11.204  0.00  0.00     0.169 HD
ENDROOT
BRANCH  11  14
HETATM   14  C   UNK N   1      21.423  15.206   6.515  0.00  0.00     0.032 A 
HETATM   15  C   UNK N   1      21.489  16.594   6.357  0.00  0.00     0.032 A 
HETATM   16  C   UNK N   1      20.690  17.246   5.420  0.00  0.00     0.039 A 
HETATM   17  C   UNK N   1      19.812  16.510   4.626  0.00  0.00     0.065 A 
HETATM   18  C   UNK N   1      19.734  15.122   4.772  0.00  0.00     0.039 A 
HETATM   19  C   UNK N   1      20.539  14.475   5.714  0.00  0.00     0.032 A 
BRANCH  17  20
HETATM   20  O   UNK N   1      19.042  17.137   3.724  0.00  0.00    -0.361 OA
HETATM   21  H   UNK N   1      18.776  16.690   2.944  0.00  0.00     0.217 HD
ENDBRANCH  17  20
ENDBRANCH  11  14
TORSDOF 2
ENDMDL
MODEL 3
REMARK VINA RESULT:      -6.3      6.890     11.181
REMARK  2 active torsions:
REMARK  status: ('A' for Active; 'I' for Inactive)
REMARK    1  A    between atoms: N_13  and  C_15 
REMARK    2  A    between atoms: C_17  and  O_18 
ROOT
HETATM    1  C   UNK N   1      30.197  16.315   5.999  0.00  0.00     0.016 A 
HETATM    2  C   UNK N   1      29.513  17.355   6.620  0.00  0.00     0.023 A 
HETATM    3  C   UNK N   1      29.828  17.774   7.892  0.00  0.00     0.047 A 
HETATM    4  C   UNK N   1      28.150  19.099   7.290  0.00  0.00     0.273 A 
HETATM    5  O   UNK N   1      27.308  19.978   7.359  0.00  0.00    -0.266 OA
HETATM    6  C   UNK N   1      28.415  18.178   6.150  0.00  0.00     0.114 A 
HETATM    7  N   UNK N   1      28.999  18.838   8.306  0.00  0.00    -0.321 N 
HETATM    8  C   UNK N   1      31.234  15.694   6.715  0.00  0.00     0.001 A 
HETATM    9  C   UNK N   1      31.559  16.123   8.021  0.00  0.00     0.002 A 
HETATM   10  C   UNK N   1      30.849  17.178   8.624  0.00  0.00     0.030 A 
HETATM   11  N   UNK N   1      27.878  18.039   4.979  0.00  0.00    -0.351 N 
ATOM     12  HN  UNK N   1      28.281  17.303   4.400  1.00  0.00     0.166 HD
HETATM   13  H   UNK N   1      29.034  19.303   9.173  0.00  0.00     0.169 HD
ENDROOT
BRANCH  11  14
HETATM   14  C   UNK N   1      26.807  18.761   4.382  0.00  0.00     0.032 A 
HETATM   15  C   UNK N   1      25.472  18.361   4.489  0.00  0.00     0.032 A 
HETATM   16  C   UNK N   1      24.454  19.098   3.889  0.00  0.00     0.039 A 
HETATM   17  C   UNK N   1      24.763  20.251   3.170  0.00  0.00     0.065 A 
HETATM   18  C   UNK N   1      26.093  20.665   3.053  0.00  0.00     0.039 A 
HETATM   19  C   UNK N   1      27.110  19.921   3.658  0.00  0.00     0.032 A 
BRANCH  17  20
HETATM   20  O   UNK N   1      23.783  20.961   2.592  0.00  0.00    -0.361 OA
HETATM   21  H   UNK N   1      23.217  21.492   3.117  0.00  0.00     0.217 HD
ENDBRANCH  17  20
ENDBRANCH  11  14
TORSDOF 2
ENDMDL
MODEL 4
REMARK VINA RESULT:      -6.1      7.489     11.772
REMARK  2 active torsions:
REMARK  status: ('A' for Active; 'I' for Inactive)
REMARK    1  A    between atoms: N_13  and  C_15 
REMARK    2  A    between atoms: C_17  and  O_18 
ROOT
HETATM    1  C   UNK N   1      28.431  18.696   8.531  0.00  0.00     0.016 A 
HETATM    2  C   UNK N   1      28.580  18.269   7.215  0.00  0.00     0.023 A 
HETATM    3  C   UNK N   1      29.637  17.479   6.823  0.00  0.00     0.047 A 
HETATM    4  C   UNK N   1      28.468  17.778   4.958  0.00  0.00     0.273 A 
HETATM    5  O   UNK N   1      28.150  17.693   3.784  0.00  0.00    -0.266 OA
HETATM    6  C   UNK N   1      27.761  18.513   6.043  0.00  0.00     0.114 A 
HETATM    7  N   UNK N   1      29.573  17.177   5.447  0.00  0.00    -0.321 N 
HETATM    8  C   UNK N   1      29.402  18.294   9.464  0.00  0.00     0.001 A 
HETATM    9  C   UNK N   1      30.487  17.483   9.063  0.00  0.00     0.002 A 
HETATM   10  C   UNK N   1      30.612  17.066   7.724  0.00  0.00     0.030 A 
HETATM   11  N   UNK N   1      26.680  19.228   6.073  0.00  0.00    -0.351 N 
ATOM     12  HN  UNK N   1      26.439  19.614   6.985  1.00  0.00     0.166 HD
HETATM   13  H   UNK N   1      30.214  16.629   4.939  0.00  0.00     0.169 HD
ENDROOT
BRANCH  11  14
HETATM   14  C   UNK N   1      25.781  19.553   5.019  0.00  0.00     0.032 A 
HETATM   15  C   UNK N   1      24.540  18.928   4.864  0.00  0.00     0.032 A 
HETATM   16  C   UNK N   1      23.689  19.276   3.818  0.00  0.00     0.039 A 
HETATM   17  C   UNK N   1      24.074  20.261   2.910  0.00  0.00     0.065 A 
HETATM   18  C   UNK N   1      25.311  20.896   3.051  0.00  0.00     0.039 A 
HETATM   19  C   UNK N   1      26.160  20.541   4.103  0.00  0.00     0.032 A 
BRANCH  17  20
HETATM   20  O   UNK N   1      23.255  20.597   1.902  0.00  0.00    -0.361 OA
HETATM   21  H   UNK N   1      23.182  21.493   1.637  0.00  0.00     0.217 HD
ENDBRANCH  17  20
ENDBRANCH  11  14
TORSDOF 2
ENDMDL
MODEL 5
REMARK VINA RESULT:      -6.1      2.826      6.742
REMARK  2 active torsions:
REMARK  status: ('A' for Active; 'I' for Inactive)
REMARK    1  A    between atoms: N_13  and  C_15 
REMARK    2  A    between atoms: C_17  and  O_18 
ROOT
HETATM    1  C   UNK N   1      34.566  13.627  10.424  0.00  0.00     0.016 A 
HETATM    2  C   UNK N   1      34.669  14.995  10.194  0.00  0.00     0.023 A 
HETATM    3  C   UNK N   1      35.344  15.828  11.056  0.00  0.00     0.047 A 
HETATM    4  C   UNK N   1      34.612  17.187   9.460  0.00  0.00     0.273 A 
HETATM    5  O   UNK N   1      34.417  18.218   8.839  0.00  0.00    -0.266 OA
HETATM    6  C   UNK N   1      34.155  15.814   9.112  0.00  0.00     0.114 A 
HETATM    7  N   UNK N   1      35.312  17.167  10.613  0.00  0.00    -0.321 N 
HETATM    8  C   UNK N   1      35.178  13.110  11.578  0.00  0.00     0.001 A 
HETATM    9  C   UNK N   1      35.871  13.963  12.465  0.00  0.00     0.002 A 
HETATM   10  C   UNK N   1      35.959  15.344  12.205  0.00  0.00     0.030 A 
HETATM   11  N   UNK N   1      33.466  15.330   8.126  0.00  0.00    -0.351 N 
ATOM     12  HN  UNK N   1      33.307  14.323   8.159  1.00  0.00     0.166 HD
HETATM   13  H   UNK N   1      35.724  17.941  11.061  0.00  0.00     0.169 HD
ENDROOT
BRANCH  11  14
HETATM   14  C   UNK N   1      32.900  15.998   7.004  0.00  0.00     0.032 A 
HETATM   15  C   UNK N   1      33.655  16.377   5.891  0.00  0.00     0.032 A 
HETATM   16  C   UNK N   1      33.062  17.029   4.812  0.00  0.00     0.039 A 
HETATM   17  C   UNK N   1      31.696  17.310   4.838  0.00  0.00     0.065 A 
HETATM   18  C   UNK N   1      30.927  16.936   5.944  0.00  0.00     0.039 A 
HETATM   19  C   UNK N   1      31.530  16.283   7.022  0.00  0.00     0.032 A 
BRANCH  17  20
HETATM   20  O   UNK N   1      31.124  17.938   3.800  0.00  0.00    -0.361 OA
HETATM   21  H   UNK N   1      30.401  18.516   3.943  0.00  0.00     0.217 HD
ENDBRANCH  17  20
ENDBRANCH  11  14
TORSDOF 2
ENDMDL
MODEL 6
REMARK VINA RESULT:      -6.0      2.467      6.355
REMARK  2 active torsions:
REMARK  status: ('A' for Active; 'I' for Inactive)
REMARK    1  A    between atoms: N_13  and  C_15 
REMARK    2  A    between atoms: C_17  and  O_18 
ROOT
HETATM    1  C   UNK N   1      34.107  11.087  13.824  0.00  0.00     0.016 A 
HETATM    2  C   UNK N   1      34.843  12.267  13.768  0.00  0.00     0.023 A 
HETATM    3  C   UNK N   1      35.533  12.746  14.858  0.00  0.00     0.047 A 
HETATM    4  C   UNK N   1      35.932  14.245  13.267  0.00  0.00     0.273 A 
HETATM    5  O   UNK N   1      36.378  15.240  12.723  0.00  0.00    -0.266 OA
HETATM    6  C   UNK N   1      35.054  13.198  12.675  0.00  0.00     0.114 A 
HETATM    7  N   UNK N   1      36.199  13.952  14.558  0.00  0.00    -0.321 N 
HETATM    8  C   UNK N   1      34.087  10.386  15.042  0.00  0.00     0.001 A 
HETATM    9  C   UNK N   1      34.795  10.877  16.162  0.00  0.00     0.002 A 
HETATM   10  C   UNK N   1      35.531  12.074  16.074  0.00  0.00     0.030 A 
HETATM   11  N   UNK N   1      34.536  13.036  11.498  0.00  0.00    -0.351 N 
ATOM     12  HN  UNK N   1      33.962  12.200  11.386  1.00  0.00     0.166 HD
HETATM   13  H   UNK N   1      36.755  14.482  15.174  0.00  0.00     0.169 HD
ENDROOT
BRANCH  11  14
HETATM   14  C   UNK N   1      34.651  13.852  10.338  0.00  0.00     0.032 A 
HETATM   15  C   UNK N   1      35.628  13.645   9.362  0.00  0.00     0.032 A 
HETATM   16  C   UNK N   1      35.706  14.468   8.241  0.00  0.00     0.039 A 
HETATM   17  C   UNK N   1      34.798  15.515   8.085  0.00  0.00     0.065 A 
HETATM   18  C   UNK N   1      33.814  15.736   9.053  0.00  0.00     0.039 A 
HETATM   19  C   UNK N   1      33.743  14.906  10.175  0.00  0.00     0.032 A 
BRANCH  17  20
HETATM   20  O   UNK N   1      34.872  16.308   7.006  0.00  0.00    -0.361 OA
HETATM   21  H   UNK N   1      34.588  17.199   7.059  0.00  0.00     0.217 HD
ENDBRANCH  17  20
ENDBRANCH  11  14
TORSDOF 2
ENDMDL
MODEL 7
REMARK VINA RESULT:      -5.9      2.481      3.345
REMARK  2 active torsions:
REMARK  status: ('A' for Active; 'I' for Inactive)
REMARK    1  A    between atoms: N_13  and  C_15 
REMARK    2  A    between atoms: C_17  and  O_18 
ROOT
HETATM    1  C   UNK N   1      33.798  14.445  10.090  0.00  0.00     0.016 A 
HETATM    2  C   UNK N   1      34.703  14.549  11.142  0.00  0.00     0.023 A 
HETATM    3  C   UNK N   1      35.448  15.687  11.349  0.00  0.00     0.047 A 
HETATM    4  C   UNK N   1      36.083  14.324  12.984  0.00  0.00     0.273 A 
HETATM    5  O   UNK N   1      36.679  13.923  13.969  0.00  0.00    -0.266 OA
HETATM    6  C   UNK N   1      35.063  13.599  12.178  0.00  0.00     0.114 A 
HETATM    7  N   UNK N   1      36.291  15.555  12.472  0.00  0.00    -0.321 N 
HETATM    8  C   UNK N   1      33.662  15.549   9.232  0.00  0.00     0.001 A 
HETATM    9  C   UNK N   1      34.425  16.719   9.444  0.00  0.00     0.002 A 
HETATM   10  C   UNK N   1      35.333  16.795  10.517  0.00  0.00     0.030 A 
HETATM   11  N   UNK N   1      34.537  12.417  12.266  0.00  0.00    -0.351 N 
ATOM     12  HN  UNK N   1      33.844  12.194  11.551  1.00  0.00     0.166 HD
HETATM   13  H   UNK N   1      36.915  16.234  12.818  0.00  0.00     0.169 HD
ENDROOT
BRANCH  11  14
HETATM   14  C   UNK N   1      34.784  11.385  13.215  0.00  0.00     0.032 A 
HETATM   15  C   UNK N   1      35.711  10.363  12.995  0.00  0.00     0.032 A 
HETATM   16  C   UNK N   1      35.923   9.372  13.950  0.00  0.00     0.039 A 
HETATM   17  C   UNK N   1      35.202   9.394  15.144  0.00  0.00     0.065 A 
HETATM   18  C   UNK N   1      34.271  10.409  15.378  0.00  0.00     0.039 A 
HETATM   19  C   UNK N   1      34.064  11.401  14.415  0.00  0.00     0.032 A 
BRANCH  17  20
HETATM   20  O   UNK N   1      35.405   8.439  16.064  0.00  0.00    -0.361 OA
HETATM   21  H   UNK N   1      35.990   7.729  15.882  0.00  0.00     0.217 HD
ENDBRANCH  17  20
ENDBRANCH  11  14
TORSDOF 2
ENDMDL
MODEL 8
REMARK VINA RESULT:      -5.9     13.209     14.958
REMARK  2 active torsions:
REMARK  status: ('A' for Active; 'I' for Inactive)
REMARK    1  A    between atoms: N_13  and  C_15 
REMARK    2  A    between atoms: C_17  and  O_18 
ROOT
HETATM    1  C   UNK N   1      21.523  18.512   4.850  0.00  0.00     0.016 A 
HETATM    2  C   UNK N   1      20.725  17.373   4.825  0.00  0.00     0.023 A 
HETATM    3  C   UNK N   1      19.827  17.138   3.808  0.00  0.00     0.047 A 
HETATM    4  C   UNK N   1      19.595  15.382   5.148  0.00  0.00     0.273 A 
HETATM    5  O   UNK N   1      19.176  14.319   5.576  0.00  0.00    -0.266 OA
HETATM    6  C   UNK N   1      20.634  16.261   5.751  0.00  0.00     0.114 A 
HETATM    7  N   UNK N   1      19.135  15.924   4.001  0.00  0.00    -0.321 N 
HETATM    8  C   UNK N   1      21.388  19.430   3.795  0.00  0.00     0.001 A 
HETATM    9  C   UNK N   1      20.467  19.190   2.750  0.00  0.00     0.002 A 
HETATM   10  C   UNK N   1      19.672  18.028   2.752  0.00  0.00     0.030 A 
HETATM   11  N   UNK N   1      21.354  16.176   6.826  0.00  0.00    -0.351 N 
ATOM     12  HN  UNK N   1      21.998  16.952   6.981  1.00  0.00     0.166 HD
HETATM   13  H   UNK N   1      18.446  15.544   3.409  0.00  0.00     0.169 HD
ENDROOT
BRANCH  11  14
HETATM   14  C   UNK N   1      21.378  15.159   7.821  0.00  0.00     0.032 A 
HETATM   15  C   UNK N   1      20.439  15.090   8.854  0.00  0.00     0.032 A 
HETATM   16  C   UNK N   1      20.499  14.077   9.808  0.00  0.00     0.039 A 
HETATM   17  C   UNK N   1      21.507  13.117   9.739  0.00  0.00     0.065 A 
HETATM   18  C   UNK N   1      22.454  13.173   8.712  0.00  0.00     0.039 A 
HETATM   19  C   UNK N   1      22.388  14.192   7.758  0.00  0.00     0.032 A 
BRANCH  17  20
HETATM   20  O   UNK N   1      21.565  12.142  10.658  0.00  0.00    -0.361 OA
HETATM   21  H   UNK N   1      20.870  11.517  10.723  0.00  0.00     0.217 HD
ENDBRANCH  17  20
ENDBRANCH  11  14
TORSDOF 2
ENDMDL
MODEL 9
REMARK VINA RESULT:      -5.9      2.226      6.319
REMARK  2 active torsions:
REMARK  status: ('A' for Active; 'I' for Inactive)
REMARK    1  A    between atoms: N_13  and  C_15 
REMARK    2  A    between atoms: C_17  and  O_18 
ROOT
HETATM    1  C   UNK N   1      34.707  12.639  11.792  0.00  0.00     0.016 A 
HETATM    2  C   UNK N   1      35.180  13.943  11.678  0.00  0.00     0.023 A 
HETATM    3  C   UNK N   1      35.943  14.528  12.663  0.00  0.00     0.047 A 
HETATM    4  C   UNK N   1      35.765  16.107  11.110  0.00  0.00     0.273 A 
HETATM    5  O   UNK N   1      35.910  17.182  10.553  0.00  0.00    -0.266 OA
HETATM    6  C   UNK N   1      35.017  14.918  10.617  0.00  0.00     0.114 A 
HETATM    7  N   UNK N   1      36.302  15.849  12.321  0.00  0.00    -0.321 N 
HETATM    8  C   UNK N   1      35.033  11.925  12.958  0.00  0.00     0.001 A 
HETATM    9  C   UNK N   1      35.816  12.524  13.970  0.00  0.00     0.002 A 
HETATM   10  C   UNK N   1      36.280  13.845  13.825  0.00  0.00     0.030 A 
HETATM   11  N   UNK N   1      34.345  14.679   9.535  0.00  0.00    -0.351 N 
ATOM     12  HN  UNK N   1      33.932  13.748   9.475  1.00  0.00     0.166 HD
HETATM   13  H   UNK N   1      36.844  16.466  12.864  0.00  0.00     0.169 HD
ENDROOT
BRANCH  11  14
HETATM   14  C   UNK N   1      34.098  15.524   8.417  0.00  0.00     0.032 A 
HETATM   15  C   UNK N   1      33.173  16.572   8.451  0.00  0.00     0.032 A 
HETATM   16  C   UNK N   1      32.961  17.376   7.334  0.00  0.00     0.039 A 
HETATM   17  C   UNK N   1      33.679  17.138   6.162  0.00  0.00     0.065 A 
HETATM   18  C   UNK N   1      34.607  16.095   6.112  0.00  0.00     0.039 A 
HETATM   19  C   UNK N   1      34.814  15.292   7.237  0.00  0.00     0.032 A 
BRANCH  17  20
HETATM   20  O   UNK N   1      33.475  17.913   5.086  0.00  0.00    -0.361 OA
HETATM   21  H   UNK N   1      34.088  17.900   4.377  0.00  0.00     0.217 HD
ENDBRANCH  17  20
ENDBRANCH  11  14
TORSDOF 2
ENDMDL
