MODEL 1
REMARK VINA RESULT:      -6.8      0.000      0.000
REMARK  1 active torsions:
REMARK  status: ('A' for Active; 'I' for Inactive)
REMARK    1  A    between atoms: C_6  and  C_7 
ROOT
HETATM    1  N   UNK N   1      35.106  16.844  10.813  0.00  0.00    -0.299 N 
HETATM    2  N   UNK N   1      34.514  17.500   9.814  0.00  0.00    -0.299 N 
ATOM      3  HN  UNK N   1      34.128  18.444   9.850  1.00  0.00     0.187 HD
HETATM    4  C   UNK N   1      34.521  16.677   8.751  0.00  0.00     0.067 A 
HETATM    5  C   UNK N   1      35.093  15.514   9.047  0.00  0.00     0.004 A 
HETATM    6  C   UNK N   1      35.478  15.615  10.357  0.00  0.00     0.067 A 
HETATM    7  C   UNK N   1      35.154  14.560   7.886  0.00  0.00     0.083 A 
HETATM    8  C   UNK N   1      34.506  15.467   6.850  0.00  0.00    -0.041 A 
HETATM    9  C   UNK N   1      34.142  16.698   7.380  0.00  0.00    -0.001 A 
HETATM   10  C   UNK N   1      33.562  17.694   6.601  0.00  0.00     0.014 A 
HETATM   11  C   UNK N   1      33.343  17.416   5.240  0.00  0.00     0.001 A 
HETATM   12  C   UNK N   1      33.707  16.166   4.695  0.00  0.00     0.001 A 
HETATM   13  C   UNK N   1      34.295  15.180   5.505  0.00  0.00     0.008 A 
HETATM   14  H   UNK N   1      35.250  17.189  11.724  0.00  0.00     0.187 HD
ENDROOT
BRANCH   6  15
HETATM   15  C   UNK N   1      36.223  14.602  11.121  0.00  0.00    -0.005 A 
HETATM   16  C   UNK N   1      35.891  14.355  12.458  0.00  0.00     0.030 A 
HETATM   17  C   UNK N   1      36.564  13.361  13.166  0.00  0.00     0.088 A 
HETATM   18  N   UNK N   1      37.534  12.630  12.556  0.00  0.00    -0.375 N 
HETATM   19  C   UNK N   1      37.877  12.850  11.257  0.00  0.00     0.088 A 
ATOM     20  HN  UNK N   1      38.015  11.901  13.083  1.00  0.00     0.164 HD
HETATM   21  C   UNK N   1      37.227  13.840  10.514  0.00  0.00     0.030 A 
ENDBRANCH   6  15
TORSDOF 1
ENDMDL
MODEL 2
REMARK VINA RESULT:      -6.6      6.752      9.029
REMARK  1 active torsions:
REMARK  status: ('A' for Active; 'I' for Inactive)
REMARK    1  A    between atoms: C_6  and  C_7 
ROOT
HETATM    1  N   UNK N   1      27.028  16.548   7.012  0.00  0.00    -0.299 N 
HETATM    2  N   UNK N   1      25.975  16.792   6.231  0.00  0.00    -0.299 N 
ATOM      3  HN  UNK N   1      25.093  16.279   6.220  1.00  0.00     0.187 HD
HETATM    4  C   UNK N   1      26.299  17.843   5.458  0.00  0.00     0.067 A 
HETATM    5  C   UNK N   1      27.531  18.269   5.720  0.00  0.00     0.004 A 
HETATM    6  C   UNK N   1      28.000  17.456   6.717  0.00  0.00     0.067 A 
HETATM    7  C   UNK N   1      27.942  19.464   4.903  0.00  0.00     0.083 A 
HETATM    8  C   UNK N   1      26.640  19.634   4.134  0.00  0.00    -0.041 A 
HETATM    9  C   UNK N   1      25.696  18.674   4.473  0.00  0.00    -0.001 A 
HETATM   10  C   UNK N   1      24.423  18.661   3.915  0.00  0.00     0.014 A 
HETATM   11  C   UNK N   1      24.110  19.659   2.974  0.00  0.00     0.001 A 
HETATM   12  C   UNK N   1      25.065  20.636   2.621  0.00  0.00     0.001 A 
HETATM   13  C   UNK N   1      26.343  20.627   3.205  0.00  0.00     0.008 A 
HETATM   14  H   UNK N   1      27.092  15.834   7.687  0.00  0.00     0.187 HD
ENDROOT
BRANCH   6  15
HETATM   15  C   UNK N   1      29.299  17.580   7.397  0.00  0.00    -0.005 A 
HETATM   16  C   UNK N   1      29.433  18.449   8.487  0.00  0.00     0.030 A 
HETATM   17  C   UNK N   1      30.650  18.530   9.161  0.00  0.00     0.088 A 
HETATM   18  N   UNK N   1      31.699  17.762   8.764  0.00  0.00    -0.375 N 
HETATM   19  C   UNK N   1      31.596  16.910   7.708  0.00  0.00     0.088 A 
ATOM     20  HN  UNK N   1      32.583  17.826   9.270  1.00  0.00     0.164 HD
HETATM   21  C   UNK N   1      30.392  16.803   7.004  0.00  0.00     0.030 A 
ENDBRANCH   6  15
TORSDOF 1
ENDMDL
MODEL 3
REMARK VINA RESULT:      -6.6      3.997      8.968
REMARK  1 active torsions:
REMARK  status: ('A' for Active; 'I' for Inactive)
REMARK    1  A    between atoms: C_6  and  C_7 
ROOT
HETATM    1  N   UNK N   1      36.373  10.900  13.614  0.00  0.00    -0.299 N 
HETATM    2  N   UNK N   1      36.137  10.364  14.812  0.00  0.00    -0.299 N 
ATOM      3  HN  UNK N   1      36.150   9.372  15.048  1.00  0.00     0.187 HD
HETATM    4  C   UNK N   1      35.875  11.383  15.649  0.00  0.00     0.067 A 
HETATM    5  C   UNK N   1      35.930  12.551  15.016  0.00  0.00     0.004 A 
HETATM    6  C   UNK N   1      36.258  12.253  13.720  0.00  0.00     0.067 A 
HETATM    7  C   UNK N   1      35.671  13.733  15.909  0.00  0.00     0.083 A 
HETATM    8  C   UNK N   1      35.484  12.962  17.208  0.00  0.00    -0.041 A 
HETATM    9  C   UNK N   1      35.604  11.591  17.030  0.00  0.00    -0.001 A 
HETATM   10  C   UNK N   1      35.501  10.698  18.091  0.00  0.00     0.014 A 
HETATM   11  C   UNK N   1      35.259  11.227  19.371  0.00  0.00     0.001 A 
HETATM   12  C   UNK N   1      35.132  12.620  19.559  0.00  0.00     0.001 A 
HETATM   13  C   UNK N   1      35.245  13.499  18.469  0.00  0.00     0.008 A 
HETATM   14  H   UNK N   1      36.595  10.403  12.794  0.00  0.00     0.187 HD
ENDROOT
BRANCH   6  15
HETATM   15  C   UNK N   1      36.506  13.227  12.645  0.00  0.00    -0.005 A 
HETATM   16  C   UNK N   1      37.398  12.911  11.613  0.00  0.00     0.030 A 
HETATM   17  C   UNK N   1      37.596  13.813  10.570  0.00  0.00     0.088 A 
HETATM   18  N   UNK N   1      36.920  14.992  10.552  0.00  0.00    -0.375 N 
HETATM   19  C   UNK N   1      36.048  15.324  11.543  0.00  0.00     0.088 A 
ATOM     20  HN  UNK N   1      37.068  15.641   9.780  1.00  0.00     0.164 HD
HETATM   21  C   UNK N   1      35.824  14.446  12.609  0.00  0.00     0.030 A 
ENDBRANCH   6  15
TORSDOF 1
ENDMDL
MODEL 4
REMARK VINA RESULT:      -6.5      3.268      5.599
REMARK  1 active torsions:
REMARK  status: ('A' for Active; 'I' for Inactive)
REMARK    1  A    between atoms: C_6  and  C_7 
ROOT
HETATM    1  N   UNK N   1      37.086  14.365  15.389  0.00  0.00    -0.299 N 
HETATM    2  N   UNK N   1      37.037  15.186  14.339  0.00  0.00    -0.299 N 
ATOM      3  HN  UNK N   1      37.500  16.090  14.252  1.00  0.00     0.187 HD
HETATM    4  C   UNK N   1      36.257  14.592  13.418  0.00  0.00     0.067 A 
HETATM    5  C   UNK N   1      35.804  13.421  13.855  0.00  0.00     0.004 A 
HETATM    6  C   UNK N   1      36.335  13.263  15.107  0.00  0.00     0.067 A 
HETATM    7  C   UNK N   1      34.946  12.696  12.854  0.00  0.00     0.083 A 
HETATM    8  C   UNK N   1      35.043  13.720  11.733  0.00  0.00    -0.041 A 
HETATM    9  C   UNK N   1      35.812  14.820  12.086  0.00  0.00    -0.001 A 
HETATM   10  C   UNK N   1      36.060  15.862  11.200  0.00  0.00     0.014 A 
HETATM   11  C   UNK N   1      35.496  15.777   9.915  0.00  0.00     0.001 A 
HETATM   12  C   UNK N   1      34.709  14.664   9.549  0.00  0.00     0.001 A 
HETATM   13  C   UNK N   1      34.479  13.623  10.464  0.00  0.00     0.008 A 
HETATM   14  H   UNK N   1      37.581  14.526  16.224  0.00  0.00     0.187 HD
ENDROOT
BRANCH   6  15
HETATM   15  C   UNK N   1      36.178  12.083  15.971  0.00  0.00    -0.005 A 
HETATM   16  C   UNK N   1      36.830  10.888  15.643  0.00  0.00     0.030 A 
HETATM   17  C   UNK N   1      36.720   9.785  16.487  0.00  0.00     0.088 A 
HETATM   18  N   UNK N   1      35.988   9.873  17.629  0.00  0.00    -0.375 N 
HETATM   19  C   UNK N   1      35.343  11.022  17.971  0.00  0.00     0.088 A 
ATOM     20  HN  UNK N   1      35.920   9.061  18.242  1.00  0.00     0.164 HD
HETATM   21  C   UNK N   1      35.426  12.149  17.148  0.00  0.00     0.030 A 
ENDBRANCH   6  15
TORSDOF 1
ENDMDL
MODEL 5
REMARK VINA RESULT:      -6.5     17.829     19.675
REMARK  1 active torsions:
REMARK  status: ('A' for Active; 'I' for Inactive)
REMARK    1  A    between atoms: C_6  and  C_7 
ROOT
HETATM    1  N   UNK N   1      25.313  24.285  -6.936  0.00  0.00    -0.299 N 
HETATM    2  N   UNK N   1      25.826  23.215  -7.545  0.00  0.00    -0.299 N 
ATOM      3  HN  UNK N   1      25.426  22.718  -8.341  1.00  0.00     0.187 HD
HETATM    4  C   UNK N   1      26.971  22.917  -6.907  0.00  0.00     0.067 A 
HETATM    5  C   UNK N   1      27.197  23.762  -5.905  0.00  0.00     0.004 A 
HETATM    6  C   UNK N   1      26.150  24.644  -5.922  0.00  0.00     0.067 A 
HETATM    7  C   UNK N   1      28.481  23.494  -5.169  0.00  0.00     0.083 A 
HETATM    8  C   UNK N   1      28.947  22.313  -6.009  0.00  0.00    -0.041 A 
HETATM    9  C   UNK N   1      28.048  21.993  -7.016  0.00  0.00    -0.001 A 
HETATM   10  C   UNK N   1      28.289  20.967  -7.922  0.00  0.00     0.014 A 
HETATM   11  C   UNK N   1      29.487  20.242  -7.787  0.00  0.00     0.001 A 
HETATM   12  C   UNK N   1      30.405  20.559  -6.763  0.00  0.00     0.001 A 
HETATM   13  C   UNK N   1      30.136  21.605  -5.864  0.00  0.00     0.008 A 
HETATM   14  H   UNK N   1      24.473  24.738  -7.178  0.00  0.00     0.187 HD
ENDROOT
BRANCH   6  15
HETATM   15  C   UNK N   1      25.989  25.813  -5.044  0.00  0.00    -0.005 A 
HETATM   16  C   UNK N   1      26.458  25.764  -3.726  0.00  0.00     0.030 A 
HETATM   17  C   UNK N   1      26.349  26.888  -2.910  0.00  0.00     0.088 A 
HETATM   18  N   UNK N   1      25.795  28.030  -3.397  0.00  0.00    -0.375 N 
HETATM   19  C   UNK N   1      25.330  28.105  -4.674  0.00  0.00     0.088 A 
ATOM     20  HN  UNK N   1      25.727  28.848  -2.792  1.00  0.00     0.164 HD
HETATM   21  C   UNK N   1      25.418  26.997  -5.522  0.00  0.00     0.030 A 
ENDBRANCH   6  15
TORSDOF 1
ENDMDL
MODEL 6
REMARK VINA RESULT:      -6.5      5.575      9.278
REMARK  1 active torsions:
REMARK  status: ('A' for Active; 'I' for Inactive)
REMARK    1  A    between atoms: C_6  and  C_7 
ROOT
HETATM    1  N   UNK N   1      30.327  16.900   2.609  0.00  0.00    -0.299 N 
HETATM    2  N   UNK N   1      31.539  17.062   3.141  0.00  0.00    -0.299 N 
ATOM      3  HN  UNK N   1      32.419  17.153   2.634  1.00  0.00     0.187 HD
HETATM    4  C   UNK N   1      31.377  17.083   4.476  0.00  0.00     0.067 A 
HETATM    5  C   UNK N   1      30.099  16.930   4.807  0.00  0.00     0.004 A 
HETATM    6  C   UNK N   1      29.420  16.823   3.623  0.00  0.00     0.067 A 
HETATM    7  C   UNK N   1      29.852  16.971   6.291  0.00  0.00     0.083 A 
HETATM    8  C   UNK N   1      31.291  17.212   6.724  0.00  0.00    -0.041 A 
HETATM    9  C   UNK N   1      32.164  17.271   5.646  0.00  0.00    -0.001 A 
HETATM   10  C   UNK N   1      33.523  17.516   5.810  0.00  0.00     0.014 A 
HETATM   11  C   UNK N   1      34.002  17.699   7.120  0.00  0.00     0.001 A 
HETATM   12  C   UNK N   1      33.121  17.637   8.221  0.00  0.00     0.001 A 
HETATM   13  C   UNK N   1      31.751  17.392   8.024  0.00  0.00     0.008 A 
HETATM   14  H   UNK N   1      30.122  16.847   1.647  0.00  0.00     0.187 HD
ENDROOT
BRANCH   6  15
HETATM   15  C   UNK N   1      27.961  16.711   3.469  0.00  0.00    -0.005 A 
HETATM   16  C   UNK N   1      27.131  17.735   3.941  0.00  0.00     0.030 A 
HETATM   17  C   UNK N   1      25.753  17.651   3.751  0.00  0.00     0.088 A 
HETATM   18  N   UNK N   1      25.220  16.582   3.102  0.00  0.00    -0.375 N 
HETATM   19  C   UNK N   1      26.004  15.573   2.634  0.00  0.00     0.088 A 
ATOM     20  HN  UNK N   1      24.210  16.536   2.964  1.00  0.00     0.164 HD
HETATM   21  C   UNK N   1      27.391  15.619   2.808  0.00  0.00     0.030 A 
ENDBRANCH   6  15
TORSDOF 1
ENDMDL
MODEL 7
REMARK VINA RESULT:      -6.5     13.830     15.610
REMARK  1 active torsions:
REMARK  status: ('A' for Active; 'I' for Inactive)
REMARK    1  A    between atoms: C_6  and  C_7 
ROOT
HETATM    1  N   UNK N   1      20.678  16.670   7.000  0.00  0.00    -0.299 N 
HETATM    2  N   UNK N   1      21.520  15.699   6.645  0.00  0.00    -0.299 N 
ATOM      3  HN  UNK N   1      22.052  15.643   5.777  1.00  0.00     0.187 HD
HETATM    4  C   UNK N   1      21.532  14.808   7.651  0.00  0.00     0.067 A 
HETATM    5  C   UNK N   1      20.715  15.180   8.632  0.00  0.00     0.004 A 
HETATM    6  C   UNK N   1      20.174  16.372   8.230  0.00  0.00     0.067 A 
HETATM    7  C   UNK N   1      20.706  14.233   9.801  0.00  0.00     0.083 A 
HETATM    8  C   UNK N   1      21.734  13.247   9.264  0.00  0.00    -0.041 A 
HETATM    9  C   UNK N   1      22.200  13.603   8.005  0.00  0.00    -0.001 A 
HETATM   10  C   UNK N   1      23.169  12.860   7.340  0.00  0.00     0.014 A 
HETATM   11  C   UNK N   1      23.670  11.713   7.982  0.00  0.00     0.001 A 
HETATM   12  C   UNK N   1      23.199  11.343   9.260  0.00  0.00     0.001 A 
HETATM   13  C   UNK N   1      22.221  12.116   9.910  0.00  0.00     0.008 A 
HETATM   14  H   UNK N   1      20.459  17.467   6.465  0.00  0.00     0.187 HD
ENDROOT
BRANCH   6  15
HETATM   15  C   UNK N   1      19.260  17.216   9.015  0.00  0.00    -0.005 A 
HETATM   16  C   UNK N   1      19.731  18.401   9.593  0.00  0.00     0.030 A 
HETATM   17  C   UNK N   1      18.853  19.225  10.295  0.00  0.00     0.088 A 
HETATM   18  N   UNK N   1      17.544  18.880  10.412  0.00  0.00    -0.375 N 
HETATM   19  C   UNK N   1      17.060  17.733   9.861  0.00  0.00     0.088 A 
ATOM     20  HN  UNK N   1      16.910  19.495  10.923  1.00  0.00     0.164 HD
HETATM   21  C   UNK N   1      17.910  16.879   9.152  0.00  0.00     0.030 A 
ENDBRANCH   6  15
TORSDOF 1
ENDMDL
MODEL 8
REMARK VINA RESULT:      -6.4     14.565     18.126
REMARK  1 active torsions:
REMARK  status: ('A' for Active; 'I' for Inactive)
REMARK    1  A    between atoms: C_6  and  C_7 
ROOT
HETATM    1  N   UNK N   1      28.305  22.515  -6.616  0.00  0.00    -0.299 N 
HETATM    2  N   UNK N   1      27.345  23.377  -6.953  0.00  0.00    -0.299 N 
ATOM      3  HN  UNK N   1      26.757  23.338  -7.786  1.00  0.00     0.187 HD
HETATM    4  C   UNK N   1      27.301  24.308  -5.985  0.00  0.00     0.067 A 
HETATM    5  C   UNK N   1      28.211  24.068  -5.046  0.00  0.00     0.004 A 
HETATM    6  C   UNK N   1      28.850  22.921  -5.435  0.00  0.00     0.067 A 
HETATM    7  C   UNK N   1      28.191  25.064  -3.919  0.00  0.00     0.083 A 
HETATM    8  C   UNK N   1      27.034  25.913  -4.426  0.00  0.00    -0.041 A 
HETATM    9  C   UNK N   1      26.532  25.453  -5.635  0.00  0.00    -0.001 A 
HETATM   10  C   UNK N   1      25.451  26.061  -6.264  0.00  0.00     0.014 A 
HETATM   11  C   UNK N   1      24.872  27.178  -5.636  0.00  0.00     0.001 A 
HETATM   12  C   UNK N   1      25.379  27.654  -4.408  0.00  0.00     0.001 A 
HETATM   13  C   UNK N   1      26.470  27.017  -3.794  0.00  0.00     0.008 A 
HETATM   14  H   UNK N   1      28.575  21.721  -7.132  0.00  0.00     0.187 HD
ENDROOT
BRANCH   6  15
HETATM   15  C   UNK N   1      29.894  22.213  -4.678  0.00  0.00    -0.005 A 
HETATM   16  C   UNK N   1      30.417  21.012  -5.171  0.00  0.00     0.030 A 
HETATM   17  C   UNK N   1      31.441  20.367  -4.479  0.00  0.00     0.088 A 
HETATM   18  N   UNK N   1      31.932  20.907  -3.334  0.00  0.00    -0.375 N 
HETATM   19  C   UNK N   1      31.441  22.074  -2.831  0.00  0.00     0.088 A 
ATOM     20  HN  UNK N   1      32.686  20.429  -2.840  1.00  0.00     0.164 HD
HETATM   21  C   UNK N   1      30.412  22.749  -3.495  0.00  0.00     0.030 A 
ENDBRANCH   6  15
TORSDOF 1
ENDMDL
MODEL 9
REMARK VINA RESULT:      -6.3     12.579     13.743
REMARK  1 active torsions:
REMARK  status: ('A' for Active; 'I' for Inactive)
REMARK    1  A    between atoms: C_6  and  C_7 
ROOT
HETATM    1  N   UNK N   1      19.879  15.894   8.989  0.00  0.00    -0.299 N 
HETATM    2  N   UNK N   1      19.969  16.831   8.044  0.00  0.00    -0.299 N 
ATOM      3  HN  UNK N   1      19.336  17.619   7.907  1.00  0.00     0.187 HD
HETATM    4  C   UNK N   1      21.053  16.535   7.306  0.00  0.00     0.067 A 
HETATM    5  C   UNK N   1      21.650  15.433   7.750  0.00  0.00     0.004 A 
HETATM    6  C   UNK N   1      20.915  15.023   8.829  0.00  0.00     0.067 A 
HETATM    7  C   UNK N   1      22.888  15.067   6.977  0.00  0.00     0.083 A 
HETATM    8  C   UNK N   1      22.869  16.238   6.006  0.00  0.00    -0.041 A 
HETATM    9  C   UNK N   1      21.786  17.081   6.216  0.00  0.00    -0.001 A 
HETATM   10  C   UNK N   1      21.591  18.233   5.461  0.00  0.00     0.014 A 
HETATM   11  C   UNK N   1      22.531  18.525   4.457  0.00  0.00     0.001 A 
HETATM   12  C   UNK N   1      23.632  17.671   4.235  0.00  0.00     0.001 A 
HETATM   13  C   UNK N   1      23.807  16.516   5.016  0.00  0.00     0.008 A 
HETATM   14  H   UNK N   1      19.184  15.842   9.685  0.00  0.00     0.187 HD
ENDROOT
BRANCH   6  15
HETATM   15  C   UNK N   1      21.225  13.882   9.704  0.00  0.00    -0.005 A 
HETATM   16  C   UNK N   1      22.547  13.439   9.829  0.00  0.00     0.030 A 
HETATM   17  C   UNK N   1      22.847  12.390  10.695  0.00  0.00     0.088 A 
HETATM   18  N   UNK N   1      21.858  11.804  11.421  0.00  0.00    -0.375 N 
HETATM   19  C   UNK N   1      20.564  12.214  11.318  0.00  0.00     0.088 A 
ATOM     20  HN  UNK N   1      22.091  11.041  12.056  1.00  0.00     0.164 HD
HETATM   21  C   UNK N   1      20.223  13.262  10.457  0.00  0.00     0.030 A 
ENDBRANCH   6  15
TORSDOF 1
ENDMDL
