REMARK  4 active torsions:
REMARK  status: ('A' for Active; 'I' for Inactive)
REMARK    1  A    between atoms: C_2  and  N_28 
REMARK       I    between atoms: C_3  and  N_29 
REMARK    2  A    between atoms: C_6  and  C_13 
REMARK    3  A    between atoms: C_9  and  N_27 
REMARK    4  A    between atoms: C_13  and  N_27 
ROOT
HETATM    1  C   UNK N   1       0.337  -2.840  -0.105  0.00  0.00     0.059 A 
HETATM    2  C   UNK N   1       1.640  -3.338  -0.371  0.00  0.00     0.129 A 
HETATM    3  C   UNK N   1       0.822  -5.560  -0.304  0.00  0.00     0.679 A 
HETATM    4  C   UNK N   1      -0.701  -3.789   0.046  0.00  0.00     0.135 A 
HETATM    5  C   UNK N   1       0.015  -1.461   0.032  0.00  0.00    -0.035 A 
HETATM    6  C   UNK N   1      -1.318  -1.090   0.316  0.00  0.00    -0.018 A 
HETATM    7  C   UNK N   1      -2.291  -2.077   0.448  0.00  0.00     0.099 A 
HETATM    8  C   UNK N   1       1.058  -0.397  -0.086  0.00  0.00     0.050 C 
HETATM    9  N   UNK N   1       1.840  -4.678  -0.460  0.00  0.00    -0.176 N 
ATOM     10  HN  UNK N   1       2.779  -5.030  -0.648  1.00  0.00     0.186 HD
HETATM   11  N   UNK N   1      -0.433  -5.115  -0.057  0.00  0.00    -0.176 N 
ATOM     12  HN  UNK N   1      -1.191  -5.789   0.053  1.00  0.00     0.186 HD
HETATM   13  N   UNK N   1      -1.970  -3.386   0.307  0.00  0.00    -0.350 N 
ATOM     14  HN  UNK N   1      -2.704  -4.089   0.400  1.00  0.00     0.166 HD
HETATM   15  N   UNK N   1       1.072  -6.943  -0.394  0.00  0.00    -0.234 N 
HETATM   16  H   UNK N   1       0.321  -7.578  -0.456  0.00  0.00     0.174 HD
HETATM   17  H   UNK N   1       1.998  -7.276  -0.394  0.00  0.00     0.174 HD
ENDROOT
BRANCH   6  18
HETATM   18  C   UNK N   1      -1.725   0.328   0.567  0.00  0.00     0.160 C 
BRANCH  18  19
HETATM   19  N   UNK N   1      -1.591   1.164  -0.598  0.00  0.00    -0.385 N 
HETATM   20  H   UNK N   1      -1.482   0.770  -1.494  0.00  0.00     0.160 HD
BRANCH  19  21
HETATM   21  C   UNK N   1      -1.620   2.566  -0.419  0.00  0.00     0.040 A 
HETATM   22  C   UNK N   1      -2.842   3.248  -0.457  0.00  0.00     0.030 A 
HETATM   23  C   UNK N   1      -2.889   4.626  -0.213  0.00  0.00     0.005 A 
HETATM   24  C   UNK N   1      -1.717   5.329   0.082  0.00  0.00     0.030 A 
HETATM   25  C   UNK N   1      -0.492   4.660   0.123  0.00  0.00     0.044 A 
HETATM   26  C   UNK N   1      -0.438   3.273  -0.132  0.00  0.00     0.017 A 
HETATM   27  N   UNK N   1       0.648   5.341   0.420  0.00  0.00    -0.365 N 
HETATM   28  C   UNK N   1       0.799   2.626  -0.078  0.00  0.00     0.017 A 
HETATM   29  C   UNK N   1       1.952   3.347   0.223  0.00  0.00     0.018 A 
HETATM   30  C   UNK N   1       1.857   4.716   0.475  0.00  0.00     0.088 A 
ATOM     31  HN  UNK N   1       0.596   6.343   0.607  1.00  0.00     0.165 HD
ENDBRANCH  19  21
ENDBRANCH  18  19
ENDBRANCH   6  18
BRANCH   2  32
HETATM   32  N   UNK N   1       2.748  -2.481  -0.539  0.00  0.00    -0.384 N 
HETATM   33  H   UNK N   1       3.652  -2.851  -0.657  0.00  0.00     0.157 HD
HETATM   34  H   UNK N   1       2.615  -1.505  -0.539  0.00  0.00     0.157 HD
ENDBRANCH   2  32
TORSDOF 4
